@<TRIPOS>MOLECULE
3R540
247   249    1
SMALL
USER_CHARGES


@<TRIPOS>ATOM
      1 CA         -4.2273  -17.2070  -46.2657 C.3       0 UNK        -0.1800 
      2 C          -3.9960  -15.7329  -46.5662 C.2       0 UNK         0.5000 
      3 O          -4.7733  -14.8862  -46.1248 O.2       0 UNK        -0.5000 
      4 N          -2.9289  -15.4261  -47.3119 N.am      1 UNK        -0.5000 
      5 CA         -2.4613  -14.0638  -47.5854 C.3       1 UNK         0.1400 
      6 C6         -1.5424  -14.0138  -48.8304 C.3       23 UNK        -0.0398 
      7 S7         -2.4515  -14.2737  -50.3927 S.3       23 UNK        -0.2404 
      8 C8         -2.3697  -16.0779  -50.6294 C.3       23 UNK        -0.0205 
      9 C9         -0.9436  -16.5967  -50.7316 C.ar      23 UNK        -0.0193 
     10 C10        -0.1848  -16.3389  -51.8756 C.ar      23 UNK        -0.1150 
     11 C11         1.1290  -16.8052  -51.9748 C.ar      23 UNK        -0.0193 
     12 C12         1.6800  -17.5396  -50.9211 C.ar      23 UNK        -0.1150 
     13 C13         0.9310  -17.8055  -49.7719 C.ar      23 UNK        -0.0193 
     14 C14        -0.3813  -17.3317  -49.6834 C.ar      23 UNK        -0.1150 
     15 C15         1.5523  -18.5799  -48.6191 C.3       23 UNK        -0.0205 
     16 S16         1.2037  -20.3644  -48.7263 S.3       23 UNK        -0.2404 
     17 C17        -0.5385  -20.4148  -48.1931 C.3       23 UNK        -0.0398 
     18 CA         -0.9045  -21.7219  -47.4551 C.3       11 UNK         0.1400 
     19 N          -0.1821  -21.8899  -46.1895 N.am      11 UNK        -0.5000 
     20 C          -0.1355  -23.0403  -45.5022 C.2       10 UNK         0.5000 
     21 O          -0.6982  -24.0732  -45.8647 O.2       10 UNK        -0.5000 
     22 CA          0.6166  -23.0256  -44.1603 C.3       10 UNK         0.1400 
     23 CB          2.1356  -23.0182  -44.3825 C.3       10 UNK        -0.1800 
     24 N           0.2301  -21.9012  -43.3073 N.am      10 UNK        -0.5000 
     25 C          -1.0058  -21.7023  -42.8274 C.2       9 UNK         0.5000 
     26 O          -1.9555  -22.4493  -43.0560 O.2       9 UNK        -0.5000 
     27 CA         -1.2321  -20.4418  -41.9777 C.3       9 UNK         0.1400 
     28 CB         -0.7968  -20.6738  -40.5230 C.3       9 UNK        -0.1800 
     29 N          -0.5308  -19.2821  -42.5207 N.am      9 UNK        -0.5000 
     30 C          -0.8736  -18.6484  -43.6505 C.2       8 UNK         0.5000 
     31 O          -1.8396  -18.9552  -44.3492 O.2       8 UNK        -0.5000 
     32 CA          0.0600  -17.5064  -44.0889 C.3       8 UNK         0.1400 
     33 CB         -0.1935  -16.2560  -43.2324 C.3       8 UNK        -0.1800 
     34 N           1.4744  -17.8793  -44.0017 N.am      8 UNK        -0.5000 
     35 C           2.0364  -18.8919  -44.6817 C.2       7 UNK         0.5000 
     36 O           1.4215  -19.6080  -45.4694 O.2       7 UNK        -0.5000 
     37 CA          3.5193  -19.1978  -44.3958 C.3       7 UNK         0.1400 
     38 CB          4.4209  -18.3309  -45.2872 C.3       7 UNK        -0.1800 
     39 N           3.8934  -18.9992  -42.9959 N.am      7 UNK        -0.5000 
     40 C           3.2997  -19.5682  -41.9364 C.2       6 UNK         0.5000 
     41 O           2.4257  -20.4306  -42.0271 O.2       6 UNK        -0.5000 
     42 CA          3.7064  -19.0490  -40.5413 C.3       6 UNK         0.1400 
     43 CB          4.6255  -20.0620  -39.8427 C.3       6 UNK        -0.1800 
     44 N           4.3571  -17.7309  -40.5378 N.am      6 UNK        -0.5000 
     45 C           3.8323  -16.5938  -41.0157 C.2       5 UNK         0.5000 
     46 O           2.7251  -16.5229  -41.5599 O.2       5 UNK        -0.5000 
     47 CA          4.7190  -15.3441  -40.9216 C.3       5 UNK         0.1400 
     48 CB          5.9367  -15.4600  -41.8596 C.3       5 UNK        -0.1800 
     49 N           3.9167  -14.1897  -41.3004 N.am      5 UNK        -0.5000 
     50 C           4.1839  -12.9069  -41.0379 C.2       4 UNK         0.5000 
     51 O           5.1577  -12.5322  -40.3816 O.2       4 UNK        -0.5000 
     52 CA          3.1851  -11.8822  -41.6193 C.3       4 UNK         0.1400 
     53 CB          3.7476  -10.4459  -41.6667 C.3       4 UNK        -0.1800 
     54 N           2.6590  -12.2827  -42.9322 N.am      4 UNK        -0.5000 
     55 C           3.3549  -12.4763  -44.0656 C.2       3 UNK         0.5000 
     56 O           4.5713  -12.3138  -44.1659 O.2       3 UNK        -0.5000 
     57 CA          2.5598  -12.9485  -45.3000 C.3       3 UNK         0.1400 
     58 CB          2.7735  -14.4549  -45.5288 C.3       3 UNK        -0.1800 
     59 N           1.1221  -12.6827  -45.2066 N.am      3 UNK        -0.5000 
     60 C           0.5449  -11.4779  -45.2940 C.2       2 UNK         0.5000 
     61 O           1.1740  -10.4364  -45.4885 O.2       2 UNK        -0.5000 
     62 CA         -0.9938  -11.4499  -45.1516 C.3       2 UNK         0.1400 
     63 CB         -1.5578  -10.0183  -45.1010 C.3       2 UNK        -0.1800 
     64 N          -1.6700  -12.1816  -46.2261 N.am      2 UNK        -0.5000 
     65 C          -1.7175  -13.5138  -46.3522 C.2       1 UNK         0.5000 
     66 O          -1.1723  -14.2901  -45.5633 O.2       1 UNK        -0.5000 
     67 C          -2.4327  -21.8234  -47.2762 C.2       11 UNK         0.5000 
     68 O          -3.1096  -22.2624  -48.2057 O.2       11 UNK        -0.5000 
     69 N          -2.9554  -21.4377  -46.1031 N.am      12 UNK        -0.5000 
     70 CA         -4.3622  -21.6189  -45.7456 C.3       12 UNK         0.1400 
     71 CB         -4.7125  -20.7565  -44.5242 C.3       12 UNK        -0.1800 
     72 C          -4.6998  -23.0992  -45.4920 C.2       12 UNK         0.5000 
     73 O          -5.6915  -23.5925  -46.0282 O.2       12 UNK        -0.5000 
     74 N          -3.8552  -23.7876  -44.7103 N.am      13 UNK        -0.5000 
     75 CA         -3.9928  -25.2041  -44.3621 C.3       13 UNK         0.1400 
     76 CB         -2.9669  -25.5670  -43.2778 C.3       13 UNK        -0.1800 
     77 C          -3.8544  -26.1421  -45.5744 C.2       13 UNK         0.5000 
     78 O          -4.6232  -27.0962  -45.6966 O.2       13 UNK        -0.5000 
     79 N          -2.9000  -25.8369  -46.4638 N.am      14 UNK        -0.5000 
     80 CA         -2.6833  -26.5440  -47.7285 C.3       14 UNK         0.1400 
     81 CB         -1.2691  -26.2194  -48.2369 C.3       14 UNK        -0.1800 
     82 C          -3.7250  -26.1931  -48.8106 C.2       14 UNK         0.5000 
     83 O          -3.7762  -26.8726  -49.8355 O.2       14 UNK        -0.5000 
     84 N          -4.4922  -25.1156  -48.5859 N.am      15 UNK        -0.5000 
     85 CA         -5.4640  -24.4735  -49.4795 C.3       15 UNK         0.1400 
     86 CB         -6.5836  -25.4451  -49.9022 C.3       15 UNK        -0.1800 
     87 C          -4.8307  -23.7639  -50.6929 C.2       15 UNK         0.5000 
     88 O          -5.5615  -23.2030  -51.5097 O.2       15 UNK        -0.5000 
     89 N          -3.4929  -23.7381  -50.7724 N.am      16 UNK        -0.5000 
     90 CA         -2.6907  -23.0964  -51.8155 C.3       16 UNK         0.1400 
     91 CB         -1.2048  -23.3658  -51.5387 C.3       16 UNK        -0.1800 
     92 C          -2.9408  -21.5835  -51.9573 C.2       16 UNK         0.5000 
     93 O          -2.7597  -21.0394  -53.0468 O.2       16 UNK        -0.5000 
     94 N          -3.3918  -20.9464  -50.8692 N.am      17 UNK        -0.5000 
     95 CA         -3.8187  -19.5505  -50.8247 C.3       17 UNK         0.1400 
     96 CB         -4.0941  -19.1657  -49.3609 C.3       17 UNK        -0.1800 
     97 C          -5.0617  -19.2395  -51.6827 C.2       17 UNK         0.5000 
     98 O          -5.2176  -18.0898  -52.0943 O.2       17 UNK        -0.5000 
     99 N          -5.9281  -20.2380  -51.9116 N.am      18 UNK        -0.5000 
    100 CA        -7.2440  -20.0531  -52.5275 C.3       18 UNK         0.1400 
    101 CB        -8.3292  -20.2545  -51.4569 C.3       18 UNK        -0.1800 
    102 C         -7.4837  -20.9925  -53.7178 C.2       18 UNK         0.5000 
    103 O         -7.9782  -20.5368  -54.7491 O.2       18 UNK        -0.5000 
    104 N         -7.1515  -22.2810  -53.5626 N.am      19 UNK        -0.5000 
    105 CA        -7.3859  -23.3174  -54.5682 C.3       19 UNK         0.1400 
    106 CB        -7.3376  -24.7037  -53.9049 C.3       19 UNK        -0.1800 
    107 C         -6.3775  -23.2214  -55.7217 C.2       19 UNK         0.5000 
    108 O         -6.7788  -23.2203  -56.8861 O.2       19 UNK        -0.5000 
    109 N         -5.0889  -23.1160  -55.3706 N.am      20 UNK        -0.5000 
    110 CA        -4.0037  -22.8981  -56.3280 C.3       20 UNK         0.1400 
    111 CB        -2.7031  -23.5069  -55.7805 C.3       20 UNK        -0.1800 
    112 C         -3.8006  -21.4045  -56.6342 C.2       20 UNK         0.5000 
    113 O         -3.2779  -21.0790  -57.6999 O.2       20 UNK        -0.5000 
    114 N         -4.1740  -20.5324  -55.6835 N.am      21 UNK        -0.5000 
    115 CA        -3.9766  -19.0775  -55.6841 C.3       21 UNK         0.1400 
    116 CB        -4.9213  -18.4082  -56.7022 C.3       21 UNK        -0.1800 
    117 C         -2.4931  -18.6929  -55.8800 C.2       21 UNK         0.5000 
    118 O         -2.1734  -17.8329  -56.7023 O.2       21 UNK        -0.5000 
    119 N         -1.6155  -19.3889  -55.1447 N.am      22 UNK        -0.5000 
    120 CA        -0.1469  -19.3654  -55.2667 C.3       22 UNK         0.1400 
    121 C          0.4226  -20.1220  -56.5106 C.2       22 UNK         0.5000 
    122 N         -0.3864  -20.7200  -57.3767 N.am      22 UNK        -0.7600 
    123 O          1.6348  -20.2051  -56.6852 O.2       22 UNK        -0.5000 
    124 C124        0.4509  -17.9356  -55.1160 C.3       23 UNK        -0.0398 
    125 S125        2.0974  -17.9201  -54.3246 S.3       23 UNK        -0.2404 
    126 C126        1.9674  -16.4929  -53.2042 C.3       23 UNK        -0.0205 
    127 H127       -4.3242  -17.3525  -45.1900 H         1 UNK         0.0600 
    128 H128       -5.1440  -17.5528  -46.7431 H         1 UNK         0.0600 
    129 H129       -3.4020  -17.8292  -46.6131 H         1 UNK         0.0600 
    130 H130       -2.3010  -16.1614  -47.5929 H         1 UNK         0.3000 
    131 H131       -3.3284  -13.4244  -47.7659 H         1 UNK         0.0600 
    132 H132       -0.7170  -14.7203  -48.7404 H         1 UNK         0.0800 
    133 H133       -1.0737  -13.0318  -48.9178 H         1 UNK         0.0800 
    134 H134       -2.9101  -16.3350  -51.5417 H         1 UNK         0.0800 
    135 H135       -2.9033  -16.5669  -49.8166 H         1 UNK         0.0800 
    136 H136       -0.6162  -15.7619  -52.6814 H         1 UNK         0.1150 
    137 H137        2.6967  -17.8998  -50.9953 H         1 UNK         0.1150 
    138 H138       -0.9609  -17.5291  -48.7943 H         1 UNK         0.1150 
    139 H139        2.6339  -18.4378  -48.6173 H         1 UNK         0.0800 
    140 H140        1.1981  -18.1814  -47.6680 H         1 UNK         0.0800 
    141 H141       -0.7534  -19.5581  -47.5523 H         1 UNK         0.0800 
    142 H142       -1.1417  -20.2963  -49.0944 H         1 UNK         0.0800 
    143 H143       -0.6174  -22.5541  -48.1013 H         1 UNK         0.0600 
    144 H144        0.3332  -21.0804  -45.8485 H         1 UNK         0.3000 
    145 H145        0.3597  -23.9426  -43.6259 H         1 UNK         0.0600 
    146 H146        2.4516  -22.1554  -44.9670 H         1 UNK         0.0600 
    147 H147        2.6761  -23.0014  -43.4359 H         1 UNK         0.0600 
    148 H148        2.4519  -23.9106  -44.9239 H         1 UNK         0.0600 
    149 H149        0.9670  -21.2582  -43.0332 H         1 UNK         0.3000 
    150 H150       -2.3024  -20.2250  -41.9803 H         1 UNK         0.0600 
    151 H151       -1.0083  -19.8014  -39.9045 H         1 UNK         0.0600 
    152 H152        0.2695  -20.8884  -40.4469 H         1 UNK         0.0600 
    153 H153       -1.3324  -21.5183  -40.0875 H         1 UNK         0.0600 
    154 H154        0.3137  -18.9981  -42.0461 H         1 UNK         0.3000 
    155 H155       -0.1641  -17.2648  -45.1302 H         1 UNK         0.0600 
    156 H156       -1.2365  -15.9440  -43.3007 H         1 UNK         0.0600 
    157 H157        0.4157  -15.4163  -43.5632 H         1 UNK         0.0600 
    158 H158        0.0276  -16.4328  -42.1793 H         1 UNK         0.0600 
    159 H159        2.0325  -17.3766  -43.3202 H         1 UNK         0.3000 
    160 H160        3.7014  -20.2447  -44.6404 H         1 UNK         0.0600 
    161 H161        4.3110  -17.2695  -45.0607 H         1 UNK         0.0600 
    162 H162        4.1758  -18.4689  -46.3413 H         1 UNK         0.0600 
    163 H163        5.4712  -18.5944  -45.1620 H         1 UNK         0.0600 
    164 H164        4.6035  -18.3062  -42.8155 H         1 UNK         0.3000 
    165 H165        2.7884  -18.9609  -39.9569 H         1 UNK         0.0600 
    166 H166        5.5762  -20.1695  -40.3664 H         1 UNK         0.0600 
    167 H167        4.8379  -19.7613  -38.8166 H         1 UNK         0.0600 
    168 H168        4.1609  -21.0482  -39.8001 H         1 UNK         0.0600 
    169 H169        5.2774  -17.6979  -40.1229 H         1 UNK         0.3000 
    170 H170        5.0505  -15.2323  -39.8874 H         1 UNK         0.0600 
    171 H171        6.5601  -16.3165  -41.6010 H         1 UNK         0.0600 
    172 H172        5.6303  -15.5758  -42.9002 H         1 UNK         0.0600 
    173 H173        6.5703  -14.5752  -41.7982 H         1 UNK         0.0600 
    174 H174        3.0671  -14.4321  -41.7946 H         1 UNK         0.3000 
    175 H175        2.3326  -11.8756  -40.9387 H         1 UNK         0.0600 
    176 H176        3.0164   -9.7501  -42.0782 H         1 UNK         0.0600 
    177 H177        4.0033  -10.0931  -40.6670 H         1 UNK         0.0600 
    178 H178        4.6500  -10.3828  -42.2754 H         1 UNK         0.0600 
    179 H179        1.6650  -12.4555  -42.9695 H         1 UNK         0.3000 
    180 H180        2.9484  -12.4119  -46.1680 H         1 UNK         0.0600 
    181 H181        2.2194  -14.8084  -46.3986 H         1 UNK         0.0600 
    182 H182        3.8272  -14.6754  -45.7040 H         1 UNK         0.0600 
    183 H183        2.4589  -15.0440  -44.6675 H         1 UNK         0.0600 
    184 H184        0.5061  -13.4867  -45.1200 H         1 UNK         0.3000 
    185 H185       -1.2361  -11.9310  -44.2016 H         1 UNK         0.0600 
    186 H186       -2.6337  -10.0245  -44.9251 H         1 UNK         0.0600 
    187 H187       -1.1024   -9.4464  -44.2914 H         1 UNK         0.0600 
    188 H188       -1.3729   -9.4781  -46.0303 H         1 UNK         0.0600 
    189 H189       -2.1156  -11.6104  -46.9298 H         1 UNK         0.3000 
    190 H190       -2.3475  -21.0536  -45.3915 H         1 UNK         0.3000 
    191 H191       -4.9744  -21.2744  -46.5819 H         1 UNK         0.0600 
    192 H192       -5.7672  -20.8572  -44.2659 H         1 UNK         0.0600 
    193 H193       -4.5263  -19.7022  -44.7220 H         1 UNK         0.0600 
    194 H194       -4.1320  -21.0365  -43.6458 H         1 UNK         0.0600 
    195 H195       -3.0795  -23.2937  -44.2743 H         1 UNK         0.3000 
    196 H196       -4.9917  -25.3479  -43.9454 H         1 UNK         0.0600 
    197 H197       -3.0514  -26.6164  -42.9929 H         1 UNK         0.0600 
    198 H198       -3.1196  -24.9721  -42.3771 H         1 UNK         0.0600 
    199 H199       -1.9447  -25.3988  -43.6191 H         1 UNK         0.0600 
    200 H200       -2.2587  -25.0749  -46.2539 H         1 UNK         0.3000 
    201 H201       -2.7451  -27.6186  -47.5454 H         1 UNK         0.0600 
    202 H202       -0.5128  -26.5017  -47.5042 H         1 UNK         0.0600 
    203 H203       -1.1510  -25.1552  -48.4450 H         1 UNK         0.0600 
    204 H204       -1.0469  -26.7612  -49.1571 H         1 UNK         0.0600 
    205 H205       -4.3570  -24.6344  -47.7065 H         1 UNK         0.3000 
    206 H206       -5.9252  -23.6828  -48.8864 H         1 UNK         0.0600 
    207 H207       -7.0271  -25.9362  -49.0361 H         1 UNK         0.0600 
    208 H208       -7.3843  -24.9147  -50.4190 H         1 UNK         0.0600 
    209 H209       -6.2201  -26.2178  -50.5798 H         1 UNK         0.0600 
    210 H210       -2.9837  -24.1687  -50.0161 H         1 UNK         0.3000 
    211 H211       -2.9596  -23.5673  -52.7614 H         1 UNK         0.0600 
    212 H212       -0.5775  -22.9368  -52.3215 H         1 UNK         0.0600 
    213 H213       -0.9961  -24.4353  -51.5058 H         1 UNK         0.0600 
    214 H214       -0.8877  -22.9318  -50.5897 H         1 UNK         0.0600 
    215 H215       -3.4845  -21.4806  -50.0107 H         1 UNK         0.3000 
    216 H216       -2.9985  -18.9361  -51.2010 H         1 UNK         0.0600 
    217 H217       -4.5288  -18.1684  -49.2861 H         1 UNK         0.0600 
    218 H218       -3.1799  -19.1625  -48.7707 H         1 UNK         0.0600 
    219 H219       -4.7945  -19.8566  -48.8898 H         1 UNK         0.0600 
    220 H220       -5.7046  -21.1697  -51.5805 H         1 UNK         0.3000 
    221 H221       -7.3467  -19.0364  -52.9126 H         1 UNK         0.0600 
    222 H222       -8.2759  -21.2483  -51.0102 H         1 UNK         0.0600 
    223 H223       -8.2294  -19.5226  -50.6552 H         1 UNK         0.0600 
    224 H224       -9.3269  -20.1366  -51.8819 H         1 UNK         0.0600 
    225 H225       -6.7081  -22.5902  -52.6998 H         1 UNK         0.3000 
    226 H226       -8.3872  -23.1793  -54.9822 H         1 UNK         0.0600 
    227 H227       -7.5562  -25.4891  -54.6293 H         1 UNK         0.0600 
    228 H228       -6.3583  -24.9183  -53.4758 H         1 UNK         0.0600 
    229 H229       -8.0753  -24.7834  -53.1063 H         1 UNK         0.0600 
    230 H230       -4.8505  -23.1398  -54.3906 H         1 UNK         0.3000 
    231 H231       -4.2400  -23.4048  -57.2663 H         1 UNK         0.0600 
    232 H232       -1.9187  -23.4822  -56.5379 H         1 UNK         0.0600 
    233 H233       -2.8410  -24.5486  -55.4903 H         1 UNK         0.0600 
    234 H234       -2.3287  -22.9591  -54.9166 H         1 UNK         0.0600 
    235 H235       -4.5406  -20.9153  -54.8252 H         1 UNK         0.3000 
    236 H236       -4.2562  -18.7244  -54.6909 H         1 UNK         0.0600 
    237 H237       -4.6797  -18.6921  -57.7269 H         1 UNK         0.0600 
    238 H238       -5.9590  -18.6841  -56.5137 H         1 UNK         0.0600 
    239 H239       -4.8576  -17.3214  -56.6386 H         1 UNK         0.0600 
    240 H240       -1.9862  -20.0648  -54.4804 H         1 UNK         0.3000 
    241 H241        0.1854  -19.9531  -54.4100 H         1 UNK         0.0600 
    242 H242        0.0189  -21.2076  -58.1596 H         1 UNK         0.3800 
    243 H243       -1.3954  -20.6594  -57.3027 H         1 UNK         0.3800 
    244 H244       -0.2193  -17.3224  -54.5149 H         1 UNK         0.0800 
    245 H245        0.5154  -17.4323  -56.0821 H         1 UNK         0.0800 
    246 H246        2.9709  -16.2034  -52.8887 H         1 UNK         0.0800 
    247 H247        1.5623  -15.6365  -53.7457 H         1 UNK         0.0800 
@<TRIPOS>BOND
     1    1    2 1    
     2    1  127 1    
     3    1  128 1    
     4    1  129 1    
     5    2    3 2    
     6    2    4 am   BACKBONE|DICT|INTERRES
     7    4    5 1    
     8    4  130 1    
     9    5    6 1    
    10    5   65 1    
    11    5  131 1    
    12    6    7 1    
    13    6  132 1    
    14    6  133 1    
    15    7    8 1    
    16    8    9 1    
    17    8  134 1    
    18    8  135 1    
    19    9   10 ar   
    20    9   14 ar   
    21   10   11 ar   
    22   10  136 1    
    23   11   12 ar   
    24   11  126 1    
    25   12   13 ar   
    26   12  137 1    
    27   13   14 ar   
    28   13   15 1    
    29   14  138 1    
    30   15   16 1    
    31   15  139 1    
    32   15  140 1    
    33   16   17 1    
    34   17   18 1    
    35   17  141 1    
    36   17  142 1    
    37   18   19 1    
    38   18   67 1    
    39   18  143 1    
    40   19   20 am   BACKBONE|DICT|INTERRES
    41   19  144 1    
    42   20   21 2    
    43   20   22 1    
    44   22   23 1    
    45   22   24 1    
    46   22  145 1    
    47   23  146 1    
    48   23  147 1    
    49   23  148 1    
    50   24   25 am   BACKBONE|DICT|INTERRES
    51   24  149 1    
    52   25   26 2    
    53   25   27 1    
    54   27   28 1    
    55   27   29 1    
    56   27  150 1    
    57   28  151 1    
    58   28  152 1    
    59   28  153 1    
    60   29   30 am   BACKBONE|DICT|INTERRES
    61   29  154 1    
    62   30   31 2    
    63   30   32 1    
    64   32   33 1    
    65   32   34 1    
    66   32  155 1    
    67   33  156 1    
    68   33  157 1    
    69   33  158 1    
    70   34   35 am   BACKBONE|DICT|INTERRES
    71   34  159 1    
    72   35   36 2    
    73   35   37 1    
    74   37   38 1    
    75   37   39 1    
    76   37  160 1    
    77   38  161 1    
    78   38  162 1    
    79   38  163 1    
    80   39   40 am   BACKBONE|DICT|INTERRES
    81   39  164 1    
    82   40   41 2    
    83   40   42 1    
    84   42   43 1    
    85   42   44 1    
    86   42  165 1    
    87   43  166 1    
    88   43  167 1    
    89   43  168 1    
    90   44   45 am   BACKBONE|DICT|INTERRES
    91   44  169 1    
    92   45   46 2    
    93   45   47 1    
    94   47   48 1    
    95   47   49 1    
    96   47  170 1    
    97   48  171 1    
    98   48  172 1    
    99   48  173 1    
   100   49   50 am   BACKBONE|DICT|INTERRES
   101   49  174 1    
   102   50   51 2    
   103   50   52 1    
   104   52   53 1    
   105   52   54 1    
   106   52  175 1    
   107   53  176 1    
   108   53  177 1    
   109   53  178 1    
   110   54   55 am   BACKBONE|DICT|INTERRES
   111   54  179 1    
   112   55   56 2    
   113   55   57 1    
   114   57   58 1    
   115   57   59 1    
   116   57  180 1    
   117   58  181 1    
   118   58  182 1    
   119   58  183 1    
   120   59   60 am   BACKBONE|DICT|INTERRES
   121   59  184 1    
   122   60   61 2    
   123   60   62 1    
   124   62   63 1    
   125   62   64 1    
   126   62  185 1    
   127   63  186 1    
   128   63  187 1    
   129   63  188 1    
   130   64   65 am   BACKBONE|DICT|INTERRES
   131   64  189 1    
   132   65   66 2    
   133   67   68 2    
   134   67   69 am   BACKBONE|DICT|INTERRES
   135   69   70 1    
   136   69  190 1    
   137   70   71 1    
   138   70   72 1    
   139   70  191 1    
   140   71  192 1    
   141   71  193 1    
   142   71  194 1    
   143   72   73 2    
   144   72   74 am   BACKBONE|DICT|INTERRES
   145   74   75 1    
   146   74  195 1    
   147   75   76 1    
   148   75   77 1    
   149   75  196 1    
   150   76  197 1    
   151   76  198 1    
   152   76  199 1    
   153   77   78 2    
   154   77   79 am   BACKBONE|DICT|INTERRES
   155   79   80 1    
   156   79  200 1    
   157   80   81 1    
   158   80   82 1    
   159   80  201 1    
   160   81  202 1    
   161   81  203 1    
   162   81  204 1    
   163   82   83 2    
   164   82   84 am   BACKBONE|DICT|INTERRES
   165   84   85 1    
   166   84  205 1    
   167   85   86 1    
   168   85   87 1    
   169   85  206 1    
   170   86  207 1    
   171   86  208 1    
   172   86  209 1    
   173   87   88 2    
   174   87   89 am   BACKBONE|DICT|INTERRES
   175   89   90 1    
   176   89  210 1    
   177   90   91 1    
   178   90   92 1    
   179   90  211 1    
   180   91  212 1    
   181   91  213 1    
   182   91  214 1    
   183   92   93 2    
   184   92   94 am   BACKBONE|DICT|INTERRES
   185   94   95 1    
   186   94  215 1    
   187   95   96 1    
   188   95   97 1    
   189   95  216 1    
   190   96  217 1    
   191   96  218 1    
   192   96  219 1    
   193   97   98 2    
   194   97   99 am   BACKBONE|DICT|INTERRES
   195   99  100 1    
   196   99  220 1    
   197  100  101 1    
   198  100  102 1    
   199  100  221 1    
   200  101  222 1    
   201  101  223 1    
   202  101  224 1    
   203  102  103 2    
   204  102  104 am   BACKBONE|DICT|INTERRES
   205  104  105 1    
   206  104  225 1    
   207  105  106 1    
   208  105  107 1    
   209  105  226 1    
   210  106  227 1    
   211  106  228 1    
   212  106  229 1    
   213  107  108 2    
   214  107  109 am   BACKBONE|DICT|INTERRES
   215  109  110 1    
   216  109  230 1    
   217  110  111 1    
   218  110  112 1    
   219  110  231 1    
   220  111  232 1    
   221  111  233 1    
   222  111  234 1    
   223  112  113 2    
   224  112  114 am   BACKBONE|DICT|INTERRES
   225  114  115 1    
   226  114  235 1    
   227  115  116 1    
   228  115  117 1    
   229  115  236 1    
   230  116  237 1    
   231  116  238 1    
   232  116  239 1    
   233  117  118 2    
   234  117  119 am   BACKBONE|DICT|INTERRES
   235  119  120 1    
   236  119  240 1    
   237  120  121 1    
   238  120  124 1    
   239  120  241 1    
   240  121  122 am   BACKBONE|DICT|INTERRES
   241  121  123 2    
   242  122  242 1    
   243  122  243 1    
   244  124  125 1    
   245  124  244 1    
   246  124  245 1    
   247  125  126 1    
   248  126  246 1    
   249  126  247 1    
@<TRIPOS>SUBSTRUCTURE
     1 UNK         1 GROUP             0       ****    0 ROOT    
