@<TRIPOS>MOLECULE
3R540
247   249    1
SMALL
USER_CHARGES


@<TRIPOS>ATOM
      1 CA          1.9116   -9.6871  -48.4916 C.3       0 UNK        -0.1800 
      2 C           1.1120   -9.6920  -47.1898 C.2       0 UNK         0.5000 
      3 O           1.3063   -8.8042  -46.3621 O.2       0 UNK        -0.5000 
      4 N           0.2016  -10.6499  -46.9580 N.am      1 UNK        -0.5000 
      5 CA         -0.1347  -11.7943  -47.8182 C.3       1 UNK         0.1400 
      6 C6         -1.4619  -12.4507  -47.3584 C.3       23 UNK        -0.0398 
      7 S7         -2.2704  -13.4065  -48.6845 S.3       23 UNK        -0.2404 
      8 C8         -1.9307  -15.1269  -48.1719 C.3       23 UNK        -0.0205 
      9 C9         -1.6719  -16.0649  -49.3468 C.ar      23 UNK        -0.0193 
     10 C10        -2.4442  -15.9992  -50.5121 C.ar      23 UNK        -0.1150 
     11 C11        -2.1855  -16.8467  -51.5927 C.ar      23 UNK        -0.0193 
     12 C12        -1.1568  -17.7885  -51.4912 C.ar      23 UNK        -0.1150 
     13 C13        -0.3787  -17.8713  -50.3322 C.ar      23 UNK        -0.0193 
     14 C14        -0.6427  -17.0084  -49.2650 C.ar      23 UNK        -0.1150 
     15 C15         0.7815  -18.8538  -50.2566 C.3       23 UNK        -0.0205 
     16 S16         0.2534  -20.5141  -49.7375 S.3       23 UNK        -0.2404 
     17 C17         0.0573  -20.2964  -47.9344 C.3       23 UNK        -0.0398 
     18 CA         -0.3955  -21.6028  -47.2382 C.3       11 UNK         0.1400 
     19 N          -0.1479  -21.5926  -45.7944 N.am      11 UNK        -0.5000 
     20 C          -0.3131  -22.6560  -44.9928 C.2       10 UNK         0.5000 
     21 O          -0.6322  -23.7738  -45.3962 O.2       10 UNK        -0.5000 
     22 CA         -0.1529  -22.4278  -43.4809 C.3       10 UNK         0.1400 
     23 CB          1.3291  -22.4515  -43.0811 C.3       10 UNK        -0.1800 
     24 N          -0.7805  -21.1848  -43.0297 N.am      10 UNK        -0.5000 
     25 C          -2.0942  -20.9273  -43.1138 C.2       9 UNK         0.5000 
     26 O          -2.9200  -21.7328  -43.5406 O.2       9 UNK        -0.5000 
     27 CA         -2.5639  -19.5224  -42.6985 C.3       9 UNK         0.1400 
     28 CB         -2.6799  -19.4144  -41.1711 C.3       9 UNK        -0.1800 
     29 N          -1.6938  -18.4617  -43.2057 N.am      9 UNK        -0.5000 
     30 C          -1.4866  -18.1978  -44.5042 C.2       8 UNK         0.5000 
     31 O          -2.0386  -18.8003  -45.4261 O.2       8 UNK        -0.5000 
     32 CA         -0.4350  -17.1194  -44.8233 C.3       8 UNK         0.1400 
     33 CB         -0.9976  -15.7076  -44.5960 C.3       8 UNK        -0.1800 
     34 N           0.7877  -17.2969  -44.0388 N.am      8 UNK        -0.5000 
     35 C           1.5932  -18.3656  -44.1252 C.2       7 UNK         0.5000 
     36 O           1.4269  -19.2848  -44.9270 O.2       7 UNK        -0.5000 
     37 CA          2.7447  -18.4460  -43.1086 C.3       7 UNK         0.1400 
     38 CB          3.9631  -17.6387  -43.5841 C.3       7 UNK        -0.1800 
     39 N           2.3296  -17.9928  -41.7795 N.am      7 UNK        -0.5000 
     40 C           1.4948  -18.6738  -40.9802 C.2       6 UNK         0.5000 
     41 O           1.0148  -19.7673  -41.2715 O.2       6 UNK        -0.5000 
     42 CA          1.0974  -18.0094  -39.6493 C.3       6 UNK         0.1400 
     43 CB          2.1493  -18.2967  -38.5678 C.3       6 UNK        -0.1800 
     44 N           0.9138  -16.5642  -39.7725 N.am      6 UNK        -0.5000 
     45 C          -0.0427  -15.9743  -40.5040 C.2       5 UNK         0.5000 
     46 O          -0.9184  -16.5902  -41.1099 O.2       5 UNK        -0.5000 
     47 CA          0.0399  -14.4403  -40.6301 C.3       5 UNK         0.1400 
     48 CB         -0.7286  -13.7607  -39.4875 C.3       5 UNK        -0.1800 
     49 N           1.4225  -13.9494  -40.6505 N.am      5 UNK        -0.5000 
     50 C           2.3160  -14.2681  -41.5954 C.2       4 UNK         0.5000 
     51 O           2.0495  -14.9686  -42.5773 O.2       4 UNK        -0.5000 
     52 CA          3.7559  -13.7907  -41.3698 C.3       4 UNK         0.1400 
     53 CB          4.4606  -14.6642  -40.3151 C.3       4 UNK        -0.1800 
     54 N           4.4624  -13.8828  -42.6388 N.am      4 UNK        -0.5000 
     55 C           5.5678  -13.2163  -42.9850 C.2       3 UNK         0.5000 
     56 O           6.1827  -12.4686  -42.2234 O.2       3 UNK        -0.5000 
     57 CA          6.0704  -13.4081  -44.4324 C.3       3 UNK         0.1400 
     58 CB          7.2248  -14.4220  -44.4640 C.3       3 UNK        -0.1800 
     59 N           5.0359  -13.8428  -45.3794 N.am      3 UNK        -0.5000 
     60 C           3.9503  -13.1319  -45.7128 C.2       2 UNK         0.5000 
     61 O           3.7026  -12.0114  -45.2574 O.2       2 UNK        -0.5000 
     62 CA          2.9770  -13.7857  -46.7080 C.3       2 UNK         0.1400 
     63 CB          2.5395  -15.1952  -46.2647 C.3       2 UNK        -0.1800 
     64 N           1.8056  -12.9273  -46.8322 N.am      2 UNK        -0.5000 
     65 C           1.0092  -12.8322  -47.9003 C.2       1 UNK         0.5000 
     66 O           1.1656  -13.4946  -48.9256 O.2       1 UNK        -0.5000 
     67 C          -1.8668  -21.9342  -47.5562 C.2       11 UNK         0.5000 
     68 O          -2.1235  -22.8046  -48.3873 O.2       11 UNK        -0.5000 
     69 N          -2.8055  -21.2719  -46.8676 N.am      12 UNK        -0.5000 
     70 CA         -4.2417  -21.5098  -47.0083 C.3       12 UNK         0.1400 
     71 CB         -5.0177  -20.4618  -46.1974 C.3       12 UNK        -0.1800 
     72 C          -4.6635  -22.9393  -46.6180 C.2       12 UNK         0.5000 
     73 O          -5.4753  -23.5424  -47.3198 O.2       12 UNK        -0.5000 
     74 N          -4.0985  -23.4536  -45.5191 N.am      13 UNK        -0.5000 
     75 CA         -4.3925  -24.7769  -44.9792 C.3       13 UNK         0.1400 
     76 CB         -3.9534  -24.8363  -43.5067 C.3       13 UNK        -0.1800 
     77 C          -3.7528  -25.9191  -45.7875 C.2       13 UNK         0.5000 
     78 O          -4.4690  -26.8105  -46.2450 O.2       13 UNK        -0.5000 
     79 N          -2.4189  -25.9045  -45.9083 N.am      14 UNK        -0.5000 
     80 CA         -1.6387  -27.0422  -46.3973 C.3       14 UNK         0.1400 
     81 CB         -0.2879  -27.0845  -45.6652 C.3       14 UNK        -0.1800 
     82 C          -1.4198  -27.0138  -47.9161 C.2       14 UNK         0.5000 
     83 O          -1.4486  -28.0722  -48.5453 O.2       14 UNK        -0.5000 
     84 N          -1.1962  -25.8193  -48.4787 N.am      15 UNK        -0.5000 
     85 CA         -0.8990  -25.6281  -49.9018 C.3       15 UNK         0.1400 
     86 CB          0.2280  -24.5911  -50.0500 C.3       15 UNK        -0.1800 
     87 C          -2.1387  -25.2200  -50.7175 C.2       15 UNK         0.5000 
     88 O          -2.0065  -24.9857  -51.9182 O.2       15 UNK        -0.5000 
     89 N          -3.3062  -25.1121  -50.0637 N.am      16 UNK        -0.5000 
     90 CA         -4.5987  -24.6894  -50.6186 C.3       16 UNK         0.1400 
     91 CB         -5.1584  -25.7703  -51.5660 C.3       16 UNK        -0.1800 
     92 C          -4.5506  -23.2867  -51.2647 C.2       16 UNK         0.5000 
     93 O          -5.2008  -23.0538  -52.2848 O.2       16 UNK        -0.5000 
     94 N          -3.7524  -22.3939  -50.6598 N.am      17 UNK        -0.5000 
     95 CA         -3.4319  -21.0337  -51.0947 C.3       17 UNK         0.1400 
     96 CB         -4.6485  -20.1071  -50.9342 C.3       17 UNK        -0.1800 
     97 C          -2.8107  -21.0277  -52.5063 C.2       17 UNK         0.5000 
     98 O          -3.3844  -20.4817  -53.4523 O.2       17 UNK        -0.5000 
     99 N          -1.6491  -21.6913  -52.6027 N.am      18 UNK        -0.5000 
    100 CA        -0.8391  -21.9044  -53.8053 C.3       18 UNK         0.1400 
    101 CB        -0.2684  -20.5694  -54.3283 C.3       18 UNK        -0.1800 
    102 C         -1.5755  -22.7218  -54.8869 C.2       18 UNK         0.5000 
    103 O         -1.5290  -22.3714  -56.0676 O.2       18 UNK        -0.5000 
    104 N         -2.2467  -23.7988  -54.4524 N.am      19 UNK        -0.5000 
    105 CA        -2.9938  -24.8174  -55.2040 C.3       19 UNK         0.1400 
    106 CB        -2.0632  -25.5868  -56.1597 C.3       19 UNK        -0.1800 
    107 C         -4.2483  -24.3172  -55.9474 C.2       19 UNK         0.5000 
    108 O         -5.2675  -25.0077  -55.9503 O.2       19 UNK        -0.5000 
    109 N         -4.1548  -23.1410  -56.5713 N.am      20 UNK        -0.5000 
    110 CA        -5.1769  -22.5246  -57.4133 C.3       20 UNK         0.1400 
    111 CB        -4.4632  -21.6420  -58.4520 C.3       20 UNK        -0.1800 
    112 C         -6.2177  -21.7047  -56.6264 C.2       20 UNK         0.5000 
    113 O         -7.0391  -21.0363  -57.2563 O.2       20 UNK        -0.5000 
    114 N         -6.1484  -21.7125  -55.2853 N.am      21 UNK        -0.5000 
    115 CA        -6.9600  -20.9059  -54.3631 C.3       21 UNK         0.1400 
    116 CB        -8.4307  -21.3721  -54.3733 C.3       21 UNK        -0.1800 
    117 C         -6.7961  -19.3928  -54.6274 C.2       21 UNK         0.5000 
    118 O         -7.7792  -18.6502  -54.6538 O.2       21 UNK        -0.5000 
    119 N         -5.5447  -18.9915  -54.8835 N.am      22 UNK        -0.5000 
    120 CA        -5.1137  -17.6651  -55.3555 C.3       22 UNK         0.1400 
    121 C         -5.5828  -17.2832  -56.7949 C.2       22 UNK         0.5000 
    122 N         -6.1939  -18.1707  -57.5714 N.am      22 UNK        -0.7600 
    123 O         -5.3553  -16.1607  -57.2383 O.2       22 UNK        -0.5000 
    124 C124       -5.3780  -16.5186  -54.3375 C.3       23 UNK        -0.0398 
    125 S125       -4.7668  -16.8605  -52.6532 S.3       23 UNK        -0.2404 
    126 C126       -2.9688  -16.6969  -52.8909 C.3       23 UNK        -0.0205 
    127 H127        2.4175   -8.7301  -48.6212 H         1 UNK         0.0600 
    128 H128        1.2702   -9.8357  -49.3595 H         1 UNK         0.0600 
    129 H129        2.6743  -10.4654  -48.4771 H         1 UNK         0.0600 
    130 H130       -0.3110  -10.6060  -46.0889 H         1 UNK         0.3000 
    131 H131       -0.2925  -11.4041  -48.8252 H         1 UNK         0.0600 
    132 H132       -1.3237  -13.0608  -46.4641 H         1 UNK         0.0800 
    133 H133       -2.1739  -11.6747  -47.0730 H         1 UNK         0.0800 
    134 H134       -1.0650  -15.1373  -47.5092 H         1 UNK         0.0800 
    135 H135       -2.7749  -15.5031  -47.5930 H         1 UNK         0.0800 
    136 H136       -3.2387  -15.2710  -50.5915 H         1 UNK         0.1150 
    137 H137       -0.9429  -18.4413  -52.3248 H         1 UNK         0.1150 
    138 H138       -0.0326  -17.0625  -48.3747 H         1 UNK         0.1150 
    139 H139        1.2526  -18.9313  -51.2376 H         1 UNK         0.0800 
    140 H140        1.5549  -18.4852  -49.5808 H         1 UNK         0.0800 
    141 H141       -0.6366  -19.4792  -47.7315 H         1 UNK         0.0800 
    142 H142        1.0235  -19.9819  -47.5377 H         1 UNK         0.0800 
    143 H143        0.2122  -22.4179  -47.6366 H         1 UNK         0.0600 
    144 H144        0.1633  -20.7147  -45.3887 H         1 UNK         0.3000 
    145 H145       -0.6519  -23.2533  -42.9692 H         1 UNK         0.0600 
    146 H146        1.4464  -22.3866  -41.9994 H         1 UNK         0.0600 
    147 H147        1.8056  -23.3781  -43.4036 H         1 UNK         0.0600 
    148 H148        1.8811  -21.6254  -43.5290 H         1 UNK         0.0600 
    149 H149       -0.1671  -20.4957  -42.6043 H         1 UNK         0.3000 
    150 H150       -3.5568  -19.3664  -43.1250 H         1 UNK         0.0600 
    151 H151       -3.3433  -20.1839  -40.7744 H         1 UNK         0.0600 
    152 H152       -3.0884  -18.4481  -40.8746 H         1 UNK         0.0600 
    153 H153       -1.7119  -19.5314  -40.6839 H         1 UNK         0.0600 
    154 H154       -1.2311  -17.8847  -42.5087 H         1 UNK         0.3000 
    155 H155       -0.1728  -17.2148  -45.8787 H         1 UNK         0.0600 
    156 H156       -1.9180  -15.5576  -45.1608 H         1 UNK         0.0600 
    157 H157       -0.2896  -14.9427  -44.9144 H         1 UNK         0.0600 
    158 H158       -1.2303  -15.5286  -43.5469 H         1 UNK         0.0600 
    159 H159        1.0208  -16.5672  -43.3742 H         1 UNK         0.3000 
    160 H160        3.0481  -19.4920  -43.0305 H         1 UNK         0.0600 
    161 H161        3.7289  -16.5842  -43.7183 H         1 UNK         0.0600 
    162 H162        4.3256  -18.0144  -44.5416 H         1 UNK         0.0600 
    163 H163        4.7870  -17.7110  -42.8740 H         1 UNK         0.0600 
    164 H164        2.6329  -17.0732  -41.4978 H         1 UNK         0.3000 
    165 H165        0.1488  -18.4450  -39.3289 H         1 UNK         0.0600 
    166 H166        1.8410  -17.8967  -37.6017 H         1 UNK         0.0600 
    167 H167        2.2956  -19.3704  -38.4419 H         1 UNK         0.0600 
    168 H168        3.1171  -17.8605  -38.8190 H         1 UNK         0.0600 
    169 H169        1.5869  -15.9782  -39.3022 H         1 UNK         0.3000 
    170 H170       -0.4309  -14.1598  -41.5745 H         1 UNK         0.0600 
    171 H171       -1.7666  -14.0954  -39.4629 H         1 UNK         0.0600 
    172 H172       -0.2882  -13.9844  -38.5151 H         1 UNK         0.0600 
    173 H173       -0.7409  -12.6775  -39.6101 H         1 UNK         0.0600 
    174 H174        1.7093  -13.3721  -39.8729 H         1 UNK         0.3000 
    175 H175        3.7310  -12.7498  -41.0411 H         1 UNK         0.0600 
    176 H176        4.5047  -15.7097  -40.6232 H         1 UNK         0.0600 
    177 H177        5.4823  -14.3267  -40.1409 H         1 UNK         0.0600 
    178 H178        3.9425  -14.6235  -39.3564 H         1 UNK         0.0600 
    179 H179        3.9797  -14.4363  -43.3344 H         1 UNK         0.3000 
    180 H180        6.4515  -12.4435  -44.7739 H         1 UNK         0.0600 
    181 H181        6.8958  -15.4148  -44.1543 H         1 UNK         0.0600 
    182 H182        8.0301  -14.1193  -43.7933 H         1 UNK         0.0600 
    183 H183        7.6515  -14.5047  -45.4638 H         1 UNK         0.0600 
    184 H184        5.1751  -14.7484  -45.8033 H         1 UNK         0.3000 
    185 H185        3.4852  -13.8476  -47.6725 H         1 UNK         0.0600 
    186 H186        3.3767  -15.8930  -46.2584 H         1 UNK         0.0600 
    187 H187        2.1163  -15.1764  -45.2615 H         1 UNK         0.0600 
    188 H188        1.7867  -15.6089  -46.9358 H         1 UNK         0.0600 
    189 H189        1.6863  -12.2777  -46.0645 H         1 UNK         0.3000 
    190 H190       -2.5219  -20.5487  -46.2125 H         1 UNK         0.3000 
    191 H191       -4.4954  -21.3740  -48.0595 H         1 UNK         0.0600 
    192 H192       -4.7772  -19.4514  -46.5288 H         1 UNK         0.0600 
    193 H193       -6.0937  -20.5961  -46.3139 H         1 UNK         0.0600 
    194 H194       -4.7913  -20.5264  -45.1330 H         1 UNK         0.0600 
    195 H195       -3.4799  -22.8646  -44.9675 H         1 UNK         0.3000 
    196 H196       -5.4748  -24.9215  -45.0045 H         1 UNK         0.0600 
    197 H197       -4.1554  -25.8178  -43.0760 H         1 UNK         0.0600 
    198 H198       -4.4912  -24.1013  -42.9076 H         1 UNK         0.0600 
    199 H199       -2.8866  -24.6393  -43.3933 H         1 UNK         0.0600 
    200 H200       -1.8873  -25.1057  -45.5676 H         1 UNK         0.3000 
    201 H201       -2.1661  -27.9683  -46.1571 H         1 UNK         0.0600 
    202 H202       -0.4255  -27.1248  -44.5846 H         1 UNK         0.0600 
    203 H203        0.3252  -26.2120  -45.8929 H         1 UNK         0.0600 
    204 H204        0.2832  -27.9679  -45.9537 H         1 UNK         0.0600 
    205 H205       -1.2286  -24.9861  -47.9053 H         1 UNK         0.3000 
    206 H206       -0.5347  -26.5619  -50.3346 H         1 UNK         0.0600 
    207 H207        1.0983  -24.8647  -49.4536 H         1 UNK         0.0600 
    208 H208        0.5575  -24.5194  -51.0872 H         1 UNK         0.0600 
    209 H209       -0.0885  -23.5960  -49.7444 H         1 UNK         0.0600 
    210 H210       -3.2917  -25.2839  -49.0686 H         1 UNK         0.3000 
    211 H211       -5.2843  -24.6090  -49.7749 H         1 UNK         0.0600 
    212 H212       -4.5439  -25.8848  -52.4580 H         1 UNK         0.0600 
    213 H213       -6.1678  -25.5199  -51.8944 H         1 UNK         0.0600 
    214 H214       -5.2112  -26.7391  -51.0694 H         1 UNK         0.0600 
    215 H215       -3.2331  -22.7116  -49.8433 H         1 UNK         0.3000 
    216 H216       -2.6655  -20.6686  -50.4105 H         1 UNK         0.0600 
    217 H217       -4.3347  -19.0688  -51.0122 H         1 UNK         0.0600 
    218 H218       -5.1183  -20.2221  -49.9588 H         1 UNK         0.0600 
    219 H219       -5.4086  -20.2842  -51.6904 H         1 UNK         0.0600 
    220 H220       -1.2945  -22.1304  -51.7650 H         1 UNK         0.3000 
    221 H221        0.0073  -22.5186  -53.4945 H         1 UNK         0.0600 
    222 H222       -1.0544  -19.8943  -54.6679 H         1 UNK         0.0600 
    223 H223        0.3052  -20.0596  -53.5548 H         1 UNK         0.0600 
    224 H224        0.4053  -20.7350  -55.1697 H         1 UNK         0.0600 
    225 H225       -2.2025  -23.9966  -53.4542 H         1 UNK         0.3000 
    226 H226       -3.3439  -25.5281  -54.4549 H         1 UNK         0.0600 
    227 H227       -1.2197  -26.0206  -55.6224 H         1 UNK         0.0600 
    228 H228       -2.5951  -26.4060  -56.6450 H         1 UNK         0.0600 
    229 H229       -1.6663  -24.9452  -56.9469 H         1 UNK         0.0600 
    230 H230       -3.2604  -22.6585  -56.5084 H         1 UNK         0.3000 
    231 H231       -5.7190  -23.3083  -57.9464 H         1 UNK         0.0600 
    232 H232       -3.9271  -20.8190  -57.9772 H         1 UNK         0.0600 
    233 H233       -5.1717  -21.2086  -59.1590 H         1 UNK         0.0600 
    234 H234       -3.7434  -22.2196  -59.0324 H         1 UNK         0.0600 
    235 H235       -5.4275  -22.2726  -54.8501 H         1 UNK         0.3000 
    236 H236       -6.5707  -21.0929  -53.3655 H         1 UNK         0.0600 
    237 H237       -8.5045  -22.4411  -54.1737 H         1 UNK         0.0600 
    238 H238       -9.0067  -20.8582  -53.6030 H         1 UNK         0.0600 
    239 H239       -8.9153  -21.1744  -55.3297 H         1 UNK         0.0600 
    240 H240       -4.7974  -19.6645  -54.7485 H         1 UNK         0.3000 
    241 H241       -4.0330  -17.7572  -55.4580 H         1 UNK         0.0600 
    242 H242       -6.4726  -17.8954  -58.4996 H         1 UNK         0.3800 
    243 H243       -6.4255  -19.1001  -57.2408 H         1 UNK         0.3800 
    244 H244       -4.9195  -15.5888  -54.6780 H         1 UNK         0.0800 
    245 H245       -6.4477  -16.3161  -54.2699 H         1 UNK         0.0800 
    246 H246       -2.6394  -17.4433  -53.6147 H         1 UNK         0.0800 
    247 H247       -2.7475  -15.7201  -53.3230 H         1 UNK         0.0800 
@<TRIPOS>BOND
     1    1    2 1    
     2    1  127 1    
     3    1  128 1    
     4    1  129 1    
     5    2    3 2    
     6    2    4 am   BACKBONE|DICT|INTERRES
     7    4    5 1    
     8    4  130 1    
     9    5    6 1    
    10    5   65 1    
    11    5  131 1    
    12    6    7 1    
    13    6  132 1    
    14    6  133 1    
    15    7    8 1    
    16    8    9 1    
    17    8  134 1    
    18    8  135 1    
    19    9   10 ar   
    20    9   14 ar   
    21   10   11 ar   
    22   10  136 1    
    23   11   12 ar   
    24   11  126 1    
    25   12   13 ar   
    26   12  137 1    
    27   13   14 ar   
    28   13   15 1    
    29   14  138 1    
    30   15   16 1    
    31   15  139 1    
    32   15  140 1    
    33   16   17 1    
    34   17   18 1    
    35   17  141 1    
    36   17  142 1    
    37   18   19 1    
    38   18   67 1    
    39   18  143 1    
    40   19   20 am   BACKBONE|DICT|INTERRES
    41   19  144 1    
    42   20   21 2    
    43   20   22 1    
    44   22   23 1    
    45   22   24 1    
    46   22  145 1    
    47   23  146 1    
    48   23  147 1    
    49   23  148 1    
    50   24   25 am   BACKBONE|DICT|INTERRES
    51   24  149 1    
    52   25   26 2    
    53   25   27 1    
    54   27   28 1    
    55   27   29 1    
    56   27  150 1    
    57   28  151 1    
    58   28  152 1    
    59   28  153 1    
    60   29   30 am   BACKBONE|DICT|INTERRES
    61   29  154 1    
    62   30   31 2    
    63   30   32 1    
    64   32   33 1    
    65   32   34 1    
    66   32  155 1    
    67   33  156 1    
    68   33  157 1    
    69   33  158 1    
    70   34   35 am   BACKBONE|DICT|INTERRES
    71   34  159 1    
    72   35   36 2    
    73   35   37 1    
    74   37   38 1    
    75   37   39 1    
    76   37  160 1    
    77   38  161 1    
    78   38  162 1    
    79   38  163 1    
    80   39   40 am   BACKBONE|DICT|INTERRES
    81   39  164 1    
    82   40   41 2    
    83   40   42 1    
    84   42   43 1    
    85   42   44 1    
    86   42  165 1    
    87   43  166 1    
    88   43  167 1    
    89   43  168 1    
    90   44   45 am   BACKBONE|DICT|INTERRES
    91   44  169 1    
    92   45   46 2    
    93   45   47 1    
    94   47   48 1    
    95   47   49 1    
    96   47  170 1    
    97   48  171 1    
    98   48  172 1    
    99   48  173 1    
   100   49   50 am   BACKBONE|DICT|INTERRES
   101   49  174 1    
   102   50   51 2    
   103   50   52 1    
   104   52   53 1    
   105   52   54 1    
   106   52  175 1    
   107   53  176 1    
   108   53  177 1    
   109   53  178 1    
   110   54   55 am   BACKBONE|DICT|INTERRES
   111   54  179 1    
   112   55   56 2    
   113   55   57 1    
   114   57   58 1    
   115   57   59 1    
   116   57  180 1    
   117   58  181 1    
   118   58  182 1    
   119   58  183 1    
   120   59   60 am   BACKBONE|DICT|INTERRES
   121   59  184 1    
   122   60   61 2    
   123   60   62 1    
   124   62   63 1    
   125   62   64 1    
   126   62  185 1    
   127   63  186 1    
   128   63  187 1    
   129   63  188 1    
   130   64   65 am   BACKBONE|DICT|INTERRES
   131   64  189 1    
   132   65   66 2    
   133   67   68 2    
   134   67   69 am   BACKBONE|DICT|INTERRES
   135   69   70 1    
   136   69  190 1    
   137   70   71 1    
   138   70   72 1    
   139   70  191 1    
   140   71  192 1    
   141   71  193 1    
   142   71  194 1    
   143   72   73 2    
   144   72   74 am   BACKBONE|DICT|INTERRES
   145   74   75 1    
   146   74  195 1    
   147   75   76 1    
   148   75   77 1    
   149   75  196 1    
   150   76  197 1    
   151   76  198 1    
   152   76  199 1    
   153   77   78 2    
   154   77   79 am   BACKBONE|DICT|INTERRES
   155   79   80 1    
   156   79  200 1    
   157   80   81 1    
   158   80   82 1    
   159   80  201 1    
   160   81  202 1    
   161   81  203 1    
   162   81  204 1    
   163   82   83 2    
   164   82   84 am   BACKBONE|DICT|INTERRES
   165   84   85 1    
   166   84  205 1    
   167   85   86 1    
   168   85   87 1    
   169   85  206 1    
   170   86  207 1    
   171   86  208 1    
   172   86  209 1    
   173   87   88 2    
   174   87   89 am   BACKBONE|DICT|INTERRES
   175   89   90 1    
   176   89  210 1    
   177   90   91 1    
   178   90   92 1    
   179   90  211 1    
   180   91  212 1    
   181   91  213 1    
   182   91  214 1    
   183   92   93 2    
   184   92   94 am   BACKBONE|DICT|INTERRES
   185   94   95 1    
   186   94  215 1    
   187   95   96 1    
   188   95   97 1    
   189   95  216 1    
   190   96  217 1    
   191   96  218 1    
   192   96  219 1    
   193   97   98 2    
   194   97   99 am   BACKBONE|DICT|INTERRES
   195   99  100 1    
   196   99  220 1    
   197  100  101 1    
   198  100  102 1    
   199  100  221 1    
   200  101  222 1    
   201  101  223 1    
   202  101  224 1    
   203  102  103 2    
   204  102  104 am   BACKBONE|DICT|INTERRES
   205  104  105 1    
   206  104  225 1    
   207  105  106 1    
   208  105  107 1    
   209  105  226 1    
   210  106  227 1    
   211  106  228 1    
   212  106  229 1    
   213  107  108 2    
   214  107  109 am   BACKBONE|DICT|INTERRES
   215  109  110 1    
   216  109  230 1    
   217  110  111 1    
   218  110  112 1    
   219  110  231 1    
   220  111  232 1    
   221  111  233 1    
   222  111  234 1    
   223  112  113 2    
   224  112  114 am   BACKBONE|DICT|INTERRES
   225  114  115 1    
   226  114  235 1    
   227  115  116 1    
   228  115  117 1    
   229  115  236 1    
   230  116  237 1    
   231  116  238 1    
   232  116  239 1    
   233  117  118 2    
   234  117  119 am   BACKBONE|DICT|INTERRES
   235  119  120 1    
   236  119  240 1    
   237  120  121 1    
   238  120  124 1    
   239  120  241 1    
   240  121  122 am   BACKBONE|DICT|INTERRES
   241  121  123 2    
   242  122  242 1    
   243  122  243 1    
   244  124  125 1    
   245  124  244 1    
   246  124  245 1    
   247  125  126 1    
   248  126  246 1    
   249  126  247 1    
@<TRIPOS>SUBSTRUCTURE
     1 UNK         1 GROUP             0       ****    0 ROOT    
