@<TRIPOS>MOLECULE
3R540
247   249    1
SMALL
USER_CHARGES


@<TRIPOS>ATOM
      1 CA          4.8528  -13.1760  -44.5200 C.3       0 UNK        -0.1800 
      2 C           3.8381  -12.8543  -45.6072 C.2       0 UNK         0.5000 
      3 O           2.9611  -12.0186  -45.3987 O.2       0 UNK        -0.5000 
      4 N           3.9683  -13.4853  -46.7827 N.am      1 UNK        -0.5000 
      5 CA          3.1038  -13.2886  -47.9584 C.3       1 UNK         0.1400 
      6 C6          3.3266  -14.3875  -49.0252 C.3       23 UNK        -0.0398 
      7 S7          2.5515  -15.9699  -48.5386 S.3       23 UNK        -0.2404 
      8 C8          1.2895  -16.1050  -49.8444 C.3       23 UNK        -0.0205 
      9 C9          0.4151  -17.3394  -49.6914 C.ar      23 UNK        -0.0193 
     10 C10        -0.8482  -17.2427  -49.0989 C.ar      23 UNK        -0.1150 
     11 C11        -1.6813  -18.3621  -49.0191 C.ar      23 UNK        -0.0193 
     12 C12        -1.2442  -19.5787  -49.5446 C.ar      23 UNK        -0.1150 
     13 C13         0.0224  -19.6963  -50.1214 C.ar      23 UNK        -0.0193 
     14 C14         0.8494  -18.5715  -50.1903 C.ar      23 UNK        -0.1150 
     15 C15         0.4854  -21.0327  -50.6841 C.3       23 UNK        -0.0205 
     16 S16         1.1527  -22.1214  -49.3862 S.3       23 UNK        -0.2404 
     17 C17        -0.3740  -22.5845  -48.5049 C.3       23 UNK        -0.0398 
     18 CA         -0.2176  -23.8683  -47.6642 C.3       11 UNK         0.1400 
     19 N           0.7658  -23.6847  -46.6013 N.am      11 UNK        -0.5000 
     20 C           1.1358  -24.5474  -45.6497 C.2       10 UNK         0.5000 
     21 O           0.6762  -25.6859  -45.5536 O.2       10 UNK        -0.5000 
     22 CA          2.1416  -24.0340  -44.5932 C.3       10 UNK         0.1400 
     23 CB          3.5780  -24.4761  -44.9281 C.3       10 UNK        -0.1800 
     24 N           2.0515  -22.5829  -44.3449 N.am      10 UNK        -0.5000 
     25 C           2.3364  -21.5646  -45.1732 C.2       9 UNK         0.5000 
     26 O           2.9341  -21.7096  -46.2385 O.2       9 UNK        -0.5000 
     27 CA          1.7912  -20.1677  -44.7995 C.3       9 UNK         0.1400 
     28 CB          1.2906  -19.3978  -46.0421 C.3       9 UNK        -0.1800 
     29 N           0.7468  -20.1605  -43.7657 N.am      9 UNK        -0.5000 
     30 C          -0.4452  -20.7808  -43.7803 C.2       8 UNK         0.5000 
     31 O          -0.8134  -21.5484  -44.6708 O.2       8 UNK        -0.5000 
     32 CA         -1.3705  -20.5265  -42.5736 C.3       8 UNK         0.1400 
     33 CB         -1.1570  -21.6123  -41.5068 C.3       8 UNK        -0.1800 
     34 N          -1.1643  -19.2152  -41.9553 N.am      8 UNK        -0.5000 
     35 C          -1.4840  -18.0439  -42.5211 C.2       7 UNK         0.5000 
     36 O          -2.0761  -17.9438  -43.5966 O.2       7 UNK        -0.5000 
     37 CA         -1.0372  -16.7590  -41.7920 C.3       7 UNK         0.1400 
     38 CB         -0.5909  -16.9737  -40.3277 C.3       7 UNK        -0.1800 
     39 N           0.0041  -16.0739  -42.5625 N.am      7 UNK        -0.5000 
     40 C           1.1945  -16.5663  -42.9351 C.2       6 UNK         0.5000 
     41 O           1.6351  -17.6504  -42.5468 O.2       6 UNK        -0.5000 
     42 CA          1.9971  -15.7217  -43.9487 C.3       6 UNK         0.1400 
     43 CB          3.2828  -16.4296  -44.4161 C.3       6 UNK        -0.1800 
     44 N           1.1930  -15.3921  -45.1284 N.am      6 UNK        -0.5000 
     45 C           0.2896  -14.4074  -45.2001 C.2       5 UNK         0.5000 
     46 O           0.0426  -13.6348  -44.2720 O.2       5 UNK        -0.5000 
     47 CA         -0.5226  -14.3213  -46.4941 C.3       5 UNK         0.1400 
     48 CB         -1.9040  -14.9740  -46.3101 C.3       5 UNK        -0.1800 
     49 N          -0.6790  -12.9253  -46.8844 N.am      5 UNK        -0.5000 
     50 C          -0.8715  -12.5069  -48.1392 C.2       4 UNK         0.5000 
     51 O          -0.9326  -13.2727  -49.1010 O.2       4 UNK        -0.5000 
     52 CA         -0.9911  -10.9909  -48.3878 C.3       4 UNK         0.1400 
     53 CB         -2.4292  -10.4902  -48.1558 C.3       4 UNK        -0.1800 
     54 N          -0.0063  -10.1704  -47.6721 N.am      4 UNK        -0.5000 
     55 C           0.0854   -9.8896  -46.3647 C.2       3 UNK         0.5000 
     56 O          -0.6906  -10.3308  -45.5160 O.2       3 UNK        -0.5000 
     57 CA          1.2636   -8.9824  -45.9515 C.3       3 UNK         0.1400 
     58 CB          1.5019   -8.9737  -44.4306 C.3       3 UNK        -0.1800 
     59 N           2.4863   -9.4249  -46.6200 N.am      3 UNK        -0.5000 
     60 C           3.0472   -8.8567  -47.6975 C.2       2 UNK         0.5000 
     61 O           2.6458   -7.8075  -48.2007 O.2       2 UNK        -0.5000 
     62 CA          4.2212   -9.6129  -48.3596 C.3       2 UNK         0.1400 
     63 CB          5.5656   -9.0753  -47.8468 C.3       2 UNK        -0.1800 
     64 N           4.1676  -11.0594  -48.1319 N.am      2 UNK        -0.5000 
     65 C           3.1922  -11.8696  -48.5702 C.2       1 UNK         0.5000 
     66 O           2.3386  -11.5120  -49.3822 O.2       1 UNK        -0.5000 
     67 C          -1.5997  -24.3188  -47.1571 C.2       11 UNK         0.5000 
     68 O          -2.2612  -25.0866  -47.8537 O.2       11 UNK        -0.5000 
     69 N          -2.0218  -23.8522  -45.9739 N.am      12 UNK        -0.5000 
     70 CA         -3.2843  -24.2531  -45.3484 C.3       12 UNK         0.1400 
     71 CB         -3.6001  -23.3130  -44.1779 C.3       12 UNK        -0.1800 
     72 C          -3.2916  -25.7229  -44.8863 C.2       12 UNK         0.5000 
     73 O          -4.3414  -26.3637  -44.9362 O.2       12 UNK        -0.5000 
     74 N          -2.1254  -26.2384  -44.4725 N.am      13 UNK        -0.5000 
     75 CA         -1.9353  -27.6392  -44.0923 C.3       13 UNK         0.1400 
     76 CB         -0.7369  -27.7550  -43.1374 C.3       13 UNK        -0.1800 
     77 C          -1.7434  -28.5367  -45.3273 C.2       13 UNK         0.5000 
     78 O          -2.2467  -29.6601  -45.3487 O.2       13 UNK        -0.5000 
     79 N          -1.0406  -28.0148  -46.3427 N.am      14 UNK        -0.5000 
     80 CA         -0.7927  -28.6827  -47.6236 C.3       14 UNK         0.1400 
     81 CB          0.3831  -27.9797  -48.3199 C.3       14 UNK        -0.1800 
     82 C          -2.0211  -28.7175  -48.5585 C.2       14 UNK         0.5000 
     83 O          -2.0040  -29.4595  -49.5406 O.2       14 UNK        -0.5000 
     84 N          -3.0375  -27.8955  -48.2565 N.am      15 UNK        -0.5000 
     85 CA         -4.2616  -27.6335  -49.0258 C.3       15 UNK         0.1400 
     86 CB         -5.0779  -28.9200  -49.2654 C.3       15 UNK        -0.1800 
     87 C          -4.0205  -26.8274  -50.3216 C.2       15 UNK         0.5000 
     88 O          -4.9171  -26.7290  -51.1599 O.2       15 UNK        -0.5000 
     89 N          -2.8384  -26.2085  -50.4407 N.am      16 UNK        -0.5000 
     90 CA         -2.4669  -25.2874  -51.5149 C.3       16 UNK         0.1400 
     91 CB         -0.9411  -25.1184  -51.5316 C.3       16 UNK        -0.1800 
     92 C          -3.1650  -23.9208  -51.3860 C.2       16 UNK         0.5000 
     93 O          -3.3191  -23.2243  -52.3883 O.2       16 UNK        -0.5000 
     94 N          -3.6242  -23.5740  -50.1736 N.am      17 UNK        -0.5000 
     95 CA         -4.3981  -22.3618  -49.8824 C.3       17 UNK         0.1400 
     96 CB         -4.5541  -22.2131  -48.3623 C.3       17 UNK        -0.1800 
     97 C          -5.7731  -22.3084  -50.5822 C.2       17 UNK         0.5000 
     98 O          -6.3467  -21.2271  -50.6988 O.2       17 UNK        -0.5000 
     99 N          -6.2722  -23.4619  -51.0497 N.am      18 UNK        -0.5000 
    100 CA        -7.4661  -23.5614  -51.8887 C.3       18 UNK         0.1400 
    101 CB        -7.9948  -25.0029  -51.8331 C.3       18 UNK        -0.1800 
    102 C         -7.2025  -23.1404  -53.3495 C.2       18 UNK         0.5000 
    103 O         -8.1393  -22.7200  -54.0297 O.2       18 UNK        -0.5000 
    104 N         -5.9499  -23.2712  -53.8095 N.am      19 UNK        -0.5000 
    105 CA        -5.5149  -22.9092  -55.1583 C.3       19 UNK         0.1400 
    106 CB        -4.4752  -23.9319  -55.6442 C.3       19 UNK        -0.1800 
    107 C         -4.9358  -21.4851  -55.2037 C.2       19 UNK         0.5000 
    108 O         -5.1689  -20.7690  -56.1788 O.2       19 UNK        -0.5000 
    109 N         -4.1906  -21.1008  -54.1580 N.am      20 UNK        -0.5000 
    110 CA        -3.6030  -19.7719  -53.9873 C.3       20 UNK         0.1400 
    111 CB        -2.6360  -19.8073  -52.7944 C.3       20 UNK        -0.1800 
    112 C         -4.6679  -18.6767  -53.7823 C.2       20 UNK         0.5000 
    113 O         -5.7464  -18.9502  -53.2511 O.2       20 UNK        -0.5000 
    114 N         -4.3347  -17.4477  -54.1966 N.am      21 UNK        -0.5000 
    115 CA        -5.1981  -16.2739  -54.0490 C.3       21 UNK         0.1400 
    116 CB        -4.7270  -15.1748  -55.0144 C.3       21 UNK        -0.1800 
    117 C         -5.2396  -15.7423  -52.6040 C.2       21 UNK         0.5000 
    118 O         -6.2889  -15.2684  -52.1665 O.2       21 UNK        -0.5000 
    119 N         -4.0995  -15.8287  -51.9021 N.am      22 UNK        -0.5000 
    120 CA        -3.8978  -15.3865  -50.5081 C.3       22 UNK         0.1400 
    121 C         -4.0903  -13.8532  -50.2791 C.2       22 UNK         0.5000 
    122 N         -3.9129  -13.0125  -51.2919 N.am      22 UNK        -0.7600 
    123 O         -4.3968  -13.4128  -49.1745 O.2       22 UNK        -0.5000 
    124 C124       -4.6885  -16.2419  -49.4772 C.3       23 UNK        -0.0398 
    125 S125       -4.3677  -18.0368  -49.5979 S.3       23 UNK        -0.2404 
    126 C126       -3.0509  -18.2802  -48.3643 C.3       23 UNK        -0.0205 
    127 H127        5.5431  -13.9614  -44.8280 H         1 UNK         0.0600 
    128 H128        5.4351  -12.2867  -44.2792 H         1 UNK         0.0600 
    129 H129        4.3446  -13.5040  -43.6139 H         1 UNK         0.0600 
    130 H130        4.7115  -14.1596  -46.8998 H         1 UNK         0.3000 
    131 H131        2.0741  -13.3708  -47.6087 H         1 UNK         0.0600 
    132 H132        2.9191  -14.0853  -49.9920 H         1 UNK         0.0800 
    133 H133        4.3917  -14.5508  -49.1961 H         1 UNK         0.0800 
    134 H134        1.7823  -16.1317  -50.8175 H         1 UNK         0.0800 
    135 H135        0.6703  -15.2076  -49.8431 H         1 UNK         0.0800 
    136 H136       -1.1894  -16.2922  -48.7184 H         1 UNK         0.1150 
    137 H137       -1.8958  -20.4373  -49.4999 H         1 UNK         0.1150 
    138 H138        1.8268  -18.6498  -50.6453 H         1 UNK         0.1150 
    139 H139       -0.3368  -21.5313  -51.1996 H         1 UNK         0.0800 
    140 H140        1.2591  -20.8718  -51.4361 H         1 UNK         0.0800 
    141 H141       -0.6730  -21.7525  -47.8647 H         1 UNK         0.0800 
    142 H142       -1.1629  -22.7078  -49.2468 H         1 UNK         0.0800 
    143 H143        0.1621  -24.6604  -48.3095 H         1 UNK         0.0600 
    144 H144        1.2583  -22.7996  -46.6207 H         1 UNK         0.3000 
    145 H145        1.8644  -24.5104  -43.6516 H         1 UNK         0.0600 
    146 H146        4.2842  -24.1277  -44.1746 H         1 UNK         0.0600 
    147 H147        3.6478  -25.5640  -44.9618 H         1 UNK         0.0600 
    148 H148        3.9077  -24.1028  -45.8977 H         1 UNK         0.0600 
    149 H149        1.5412  -22.3341  -43.5097 H         1 UNK         0.3000 
    150 H150        2.6361  -19.6221  -44.3792 H         1 UNK         0.0600 
    151 H151        0.8967  -18.4189  -45.7698 H         1 UNK         0.0600 
    152 H152        0.4987  -19.9389  -46.5611 H         1 UNK         0.0600 
    153 H153        2.0953  -19.2333  -46.7599 H         1 UNK         0.0600 
    154 H154        0.9348  -19.5244  -42.9974 H         1 UNK         0.3000 
    155 H155       -2.4011  -20.5857  -42.9292 H         1 UNK         0.0600 
    156 H156       -1.8962  -21.5304  -40.7098 H         1 UNK         0.0600 
    157 H157       -0.1671  -21.5423  -41.0541 H         1 UNK         0.0600 
    158 H158       -1.2470  -22.6125  -41.9308 H         1 UNK         0.0600 
    159 H159       -0.6669  -19.2010  -41.0767 H         1 UNK         0.3000 
    160 H160       -1.9035  -16.0961  -41.7792 H         1 UNK         0.0600 
    161 H161        0.2972  -17.6008  -40.2460 H         1 UNK         0.0600 
    162 H162       -1.3833  -17.4405  -39.7412 H         1 UNK         0.0600 
    163 H163       -0.3613  -16.0206  -39.8512 H         1 UNK         0.0600 
    164 H164       -0.2609  -15.1786  -42.9597 H         1 UNK         0.3000 
    165 H165        2.2843  -14.7981  -43.4429 H         1 UNK         0.0600 
    166 H166        3.0661  -17.3752  -44.9101 H         1 UNK         0.0600 
    167 H167        3.8418  -15.8206  -45.1234 H         1 UNK         0.0600 
    168 H168        3.9441  -16.6393  -43.5746 H         1 UNK         0.0600 
    169 H169        1.3146  -16.0007  -45.9253 H         1 UNK         0.3000 
    170 H170        0.0230  -14.8519  -47.2756 H         1 UNK         0.0600 
    171 H171       -1.8055  -16.0228  -46.0265 H         1 UNK         0.0600 
    172 H172       -2.4807  -14.4761  -45.5296 H         1 UNK         0.0600 
    173 H173       -2.4890  -14.9343  -47.2287 H         1 UNK         0.0600 
    174 H174       -0.6224  -12.2402  -46.1348 H         1 UNK         0.3000 
    175 H175       -0.7674  -10.8385  -49.4450 H         1 UNK         0.0600 
    176 H176       -2.5163   -9.4242  -48.3652 H         1 UNK         0.0600 
    177 H177       -3.1278  -11.0079  -48.8132 H         1 UNK         0.0600 
    178 H178       -2.7630  -10.6620  -47.1323 H         1 UNK         0.0600 
    179 H179        0.7268   -9.8023  -48.2630 H         1 UNK         0.3000 
    180 H180        1.0092   -7.9655  -46.2562 H         1 UNK         0.0600 
    181 H181        1.7083   -9.9747  -44.0496 H         1 UNK         0.0600 
    182 H182        2.3453   -8.3351  -44.1682 H         1 UNK         0.0600 
    183 H183        0.6290   -8.5927  -43.8994 H         1 UNK         0.0600 
    184 H184        2.8473  -10.3162  -46.2895 H         1 UNK         0.3000 
    185 H185        4.1660   -9.4361  -49.4357 H         1 UNK         0.0600 
    186 H186        6.4024   -9.5544  -48.3554 H         1 UNK         0.0600 
    187 H187        5.6501   -8.0023  -48.0243 H         1 UNK         0.0600 
    188 H188        5.6830   -9.2411  -46.7751 H         1 UNK         0.0600 
    189 H189        4.8325  -11.4361  -47.4725 H         1 UNK         0.3000 
    190 H190       -1.4598  -23.1617  -45.4813 H         1 UNK         0.3000 
    191 H191       -4.0785  -24.1437  -46.0883 H         1 UNK         0.0600 
    192 H192       -4.5655  -23.5546  -43.7316 H         1 UNK         0.0600 
    193 H193       -2.8482  -23.3884  -43.3938 H         1 UNK         0.0600 
    194 H194       -3.6438  -22.2746  -44.5069 H         1 UNK         0.0600 
    195 H195       -1.2929  -25.6663  -44.5224 H         1 UNK         0.3000 
    196 H196       -2.8225  -27.9870  -43.5585 H         1 UNK         0.0600 
    197 H197       -0.6046  -28.7851  -42.8043 H         1 UNK         0.0600 
    198 H198       -0.8817  -27.1421  -42.2476 H         1 UNK         0.0600 
    199 H199        0.1943  -27.4435  -43.6110 H         1 UNK         0.0600 
    200 H200       -0.6024  -27.1096  -46.2073 H         1 UNK         0.3000 
    201 H201       -0.5029  -29.7161  -47.4227 H         1 UNK         0.0600 
    202 H202        1.2655  -27.9539  -47.6800 H         1 UNK         0.0600 
    203 H203        0.1333  -26.9542  -48.5890 H         1 UNK         0.0600 
    204 H204        0.6618  -28.4993  -49.2375 H         1 UNK         0.0600 
    205 H205       -2.9047  -27.2904  -47.4570 H         1 UNK         0.3000 
    206 H206       -4.8653  -26.9845  -48.3897 H         1 UNK         0.0600 
    207 H207       -5.2264  -29.4718  -48.3372 H         1 UNK         0.0600 
    208 H208       -6.0656  -28.6855  -49.6640 H         1 UNK         0.0600 
    209 H209       -4.5918  -29.5849  -49.9794 H         1 UNK         0.0600 
    210 H210       -2.2068  -26.2684  -49.6530 H         1 UNK         0.3000 
    211 H211       -2.7734  -25.7239  -52.4678 H         1 UNK         0.0600 
    212 H212       -0.5682  -24.7082  -50.5946 H         1 UNK         0.0600 
    213 H213       -0.6307  -24.4439  -52.3309 H         1 UNK         0.0600 
    214 H214       -0.4419  -26.0728  -51.7000 H         1 UNK         0.0600 
    215 H215       -3.4467  -24.2019  -49.3986 H         1 UNK         0.3000 
    216 H216       -3.8271  -21.5077  -50.2463 H         1 UNK         0.0600 
    217 H217       -5.1080  -21.3067  -48.1139 H         1 UNK         0.0600 
    218 H218       -3.5855  -22.1398  -47.8689 H         1 UNK         0.0600 
    219 H219       -5.0955  -23.0564  -47.9333 H         1 UNK         0.0600 
    220 H220       -5.7519  -24.3151  -50.9008 H         1 UNK         0.3000 
    221 H221       -8.2366  -22.9012  -51.4846 H         1 UNK         0.0600 
    222 H222       -7.2729  -25.7126  -52.2390 H         1 UNK         0.0600 
    223 H223       -8.2207  -25.3023  -50.8095 H         1 UNK         0.0600 
    224 H224       -8.9140  -25.1037  -52.4116 H         1 UNK         0.0600 
    225 H225       -5.2226  -23.5689  -53.1722 H         1 UNK         0.3000 
    226 H226       -6.3637  -22.9473  -55.8445 H         1 UNK         0.0600 
    227 H227       -4.1492  -23.7028  -56.6596 H         1 UNK         0.0600 
    228 H228       -3.5880  -23.9430  -55.0103 H         1 UNK         0.0600 
    229 H229       -4.8905  -24.9397  -55.6559 H         1 UNK         0.0600 
    230 H230       -4.0108  -21.7721  -53.4184 H         1 UNK         0.3000 
    231 H231       -3.0334  -19.5413  -54.8898 H         1 UNK         0.0600 
    232 H232       -2.1145  -18.8564  -52.6786 H         1 UNK         0.0600 
    233 H233       -1.8787  -20.5808  -52.9205 H         1 UNK         0.0600 
    234 H234       -3.1644  -20.0018  -51.8618 H         1 UNK         0.0600 
    235 H235       -3.4364  -17.2988  -54.6332 H         1 UNK         0.3000 
    236 H236       -6.2162  -16.5536  -54.3293 H         1 UNK         0.0600 
    237 H237       -3.7031  -14.8630  -54.8048 H         1 UNK         0.0600 
    238 H238       -4.7693  -15.5150  -56.0492 H         1 UNK         0.0600 
    239 H239       -5.3617  -14.2908  -54.9383 H         1 UNK         0.0600 
    240 H240       -3.2956  -16.2421  -52.3495 H         1 UNK         0.3000 
    241 H241       -2.8396  -15.5493  -50.3074 H         1 UNK         0.0600 
    242 H242       -4.0419  -12.0249  -51.1430 H         1 UNK         0.3800 
    243 H243       -3.6558  -13.3532  -52.2038 H         1 UNK         0.3800 
    244 H244       -5.7599  -16.0875  -49.6110 H         1 UNK         0.0800 
    245 H245       -4.4737  -15.9164  -48.4589 H         1 UNK         0.0800 
    246 H246       -3.0705  -17.4952  -47.6085 H         1 UNK         0.0800 
    247 H247       -3.2486  -19.2097  -47.8281 H         1 UNK         0.0800 
@<TRIPOS>BOND
     1    1    2 1    
     2    1  127 1    
     3    1  128 1    
     4    1  129 1    
     5    2    3 2    
     6    2    4 am   BACKBONE|DICT|INTERRES
     7    4    5 1    
     8    4  130 1    
     9    5    6 1    
    10    5   65 1    
    11    5  131 1    
    12    6    7 1    
    13    6  132 1    
    14    6  133 1    
    15    7    8 1    
    16    8    9 1    
    17    8  134 1    
    18    8  135 1    
    19    9   10 ar   
    20    9   14 ar   
    21   10   11 ar   
    22   10  136 1    
    23   11   12 ar   
    24   11  126 1    
    25   12   13 ar   
    26   12  137 1    
    27   13   14 ar   
    28   13   15 1    
    29   14  138 1    
    30   15   16 1    
    31   15  139 1    
    32   15  140 1    
    33   16   17 1    
    34   17   18 1    
    35   17  141 1    
    36   17  142 1    
    37   18   19 1    
    38   18   67 1    
    39   18  143 1    
    40   19   20 am   BACKBONE|DICT|INTERRES
    41   19  144 1    
    42   20   21 2    
    43   20   22 1    
    44   22   23 1    
    45   22   24 1    
    46   22  145 1    
    47   23  146 1    
    48   23  147 1    
    49   23  148 1    
    50   24   25 am   BACKBONE|DICT|INTERRES
    51   24  149 1    
    52   25   26 2    
    53   25   27 1    
    54   27   28 1    
    55   27   29 1    
    56   27  150 1    
    57   28  151 1    
    58   28  152 1    
    59   28  153 1    
    60   29   30 am   BACKBONE|DICT|INTERRES
    61   29  154 1    
    62   30   31 2    
    63   30   32 1    
    64   32   33 1    
    65   32   34 1    
    66   32  155 1    
    67   33  156 1    
    68   33  157 1    
    69   33  158 1    
    70   34   35 am   BACKBONE|DICT|INTERRES
    71   34  159 1    
    72   35   36 2    
    73   35   37 1    
    74   37   38 1    
    75   37   39 1    
    76   37  160 1    
    77   38  161 1    
    78   38  162 1    
    79   38  163 1    
    80   39   40 am   BACKBONE|DICT|INTERRES
    81   39  164 1    
    82   40   41 2    
    83   40   42 1    
    84   42   43 1    
    85   42   44 1    
    86   42  165 1    
    87   43  166 1    
    88   43  167 1    
    89   43  168 1    
    90   44   45 am   BACKBONE|DICT|INTERRES
    91   44  169 1    
    92   45   46 2    
    93   45   47 1    
    94   47   48 1    
    95   47   49 1    
    96   47  170 1    
    97   48  171 1    
    98   48  172 1    
    99   48  173 1    
   100   49   50 am   BACKBONE|DICT|INTERRES
   101   49  174 1    
   102   50   51 2    
   103   50   52 1    
   104   52   53 1    
   105   52   54 1    
   106   52  175 1    
   107   53  176 1    
   108   53  177 1    
   109   53  178 1    
   110   54   55 am   BACKBONE|DICT|INTERRES
   111   54  179 1    
   112   55   56 2    
   113   55   57 1    
   114   57   58 1    
   115   57   59 1    
   116   57  180 1    
   117   58  181 1    
   118   58  182 1    
   119   58  183 1    
   120   59   60 am   BACKBONE|DICT|INTERRES
   121   59  184 1    
   122   60   61 2    
   123   60   62 1    
   124   62   63 1    
   125   62   64 1    
   126   62  185 1    
   127   63  186 1    
   128   63  187 1    
   129   63  188 1    
   130   64   65 am   BACKBONE|DICT|INTERRES
   131   64  189 1    
   132   65   66 2    
   133   67   68 2    
   134   67   69 am   BACKBONE|DICT|INTERRES
   135   69   70 1    
   136   69  190 1    
   137   70   71 1    
   138   70   72 1    
   139   70  191 1    
   140   71  192 1    
   141   71  193 1    
   142   71  194 1    
   143   72   73 2    
   144   72   74 am   BACKBONE|DICT|INTERRES
   145   74   75 1    
   146   74  195 1    
   147   75   76 1    
   148   75   77 1    
   149   75  196 1    
   150   76  197 1    
   151   76  198 1    
   152   76  199 1    
   153   77   78 2    
   154   77   79 am   BACKBONE|DICT|INTERRES
   155   79   80 1    
   156   79  200 1    
   157   80   81 1    
   158   80   82 1    
   159   80  201 1    
   160   81  202 1    
   161   81  203 1    
   162   81  204 1    
   163   82   83 2    
   164   82   84 am   BACKBONE|DICT|INTERRES
   165   84   85 1    
   166   84  205 1    
   167   85   86 1    
   168   85   87 1    
   169   85  206 1    
   170   86  207 1    
   171   86  208 1    
   172   86  209 1    
   173   87   88 2    
   174   87   89 am   BACKBONE|DICT|INTERRES
   175   89   90 1    
   176   89  210 1    
   177   90   91 1    
   178   90   92 1    
   179   90  211 1    
   180   91  212 1    
   181   91  213 1    
   182   91  214 1    
   183   92   93 2    
   184   92   94 am   BACKBONE|DICT|INTERRES
   185   94   95 1    
   186   94  215 1    
   187   95   96 1    
   188   95   97 1    
   189   95  216 1    
   190   96  217 1    
   191   96  218 1    
   192   96  219 1    
   193   97   98 2    
   194   97   99 am   BACKBONE|DICT|INTERRES
   195   99  100 1    
   196   99  220 1    
   197  100  101 1    
   198  100  102 1    
   199  100  221 1    
   200  101  222 1    
   201  101  223 1    
   202  101  224 1    
   203  102  103 2    
   204  102  104 am   BACKBONE|DICT|INTERRES
   205  104  105 1    
   206  104  225 1    
   207  105  106 1    
   208  105  107 1    
   209  105  226 1    
   210  106  227 1    
   211  106  228 1    
   212  106  229 1    
   213  107  108 2    
   214  107  109 am   BACKBONE|DICT|INTERRES
   215  109  110 1    
   216  109  230 1    
   217  110  111 1    
   218  110  112 1    
   219  110  231 1    
   220  111  232 1    
   221  111  233 1    
   222  111  234 1    
   223  112  113 2    
   224  112  114 am   BACKBONE|DICT|INTERRES
   225  114  115 1    
   226  114  235 1    
   227  115  116 1    
   228  115  117 1    
   229  115  236 1    
   230  116  237 1    
   231  116  238 1    
   232  116  239 1    
   233  117  118 2    
   234  117  119 am   BACKBONE|DICT|INTERRES
   235  119  120 1    
   236  119  240 1    
   237  120  121 1    
   238  120  124 1    
   239  120  241 1    
   240  121  122 am   BACKBONE|DICT|INTERRES
   241  121  123 2    
   242  122  242 1    
   243  122  243 1    
   244  124  125 1    
   245  124  244 1    
   246  124  245 1    
   247  125  126 1    
   248  126  246 1    
   249  126  247 1    
@<TRIPOS>SUBSTRUCTURE
     1 UNK         1 GROUP             0       ****    0 ROOT    
