@<TRIPOS>MOLECULE
3R540
247   249    1
SMALL
USER_CHARGES


@<TRIPOS>ATOM
      1 CA          3.5875  -17.0108  -46.8114 C.3       0 UNK        -0.1800 
      2 C           3.5626  -15.5358  -47.1702 C.2       0 UNK         0.5000 
      3 O           2.8910  -14.7529  -46.5006 O.2       0 UNK        -0.5000 
      4 N           4.3275  -15.1578  -48.2028 N.am      1 UNK        -0.5000 
      5 CA          4.4904  -13.7962  -48.7342 C.3       1 UNK         0.1400 
      6 C6          5.5146  -13.7825  -49.9034 C.3       23 UNK        -0.0398 
      7 S7          4.8198  -14.1909  -51.5401 S.3       23 UNK        -0.2404 
      8 C8          4.5264  -15.9959  -51.4673 C.3       23 UNK        -0.0205 
      9 C9          3.1094  -16.4111  -51.0599 C.ar      23 UNK        -0.0193 
     10 C10         2.0235  -15.5307  -51.1342 C.ar      23 UNK        -0.1150 
     11 C11         0.7376  -15.9334  -50.7719 C.ar      23 UNK        -0.0193 
     12 C12         0.5306  -17.2502  -50.3396 C.ar      23 UNK        -0.1150 
     13 C13         1.5985  -18.1535  -50.2769 C.ar      23 UNK        -0.0193 
     14 C14         2.8812  -17.7238  -50.6347 C.ar      23 UNK        -0.1150 
     15 C15         1.3806  -19.5959  -49.8316 C.3       23 UNK        -0.0205 
     16 S16         1.7324  -19.7836  -48.0577 S.3       23 UNK        -0.2404 
     17 C17         2.0493  -21.5643  -47.8445 C.3       23 UNK        -0.0398 
     18 CA          0.8800  -22.4042  -47.2686 C.3       11 UNK         0.1400 
     19 N           0.2242  -21.8369  -46.0792 N.am      11 UNK        -0.5000 
     20 C          -0.5528  -22.5670  -45.2613 C.2       10 UNK         0.5000 
     21 O          -0.7498  -23.7728  -45.4162 O.2       10 UNK        -0.5000 
     22 CA         -1.2675  -21.8454  -44.1055 C.3       10 UNK         0.1400 
     23 CB         -0.3024  -21.5321  -42.9518 C.3       10 UNK        -0.1800 
     24 N          -1.9557  -20.6304  -44.5368 N.am      10 UNK        -0.5000 
     25 C          -3.0433  -20.6149  -45.3215 C.2       9 UNK         0.5000 
     26 O          -3.5715  -21.6271  -45.7769 O.2       9 UNK        -0.5000 
     27 CA         -3.6241  -19.2377  -45.6892 C.3       9 UNK         0.1400 
     28 CB         -4.6070  -18.7575  -44.6123 C.3       9 UNK        -0.1800 
     29 N          -2.5913  -18.2252  -45.8873 N.am      9 UNK        -0.5000 
     30 C          -1.6501  -18.2871  -46.8385 C.2       8 UNK         0.5000 
     31 O          -1.5848  -19.1789  -47.6833 O.2       8 UNK        -0.5000 
     32 CA         -0.5717  -17.1944  -46.7925 C.3       8 UNK         0.1400 
     33 CB         -1.1074  -15.8898  -47.3884 C.3       8 UNK        -0.1800 
     34 N          -0.0631  -16.9592  -45.4397 N.am      8 UNK        -0.5000 
     35 C           0.5403  -17.8812  -44.6742 C.2       7 UNK         0.5000 
     36 O           0.7400  -19.0433  -45.0233 O.2       7 UNK        -0.5000 
     37 CA          0.9696  -17.4410  -43.2668 C.3       7 UNK         0.1400 
     38 CB          2.4105  -16.9160  -43.2812 C.3       7 UNK        -0.1800 
     39 N           0.0751  -16.4257  -42.7108 N.am      7 UNK        -0.5000 
     40 C          -1.1433  -16.7019  -42.2289 C.2       6 UNK         0.5000 
     41 O          -1.6177  -17.8380  -42.1798 O.2       6 UNK        -0.5000 
     42 CA         -1.9840  -15.5037  -41.7527 C.3       6 UNK         0.1400 
     43 CB         -1.4051  -14.9033  -40.4617 C.3       6 UNK        -0.1800 
     44 N          -2.1347  -14.4458  -42.7561 N.am      6 UNK        -0.5000 
     45 C          -2.6714  -14.6014  -43.9747 C.2       5 UNK         0.5000 
     46 O          -3.0096  -15.6911  -44.4356 O.2       5 UNK        -0.5000 
     47 CA         -2.8812  -13.3344  -44.8306 C.3       5 UNK         0.1400 
     48 CB         -4.3817  -13.0257  -44.9457 C.3       5 UNK        -0.1800 
     49 N          -2.2049  -12.1457  -44.3033 N.am      5 UNK        -0.5000 
     50 C          -0.9288  -11.7745  -44.4806 C.2       4 UNK         0.5000 
     51 O          -0.5030  -10.7302  -43.9847 O.2       4 UNK        -0.5000 
     52 CA          0.0280  -12.6392  -45.3380 C.3       4 UNK         0.1400 
     53 CB          0.0105  -12.1900  -46.8076 C.3       4 UNK        -0.1800 
     54 N           1.3982  -12.5474  -44.8384 N.am      4 UNK        -0.5000 
     55 C           1.8105  -13.0763  -43.6811 C.2       3 UNK         0.5000 
     56 O           1.0997  -13.7979  -42.9778 O.2       3 UNK        -0.5000 
     57 CA          3.2454  -12.7351  -43.2497 C.3       3 UNK         0.1400 
     58 CB          3.7592  -13.5914  -42.0749 C.3       3 UNK        -0.1800 
     59 N           4.1788  -12.8176  -44.3752 N.am      3 UNK        -0.5000 
     60 C           5.2996  -12.0880  -44.4678 C.2       2 UNK         0.5000 
     61 O           5.5964  -11.2031  -43.6634 O.2       2 UNK        -0.5000 
     62 CA          6.2831  -12.3962  -45.6147 C.3       2 UNK         0.1400 
     63 CB          7.5336  -13.1027  -45.0665 C.3       2 UNK        -0.1800 
     64 N           5.7232  -13.2190  -46.6853 N.am      2 UNK        -0.5000 
     65 C           4.9175  -12.7708  -47.6570 C.2       1 UNK         0.5000 
     66 O           4.5201  -11.6074  -47.7305 O.2       1 UNK        -0.5000 
     67 C          -0.1311  -22.8219  -48.3526 C.2       11 UNK         0.5000 
     68 O           0.0652  -23.8592  -48.9867 O.2       11 UNK        -0.5000 
     69 N          -1.2213  -22.0587  -48.5070 N.am      12 UNK        -0.5000 
     70 CA         -2.3332  -22.4067  -49.3880 C.3       12 UNK         0.1400 
     71 CB         -3.2950  -21.2225  -49.4846 C.3       12 UNK        -0.1800 
     72 C          -3.0762  -23.6754  -48.9334 C.2       12 UNK         0.5000 
     73 O          -3.4147  -24.5068  -49.7737 O.2       12 UNK        -0.5000 
     74 N          -3.3007  -23.8223  -47.6195 N.am      13 UNK        -0.5000 
     75 CA         -3.9113  -25.0074  -47.0154 C.3       13 UNK         0.1400 
     76 CB         -4.2632  -24.7330  -45.5462 C.3       13 UNK        -0.1800 
     77 C          -3.0174  -26.2522  -47.1389 C.2       13 UNK         0.5000 
     78 O          -3.5256  -27.3255  -47.4610 O.2       13 UNK        -0.5000 
     79 N          -1.7022  -26.0817  -46.9379 N.am      14 UNK        -0.5000 
     80 CA         -0.6890  -27.1253  -47.1216 C.3       14 UNK         0.1400 
     81 CB          0.6717  -26.6137  -46.6261 C.3       14 UNK        -0.1800 
     82 C          -0.5896  -27.6153  -48.5799 C.2       14 UNK         0.5000 
     83 O          -0.3993  -28.8099  -48.8097 O.2       14 UNK        -0.5000 
     84 N          -0.7637  -26.6921  -49.5350 N.am      15 UNK        -0.5000 
     85 CA         -0.8514  -26.9711  -50.9697 C.3       15 UNK         0.1400 
     86 CB         -0.5603  -25.6718  -51.7386 C.3       15 UNK        -0.1800 
     87 C          -2.2134  -27.5551  -51.4045 C.2       15 UNK         0.5000 
     88 O          -2.3341  -27.9903  -52.5503 O.2       15 UNK        -0.5000 
     89 N          -3.2113  -27.5308  -50.5060 N.am      16 UNK        -0.5000 
     90 CA         -4.6203  -27.8863  -50.7146 C.3       16 UNK         0.1400 
     91 CB         -4.7741  -29.3920  -51.0123 C.3       16 UNK        -0.1800 
     92 C          -5.3119  -26.9848  -51.7609 C.2       16 UNK         0.5000 
     93 O          -6.1948  -27.4376  -52.4915 O.2       16 UNK        -0.5000 
     94 N          -4.8952  -25.7146  -51.8094 N.am      17 UNK        -0.5000 
     95 CA         -5.3071  -24.7082  -52.7802 C.3       17 UNK         0.1400 
     96 CB         -4.0426  -24.0214  -53.3163 C.3       17 UNK        -0.1800 
     97 C          -6.3048  -23.7354  -52.1264 C.2       17 UNK         0.5000 
     98 O          -6.0403  -22.5348  -52.0010 O.2       17 UNK        -0.5000 
     99 N          -7.4295  -24.3068  -51.6693 N.am      18 UNK        -0.5000 
    100 CA        -8.6163  -23.6612  -51.0865 C.3       18 UNK         0.1400 
    101 CB        -9.2999  -22.7698  -52.1442 C.3       18 UNK        -0.1800 
    102 C         -8.3795  -22.8820  -49.7737 C.2       18 UNK         0.5000 
    103 O         -9.3091  -22.2381  -49.2858 O.2       18 UNK        -0.5000 
    104 N         -7.1486  -22.9281  -49.2413 N.am      19 UNK        -0.5000 
    105 CA        -6.6280  -22.1056  -48.1434 C.3       19 UNK         0.1400 
    106 CB        -7.3106  -22.4626  -46.8073 C.3       19 UNK        -0.1800 
    107 C         -6.6625  -20.5913  -48.4588 C.2       19 UNK         0.5000 
    108 O         -6.7703  -19.7810  -47.5371 O.2       19 UNK        -0.5000 
    109 N         -6.5813  -20.2363  -49.7517 N.am      20 UNK        -0.5000 
    110 CA        -6.7507  -18.8642  -50.2336 C.3       20 UNK         0.1400 
    111 CB        -8.2367  -18.6338  -50.5629 C.3       20 UNK        -0.1800 
    112 C         -5.8650  -18.4960  -51.4380 C.2       20 UNK         0.5000 
    113 O         -5.7142  -17.3021  -51.7028 O.2       20 UNK        -0.5000 
    114 N         -5.3165  -19.4791  -52.1682 N.am      21 UNK        -0.5000 
    115 CA        -4.4712  -19.2321  -53.3415 C.3       21 UNK         0.1400 
    116 CB        -4.2974  -20.5431  -54.1147 C.3       21 UNK        -0.1800 
    117 C         -3.0888  -18.6584  -52.9730 C.2       21 UNK         0.5000 
    118 O         -2.5533  -18.9777  -51.9119 O.2       21 UNK        -0.5000 
    119 N         -2.5185  -17.8648  -53.8831 N.am      22 UNK        -0.5000 
    120 CA        -1.1826  -17.2626  -53.7686 C.3       22 UNK         0.1400 
    121 C         -0.3963  -17.4432  -55.0923 C.2       22 UNK         0.5000 
    122 N          0.9270  -17.4993  -55.0290 N.am      22 UNK        -0.7600 
    123 O         -0.9684  -17.5025  -56.1795 O.2       22 UNK        -0.5000 
    124 C124       -1.2593  -15.7634  -53.3813 C.3       23 UNK        -0.0398 
    125 S125       -1.8891  -15.5091  -51.6870 S.3       23 UNK        -0.2404 
    126 C126       -0.3951  -14.9103  -50.8366 C.3       23 UNK        -0.0205 
    127 H127        4.1519  -17.1662  -45.8927 H         1 UNK         0.0600 
    128 H128        4.0380  -17.6135  -47.6002 H         1 UNK         0.0600 
    129 H129        2.5729  -17.3676  -46.6542 H         1 UNK         0.0600 
    130 H130        4.8412  -15.8712  -48.6972 H         1 UNK         0.3000 
    131 H131        3.5162  -13.4723  -49.1063 H         1 UNK         0.0600 
    132 H132        5.9484  -12.7879  -50.0284 H         1 UNK         0.0800 
    133 H133        6.3622  -14.4371  -49.6937 H         1 UNK         0.0800 
    134 H134        4.7162  -16.4041  -52.4607 H         1 UNK         0.0800 
    135 H135        5.2609  -16.4565  -50.8056 H         1 UNK         0.0800 
    136 H136        2.1680  -14.5166  -51.4746 H         1 UNK         0.1150 
    137 H137       -0.4621  -17.5763  -50.0605 H         1 UNK         0.1150 
    138 H138        3.7066  -18.4202  -50.5839 H         1 UNK         0.1150 
    139 H139        0.3526  -19.9052  -50.0295 H         1 UNK         0.0800 
    140 H140        2.0244  -20.2580  -50.4119 H         1 UNK         0.0800 
    141 H141        2.8922  -21.6389  -47.1565 H         1 UNK         0.0800 
    142 H142        2.4135  -21.9894  -48.7814 H         1 UNK         0.0800 
    143 H143        1.3394  -23.3382  -46.9376 H         1 UNK         0.0600 
    144 H144        0.3546  -20.8441  -45.9037 H         1 UNK         0.3000 
    145 H145       -2.0273  -22.5267  -43.7165 H         1 UNK         0.0600 
    146 H146       -0.8151  -21.0257  -42.1338 H         1 UNK         0.0600 
    147 H147        0.1261  -22.4504  -42.5486 H         1 UNK         0.0600 
    148 H148        0.5273  -20.9016  -43.2681 H         1 UNK         0.0600 
    149 H149       -1.5571  -19.7501  -44.2421 H         1 UNK         0.3000 
    150 H150       -4.1699  -19.3459  -46.6284 H         1 UNK         0.0600 
    151 H151       -5.4023  -19.4879  -44.4570 H         1 UNK         0.0600 
    152 H152       -5.0799  -17.8191  -44.9027 H         1 UNK         0.0600 
    153 H153       -4.1088  -18.5988  -43.6548 H         1 UNK         0.0600 
    154 H154       -2.5994  -17.4325  -45.2515 H         1 UNK         0.3000 
    155 H155        0.2641  -17.5153  -47.4112 H         1 UNK         0.0600 
    156 H156       -1.5169  -16.0704  -48.3818 H         1 UNK         0.0600 
    157 H157       -0.3186  -15.1433  -47.4785 H         1 UNK         0.0600 
    158 H158       -1.9146  -15.4740  -46.7926 H         1 UNK         0.0600 
    159 H159       -0.1969  -16.0394  -45.0514 H         1 UNK         0.3000 
    160 H160        0.9423  -18.3212  -42.6207 H         1 UNK         0.0600 
    161 H161        2.5166  -16.0448  -43.9281 H         1 UNK         0.0600 
    162 H162        3.0983  -17.6802  -43.6446 H         1 UNK         0.0600 
    163 H163        2.7335  -16.6398  -42.2779 H         1 UNK         0.0600 
    164 H164        0.4002  -15.4599  -42.7275 H         1 UNK         0.3000 
    165 H165       -2.9841  -15.8801  -41.5277 H         1 UNK         0.0600 
    166 H166       -2.0659  -14.1393  -40.0518 H         1 UNK         0.0600 
    167 H167       -1.2813  -15.6693  -39.6951 H         1 UNK         0.0600 
    168 H168       -0.4292  -14.4462  -40.6304 H         1 UNK         0.0600 
    169 H169       -1.8561  -13.5178  -42.4729 H         1 UNK         0.3000 
    170 H170       -2.5188  -13.5369  -45.8375 H         1 UNK         0.0600 
    171 H171       -4.9244  -13.8696  -45.3743 H         1 UNK         0.0600 
    172 H172       -4.8256  -12.8108  -43.9727 H         1 UNK         0.0600 
    173 H173       -4.5597  -12.1667  -45.5931 H         1 UNK         0.0600 
    174 H174       -2.7893  -11.5408  -43.7451 H         1 UNK         0.3000 
    175 H175       -0.2616  -13.6886  -45.2900 H         1 UNK         0.0600 
    176 H176        0.3118  -11.1469  -46.9123 H         1 UNK         0.0600 
    177 H177        0.6877  -12.7952  -47.4116 H         1 UNK         0.0600 
    178 H178       -0.9856  -12.2881  -47.2400 H         1 UNK         0.0600 
    179 H179        2.0343  -11.9619  -45.3590 H         1 UNK         0.3000 
    180 H180        3.1916  -11.7004  -42.9052 H         1 UNK         0.0600 
    181 H181        3.9332  -14.6221  -42.3792 H         1 UNK         0.0600 
    182 H182        3.0513  -13.6012  -41.2452 H         1 UNK         0.0600 
    183 H183        4.6995  -13.2001  -41.6866 H         1 UNK         0.0600 
    184 H184        3.9540  -13.4961  -45.0960 H         1 UNK         0.3000 
    185 H185        6.5949  -11.4394  -46.0392 H         1 UNK         0.0600 
    186 H186        8.0139  -12.5053  -44.2903 H         1 UNK         0.0600 
    187 H187        7.2887  -14.0717  -44.6296 H         1 UNK         0.0600 
    188 H188        8.2725  -13.2642  -45.8517 H         1 UNK         0.0600 
    189 H189        5.9845  -14.1941  -46.6907 H         1 UNK         0.3000 
    190 H190       -1.2995  -21.1873  -47.9907 H         1 UNK         0.3000 
    191 H191       -1.9278  -22.5946  -50.3844 H         1 UNK         0.0600 
    192 H192       -2.7766  -20.3298  -49.8265 H         1 UNK         0.0600 
    193 H193       -4.0956  -21.4301  -50.1938 H         1 UNK         0.0600 
    194 H194       -3.7377  -20.9831  -48.5190 H         1 UNK         0.0600 
    195 H195       -3.0562  -23.0685  -46.9839 H         1 UNK         0.3000 
    196 H196       -4.8414  -25.2133  -47.5495 H         1 UNK         0.0600 
    197 H197       -4.7128  -25.6110  -45.0809 H         1 UNK         0.0600 
    198 H198       -4.9812  -23.9181  -45.4586 H         1 UNK         0.0600 
    199 H199       -3.3819  -24.4659  -44.9627 H         1 UNK         0.0600 
    200 H200       -1.3716  -25.1759  -46.6165 H         1 UNK         0.3000 
    201 H201       -0.9767  -27.9786  -46.5042 H         1 UNK         0.0600 
    202 H202        0.6227  -26.3102  -45.5802 H         1 UNK         0.0600 
    203 H203        1.0155  -25.7585  -47.2076 H         1 UNK         0.0600 
    204 H204        1.4327  -27.3910  -46.7047 H         1 UNK         0.0600 
    205 H205       -0.8423  -25.7187  -49.2605 H         1 UNK         0.3000 
    206 H206       -0.0833  -27.7018  -51.2309 H         1 UNK         0.0600 
    207 H207        0.4218  -25.2736  -51.4830 H         1 UNK         0.0600 
    208 H208       -0.5716  -25.8405  -52.8160 H         1 UNK         0.0600 
    209 H209       -1.3004  -24.9014  -51.5201 H         1 UNK         0.0600 
    210 H210       -3.0007  -27.1582  -49.5889 H         1 UNK         0.3000 
    211 H211       -5.1244  -27.6866  -49.7682 H         1 UNK         0.0600 
    212 H212       -4.3563  -29.6598  -51.9831 H         1 UNK         0.0600 
    213 H213       -5.8250  -29.6834  -51.0183 H         1 UNK         0.0600 
    214 H214       -4.2756  -29.9954  -50.2537 H         1 UNK         0.0600 
    215 H215       -4.2250  -25.3979  -51.1098 H         1 UNK         0.3000 
    216 H216       -5.8120  -25.1799  -53.6256 H         1 UNK         0.0600 
    217 H217       -4.2901  -23.3679  -54.1515 H         1 UNK         0.0600 
    218 H218       -3.3252  -24.7538  -53.6874 H         1 UNK         0.0600 
    219 H219       -3.5437  -23.4297  -52.5475 H         1 UNK         0.0600 
    220 H220       -7.5067  -25.3087  -51.7857 H         1 UNK         0.3000 
    221 H221       -9.3063  -24.4680  -50.8356 H         1 UNK         0.0600 
    222 H222       -8.6867  -21.9059  -52.4030 H         1 UNK         0.0600 
    223 H223       -9.4989  -23.3261  -53.0602 H         1 UNK         0.0600 
    224 H224      -10.2575  -22.3924  -51.7835 H         1 UNK         0.0600 
    225 H225       -6.4638  -23.4794  -49.7385 H         1 UNK         0.3000 
    226 H226       -5.5779  -22.3672  -48.0390 H         1 UNK         0.0600 
    227 H227       -7.2809  -23.5366  -46.6243 H         1 UNK         0.0600 
    228 H228       -6.8035  -21.9786  -45.9716 H         1 UNK         0.0600 
    229 H229       -8.3533  -22.1455  -46.7852 H         1 UNK         0.0600 
    230 H230       -6.5036  -20.9645  -50.4503 H         1 UNK         0.3000 
    231 H231       -6.4661  -18.1669  -49.4427 H         1 UNK         0.0600 
    232 H232       -8.5851  -19.3205  -51.3353 H         1 UNK         0.0600 
    233 H233       -8.4096  -17.6181  -50.9209 H         1 UNK         0.0600 
    234 H234       -8.8629  -18.7773  -49.6821 H         1 UNK         0.0600 
    235 H235       -5.4671  -20.4495  -51.9271 H         1 UNK         0.3000 
    236 H236       -4.9880  -18.5186  -53.9872 H         1 UNK         0.0600 
    237 H237       -5.2578  -21.0075  -54.3400 H         1 UNK         0.0600 
    238 H238       -3.7829  -20.3761  -55.0617 H         1 UNK         0.0600 
    239 H239       -3.7002  -21.2485  -53.5386 H         1 UNK         0.0600 
    240 H240       -2.9800  -17.7027  -54.7675 H         1 UNK         0.3000 
    241 H241       -0.6140  -17.7894  -52.9996 H         1 UNK         0.0600 
    242 H242        1.4528  -17.6050  -55.8829 H         1 UNK         0.3800 
    243 H243        1.4180  -17.4448  -54.1499 H         1 UNK         0.3800 
    244 H244       -0.2782  -15.2926  -53.4655 H         1 UNK         0.0800 
    245 H245       -1.9086  -15.2247  -54.0733 H         1 UNK         0.0800 
    246 H246       -0.6547  -14.5940  -49.8287 H         1 UNK         0.0800 
    247 H247       -0.0645  -14.0031  -51.3447 H         1 UNK         0.0800 
@<TRIPOS>BOND
     1    1    2 1    
     2    1  127 1    
     3    1  128 1    
     4    1  129 1    
     5    2    3 2    
     6    2    4 am   BACKBONE|DICT|INTERRES
     7    4    5 1    
     8    4  130 1    
     9    5    6 1    
    10    5   65 1    
    11    5  131 1    
    12    6    7 1    
    13    6  132 1    
    14    6  133 1    
    15    7    8 1    
    16    8    9 1    
    17    8  134 1    
    18    8  135 1    
    19    9   10 ar   
    20    9   14 ar   
    21   10   11 ar   
    22   10  136 1    
    23   11   12 ar   
    24   11  126 1    
    25   12   13 ar   
    26   12  137 1    
    27   13   14 ar   
    28   13   15 1    
    29   14  138 1    
    30   15   16 1    
    31   15  139 1    
    32   15  140 1    
    33   16   17 1    
    34   17   18 1    
    35   17  141 1    
    36   17  142 1    
    37   18   19 1    
    38   18   67 1    
    39   18  143 1    
    40   19   20 am   BACKBONE|DICT|INTERRES
    41   19  144 1    
    42   20   21 2    
    43   20   22 1    
    44   22   23 1    
    45   22   24 1    
    46   22  145 1    
    47   23  146 1    
    48   23  147 1    
    49   23  148 1    
    50   24   25 am   BACKBONE|DICT|INTERRES
    51   24  149 1    
    52   25   26 2    
    53   25   27 1    
    54   27   28 1    
    55   27   29 1    
    56   27  150 1    
    57   28  151 1    
    58   28  152 1    
    59   28  153 1    
    60   29   30 am   BACKBONE|DICT|INTERRES
    61   29  154 1    
    62   30   31 2    
    63   30   32 1    
    64   32   33 1    
    65   32   34 1    
    66   32  155 1    
    67   33  156 1    
    68   33  157 1    
    69   33  158 1    
    70   34   35 am   BACKBONE|DICT|INTERRES
    71   34  159 1    
    72   35   36 2    
    73   35   37 1    
    74   37   38 1    
    75   37   39 1    
    76   37  160 1    
    77   38  161 1    
    78   38  162 1    
    79   38  163 1    
    80   39   40 am   BACKBONE|DICT|INTERRES
    81   39  164 1    
    82   40   41 2    
    83   40   42 1    
    84   42   43 1    
    85   42   44 1    
    86   42  165 1    
    87   43  166 1    
    88   43  167 1    
    89   43  168 1    
    90   44   45 am   BACKBONE|DICT|INTERRES
    91   44  169 1    
    92   45   46 2    
    93   45   47 1    
    94   47   48 1    
    95   47   49 1    
    96   47  170 1    
    97   48  171 1    
    98   48  172 1    
    99   48  173 1    
   100   49   50 am   BACKBONE|DICT|INTERRES
   101   49  174 1    
   102   50   51 2    
   103   50   52 1    
   104   52   53 1    
   105   52   54 1    
   106   52  175 1    
   107   53  176 1    
   108   53  177 1    
   109   53  178 1    
   110   54   55 am   BACKBONE|DICT|INTERRES
   111   54  179 1    
   112   55   56 2    
   113   55   57 1    
   114   57   58 1    
   115   57   59 1    
   116   57  180 1    
   117   58  181 1    
   118   58  182 1    
   119   58  183 1    
   120   59   60 am   BACKBONE|DICT|INTERRES
   121   59  184 1    
   122   60   61 2    
   123   60   62 1    
   124   62   63 1    
   125   62   64 1    
   126   62  185 1    
   127   63  186 1    
   128   63  187 1    
   129   63  188 1    
   130   64   65 am   BACKBONE|DICT|INTERRES
   131   64  189 1    
   132   65   66 2    
   133   67   68 2    
   134   67   69 am   BACKBONE|DICT|INTERRES
   135   69   70 1    
   136   69  190 1    
   137   70   71 1    
   138   70   72 1    
   139   70  191 1    
   140   71  192 1    
   141   71  193 1    
   142   71  194 1    
   143   72   73 2    
   144   72   74 am   BACKBONE|DICT|INTERRES
   145   74   75 1    
   146   74  195 1    
   147   75   76 1    
   148   75   77 1    
   149   75  196 1    
   150   76  197 1    
   151   76  198 1    
   152   76  199 1    
   153   77   78 2    
   154   77   79 am   BACKBONE|DICT|INTERRES
   155   79   80 1    
   156   79  200 1    
   157   80   81 1    
   158   80   82 1    
   159   80  201 1    
   160   81  202 1    
   161   81  203 1    
   162   81  204 1    
   163   82   83 2    
   164   82   84 am   BACKBONE|DICT|INTERRES
   165   84   85 1    
   166   84  205 1    
   167   85   86 1    
   168   85   87 1    
   169   85  206 1    
   170   86  207 1    
   171   86  208 1    
   172   86  209 1    
   173   87   88 2    
   174   87   89 am   BACKBONE|DICT|INTERRES
   175   89   90 1    
   176   89  210 1    
   177   90   91 1    
   178   90   92 1    
   179   90  211 1    
   180   91  212 1    
   181   91  213 1    
   182   91  214 1    
   183   92   93 2    
   184   92   94 am   BACKBONE|DICT|INTERRES
   185   94   95 1    
   186   94  215 1    
   187   95   96 1    
   188   95   97 1    
   189   95  216 1    
   190   96  217 1    
   191   96  218 1    
   192   96  219 1    
   193   97   98 2    
   194   97   99 am   BACKBONE|DICT|INTERRES
   195   99  100 1    
   196   99  220 1    
   197  100  101 1    
   198  100  102 1    
   199  100  221 1    
   200  101  222 1    
   201  101  223 1    
   202  101  224 1    
   203  102  103 2    
   204  102  104 am   BACKBONE|DICT|INTERRES
   205  104  105 1    
   206  104  225 1    
   207  105  106 1    
   208  105  107 1    
   209  105  226 1    
   210  106  227 1    
   211  106  228 1    
   212  106  229 1    
   213  107  108 2    
   214  107  109 am   BACKBONE|DICT|INTERRES
   215  109  110 1    
   216  109  230 1    
   217  110  111 1    
   218  110  112 1    
   219  110  231 1    
   220  111  232 1    
   221  111  233 1    
   222  111  234 1    
   223  112  113 2    
   224  112  114 am   BACKBONE|DICT|INTERRES
   225  114  115 1    
   226  114  235 1    
   227  115  116 1    
   228  115  117 1    
   229  115  236 1    
   230  116  237 1    
   231  116  238 1    
   232  116  239 1    
   233  117  118 2    
   234  117  119 am   BACKBONE|DICT|INTERRES
   235  119  120 1    
   236  119  240 1    
   237  120  121 1    
   238  120  124 1    
   239  120  241 1    
   240  121  122 am   BACKBONE|DICT|INTERRES
   241  121  123 2    
   242  122  242 1    
   243  122  243 1    
   244  124  125 1    
   245  124  244 1    
   246  124  245 1    
   247  125  126 1    
   248  126  246 1    
   249  126  247 1    
@<TRIPOS>SUBSTRUCTURE
     1 UNK         1 GROUP             0       ****    0 ROOT    
