@<TRIPOS>MOLECULE
3R540
247   249    1
SMALL
USER_CHARGES


@<TRIPOS>ATOM
      1 CA          0.6160  -13.1331  -42.1568 C.3       0 UNK        -0.1800 
      2 C          -0.7041  -12.5051  -42.5738 C.2       0 UNK         0.5000 
      3 O          -0.9493  -11.3347  -42.2833 O.2       0 UNK        -0.5000 
      4 N          -1.5531  -13.2821  -43.2561 N.am      1 UNK        -0.5000 
      5 CA         -2.8574  -12.8548  -43.7761 C.3       1 UNK         0.1400 
      6 C6         -3.8277  -14.0524  -43.9260 C.3       23 UNK        -0.0398 
      7 S7         -3.1943  -15.4040  -44.9812 S.3       23 UNK        -0.2404 
      8 C8         -4.2268  -15.1961  -46.4653 C.3       23 UNK        -0.0205 
      9 C9         -3.9837  -16.3341  -47.4396 C.ar      23 UNK        -0.0193 
     10 C10        -3.0677  -16.1920  -48.4839 C.ar      23 UNK        -0.1150 
     11 C11        -2.7895  -17.2668  -49.3324 C.ar      23 UNK        -0.0193 
     12 C12        -3.4478  -18.4853  -49.1390 C.ar      23 UNK        -0.1150 
     13 C13        -4.3760  -18.6373  -48.1034 C.ar      23 UNK        -0.0193 
     14 C14        -4.6515  -17.5484  -47.2698 C.ar      23 UNK        -0.1150 
     15 C15        -5.0547  -19.9864  -47.8828 C.3       23 UNK        -0.0205 
     16 S16        -5.1675  -20.4901  -46.1263 S.3       23 UNK        -0.2404 
     17 C17        -3.4216  -20.4298  -45.5919 C.3       23 UNK        -0.0398 
     18 CA         -2.6607  -21.7274  -45.9441 C.3       11 UNK         0.1400 
     19 N          -1.2545  -21.4735  -46.2644 N.am      11 UNK        -0.5000 
     20 C          -0.4478  -22.3663  -46.8532 C.2       10 UNK         0.5000 
     21 O          -0.8168  -23.4836  -47.2056 O.2       10 UNK        -0.5000 
     22 CA          1.0244  -21.9663  -47.0409 C.3       10 UNK         0.1400 
     23 CB          1.1950  -21.0858  -48.2882 C.3       10 UNK        -0.1800 
     24 N           1.5655  -21.2876  -45.8632 N.am      10 UNK        -0.5000 
     25 C           1.6952  -21.8610  -44.6576 C.2       9 UNK         0.5000 
     26 O           1.4460  -23.0463  -44.4386 O.2       9 UNK        -0.5000 
     27 CA          2.1203  -20.9504  -43.4903 C.3       9 UNK         0.1400 
     28 CB          3.6431  -20.7573  -43.4742 C.3       9 UNK        -0.1800 
     29 N           1.4562  -19.6458  -43.5202 N.am      9 UNK        -0.5000 
     30 C           0.1328  -19.4621  -43.4016 C.2       8 UNK         0.5000 
     31 O          -0.6696  -20.3745  -43.2069 O.2       8 UNK        -0.5000 
     32 CA         -0.3890  -18.0267  -43.5897 C.3       8 UNK         0.1400 
     33 CB         -0.2676  -17.2130  -42.2927 C.3       8 UNK        -0.1800 
     34 N           0.3010  -17.3325  -44.6757 N.am      8 UNK        -0.5000 
     35 C           0.1827  -17.6604  -45.9699 C.2       7 UNK         0.5000 
     36 O          -0.5419  -18.5649  -46.3839 O.2       7 UNK        -0.5000 
     37 CA          1.0747  -16.8827  -46.9524 C.3       7 UNK         0.1400 
     38 CB          0.4911  -15.4925  -47.2337 C.3       7 UNK        -0.1800 
     39 N           2.4426  -16.7380  -46.4542 N.am      7 UNK        -0.5000 
     40 C           3.3065  -17.7559  -46.3210 C.2       6 UNK         0.5000 
     41 O           3.0459  -18.9143  -46.6405 O.2       6 UNK        -0.5000 
     42 CA          4.6774  -17.4443  -45.6892 C.3       6 UNK         0.1400 
     43 CB          5.6987  -17.0847  -46.7782 C.3       6 UNK        -0.1800 
     44 N           4.6346  -16.3666  -44.7018 N.am      6 UNK        -0.5000 
     45 C           3.8811  -16.3523  -43.5930 C.2       5 UNK         0.5000 
     46 O           3.1743  -17.2946  -43.2354 O.2       5 UNK        -0.5000 
     47 CA          3.8735  -15.0445  -42.7778 C.3       5 UNK         0.1400 
     48 CB          4.8291  -15.1546  -41.5811 C.3       5 UNK        -0.1800 
     49 N           4.2195  -13.8517  -43.5615 N.am      5 UNK        -0.5000 
     50 C           3.5516  -13.3937  -44.6302 C.2       4 UNK         0.5000 
     51 O           2.5247  -13.9125  -45.0773 O.2       4 UNK        -0.5000 
     52 CA          4.1871  -12.1990  -45.3515 C.3       4 UNK         0.1400 
     53 CB          5.4530  -12.6407  -46.1129 C.3       4 UNK        -0.1800 
     54 N           3.2316  -11.6128  -46.2867 N.am      4 UNK        -0.5000 
     55 C           3.3053  -10.3677  -46.7720 C.2       3 UNK         0.5000 
     56 O           4.1821   -9.5646  -46.4485 O.2       3 UNK        -0.5000 
     57 CA          2.2453   -9.9349  -47.8044 C.3       3 UNK         0.1400 
     58 CB          2.8137  -10.0487  -49.2279 C.3       3 UNK        -0.1800 
     59 N           0.9825  -10.6752  -47.7439 N.am      3 UNK        -0.5000 
     60 C           0.0912  -10.5958  -46.7477 C.2       2 UNK         0.5000 
     61 O           0.2857   -9.9544  -45.7136 O.2       2 UNK        -0.5000 
     62 CA         -1.2517  -11.3239  -46.9399 C.3       2 UNK         0.1400 
     63 CB         -1.2999  -12.2829  -48.1472 C.3       2 UNK        -0.1800 
     64 N          -1.5692  -12.0583  -45.7208 N.am      2 UNK        -0.5000 
     65 C          -2.7472  -12.0401  -45.0854 C.2       1 UNK         0.5000 
     66 O          -3.7321  -11.4206  -45.4909 O.2       1 UNK        -0.5000 
     67 C          -2.8395  -22.8260  -44.8721 C.2       11 UNK         0.5000 
     68 O          -3.7597  -23.6365  -44.9807 O.2       11 UNK        -0.5000 
     69 N          -1.9341  -22.8807  -43.8853 N.am      12 UNK        -0.5000 
     70 CA         -1.8650  -23.9611  -42.8982 C.3       12 UNK         0.1400 
     71 CB         -0.8653  -23.5899  -41.7930 C.3       12 UNK        -0.1800 
     72 C          -1.5107  -25.3209  -43.5348 C.2       12 UNK         0.5000 
     73 O          -2.0437  -26.3492  -43.1146 O.2       12 UNK        -0.5000 
     74 N          -0.6616  -25.3008  -44.5704 N.am      13 UNK        -0.5000 
     75 CA         -0.2924  -26.4481  -45.3979 C.3       13 UNK         0.1400 
     76 CB          1.0811  -26.1783  -46.0383 C.3       13 UNK        -0.1800 
     77 C          -1.3863  -26.7802  -46.4378 C.2       13 UNK         0.5000 
     78 O          -1.1546  -26.6755  -47.6436 O.2       13 UNK        -0.5000 
     79 N          -2.5608  -27.1906  -45.9386 N.am      14 UNK        -0.5000 
     80 CA         -3.7277  -27.6741  -46.6861 C.3       14 UNK         0.1400 
     81 CB         -3.4071  -29.0115  -47.3867 C.3       14 UNK        -0.1800 
     82 C          -4.3223  -26.6214  -47.6444 C.2       14 UNK         0.5000 
     83 O          -4.5037  -26.8896  -48.8352 O.2       14 UNK        -0.5000 
     84 N          -4.6111  -25.4298  -47.1004 N.am      15 UNK        -0.5000 
     85 CA         -5.2811  -24.2988  -47.7557 C.3       15 UNK         0.1400 
     86 CB         -6.7467  -24.6561  -48.0824 C.3       15 UNK        -0.1800 
     87 C          -4.5245  -23.7534  -48.9819 C.2       15 UNK         0.5000 
     88 O          -5.1567  -23.2131  -49.8883 O.2       15 UNK        -0.5000 
     89 N          -3.1949  -23.9285  -49.0071 N.am      16 UNK        -0.5000 
     90 CA         -2.2808  -23.6046  -50.1075 C.3       16 UNK         0.1400 
     91 CB         -2.1676  -22.0758  -50.2878 C.3       16 UNK        -0.1800 
     92 C          -2.6319  -24.3438  -51.4174 C.2       16 UNK         0.5000 
     93 O          -2.4212  -23.7988  -52.5002 O.2       16 UNK        -0.5000 
     94 N          -3.1747  -25.5664  -51.2865 N.am      17 UNK        -0.5000 
     95 CA         -3.7206  -26.4096  -52.3548 C.3       17 UNK         0.1400 
     96 CB         -2.6150  -26.8606  -53.3332 C.3       17 UNK        -0.1800 
     97 C          -4.9228  -25.7369  -53.0507 C.2       17 UNK         0.5000 
     98 O          -4.9512  -25.6254  -54.2775 O.2       17 UNK        -0.5000 
     99 N          -5.8855  -25.2927  -52.2275 N.am      18 UNK        -0.5000 
    100 CA        -7.0908  -24.5371  -52.5869 C.3       18 UNK         0.1400 
    101 CB        -8.0292  -25.3682  -53.4873 C.3       18 UNK        -0.1800 
    102 C         -6.7389  -23.1561  -53.1743 C.2       18 UNK         0.5000 
    103 O         -7.1125  -22.8360  -54.3051 O.2       18 UNK        -0.5000 
    104 N         -5.9908  -22.3777  -52.3824 N.am      19 UNK        -0.5000 
    105 CA        -5.4431  -21.0402  -52.6237 C.3       19 UNK         0.1400 
    106 CB        -6.5495  -20.0075  -52.9090 C.3       19 UNK        -0.1800 
    107 C         -4.3423  -20.9946  -53.6971 C.2       19 UNK         0.5000 
    108 O         -3.2978  -20.3915  -53.4526 O.2       19 UNK        -0.5000 
    109 N         -4.6047  -21.5936  -54.8688 N.am      20 UNK        -0.5000 
    110 CA        -3.7294  -21.6910  -56.0463 C.3       20 UNK         0.1400 
    111 CB        -2.5783  -22.6775  -55.7655 C.3       20 UNK        -0.1800 
    112 C         -3.2252  -20.3198  -56.5531 C.2       20 UNK         0.5000 
    113 O         -2.0912  -20.2086  -57.0255 O.2       20 UNK        -0.5000 
    114 N         -4.0628  -19.2838  -56.3775 N.am      21 UNK        -0.5000 
    115 CA        -3.7854  -17.8573  -56.6001 C.3       21 UNK         0.1400 
    116 CB        -3.6465  -17.5683  -58.1091 C.3       21 UNK        -0.1800 
    117 C         -2.5868  -17.3149  -55.7832 C.2       21 UNK         0.5000 
    118 O         -2.0099  -16.2915  -56.1550 O.2       21 UNK        -0.5000 
    119 N         -2.2227  -18.0190  -54.7014 N.am      22 UNK        -0.5000 
    120 CA        -1.0165  -17.8200  -53.8834 C.3       22 UNK         0.1400 
    121 C          0.3213  -18.0594  -54.6510 C.2       22 UNK         0.5000 
    122 N          0.3255  -18.7953  -55.7581 N.am      22 UNK        -0.7600 
    123 O          1.3792  -17.6015  -54.2273 O.2       22 UNK        -0.5000 
    124 C124       -1.0382  -16.4974  -53.0668 C.3       23 UNK        -0.0398 
    125 S125       -2.4741  -16.4055  -51.9414 S.3       23 UNK        -0.2404 
    126 C126       -1.7520  -17.1207  -50.4335 C.3       23 UNK        -0.0205 
    127 H127        1.4494  -12.5212  -42.5014 H         1 UNK         0.0600 
    128 H128        0.7282  -14.1310  -42.5795 H         1 UNK         0.0600 
    129 H129        0.6720  -13.2112  -41.0712 H         1 UNK         0.0600 
    130 H130       -1.3051  -14.2385  -43.4658 H         1 UNK         0.3000 
    131 H131       -3.3034  -12.1800  -43.0420 H         1 UNK         0.0600 
    132 H132       -4.0225  -14.4764  -42.9401 H         1 UNK         0.0800 
    133 H133       -4.8009  -13.7168  -44.2886 H         1 UNK         0.0800 
    134 H134       -4.0077  -14.2358  -46.9345 H         1 UNK         0.0800 
    135 H135       -5.2805  -15.1741  -46.1831 H         1 UNK         0.0800 
    136 H136       -2.5572  -15.2506  -48.6258 H         1 UNK         0.1150 
    137 H137       -3.2264  -19.3181  -49.7908 H         1 UNK         0.1150 
    138 H138       -5.3589  -17.6553  -46.4597 H         1 UNK         0.1150 
    139 H139       -6.0609  -19.9431  -48.3011 H         1 UNK         0.0800 
    140 H140       -4.5277  -20.7669  -48.4327 H         1 UNK         0.0800 
    141 H141       -3.3809  -20.2207  -44.5213 H         1 UNK         0.0800 
    142 H142       -2.9487  -19.5693  -46.0637 H         1 UNK         0.0800 
    143 H143       -3.0927  -22.1221  -46.8641 H         1 UNK         0.0600 
    144 H144       -0.8917  -20.5503  -46.0491 H         1 UNK         0.3000 
    145 H145        1.6008  -22.8810  -47.1930 H         1 UNK         0.0600 
    146 H146        2.2462  -20.8643  -48.4725 H         1 UNK         0.0600 
    147 H147        0.8087  -21.5883  -49.1758 H         1 UNK         0.0600 
    148 H148        0.6656  -20.1378  -48.1918 H         1 UNK         0.0600 
    149 H149        1.8548  -20.3222  -45.9882 H         1 UNK         0.3000 
    150 H150        1.8318  -21.4450  -42.5605 H         1 UNK         0.0600 
    151 H151        4.1543  -21.7138  -43.3592 H         1 UNK         0.0600 
    152 H152        3.9536  -20.1190  -42.6467 H         1 UNK         0.0600 
    153 H153        3.9998  -20.3064  -44.3993 H         1 UNK         0.0600 
    154 H154        2.0518  -18.8293  -43.6238 H         1 UNK         0.3000 
    155 H155       -1.4482  -18.0911  -43.8493 H         1 UNK         0.0600 
    156 H156       -0.7727  -17.7184  -41.4687 H         1 UNK         0.0600 
    157 H157       -0.7294  -16.2320  -42.4001 H         1 UNK         0.0600 
    158 H158        0.7721  -17.0668  -41.9991 H         1 UNK         0.0600 
    159 H159        0.9684  -16.6217  -44.4157 H         1 UNK         0.3000 
    160 H160        1.1071  -17.4381  -47.8922 H         1 UNK         0.0600 
    161 H161        0.3974  -14.8968  -46.3254 H         1 UNK         0.0600 
    162 H162       -0.5026  -15.5749  -47.6677 H         1 UNK         0.0600 
    163 H163        1.1113  -14.9390  -47.9387 H         1 UNK         0.0600 
    164 H164        2.7107  -15.8169  -46.1295 H         1 UNK         0.3000 
    165 H165        5.0234  -18.3450  -45.1801 H         1 UNK         0.0600 
    166 H166        6.6937  -16.9429  -46.3558 H         1 UNK         0.0600 
    167 H167        5.7732  -17.8799  -47.5213 H         1 UNK         0.0600 
    168 H168        5.4223  -16.1693  -47.3032 H         1 UNK         0.0600 
    169 H169        5.1873  -15.5482  -44.9062 H         1 UNK         0.3000 
    170 H170        2.8634  -14.9143  -42.3909 H         1 UNK         0.0600 
    171 H171        4.5840  -16.0199  -40.9635 H         1 UNK         0.0600 
    172 H172        5.8658  -15.2633  -41.9021 H         1 UNK         0.0600 
    173 H173        4.7646  -14.2736  -40.9423 H         1 UNK         0.0600 
    174 H174        5.0554  -13.3643  -43.2714 H         1 UNK         0.3000 
    175 H175        4.4522  -11.4560  -44.5962 H         1 UNK         0.0600 
    176 H176        5.2210  -13.3834  -46.8775 H         1 UNK         0.0600 
    177 H177        5.9358  -11.7968  -46.6059 H         1 UNK         0.0600 
    178 H178        6.1912  -13.0792  -45.4406 H         1 UNK         0.0600 
    179 H179        2.4609  -12.2150  -46.5450 H         1 UNK         0.3000 
    180 H180        2.0230   -8.8828  -47.6135 H         1 UNK         0.0600 
    181 H181        3.0336  -11.0842  -49.4909 H         1 UNK         0.0600 
    182 H182        3.7404   -9.4816  -49.3265 H         1 UNK         0.0600 
    183 H183        2.1147   -9.6546  -49.9658 H         1 UNK         0.0600 
    184 H184        0.7492  -11.2285  -48.5555 H         1 UNK         0.3000 
    185 H185       -1.9922  -10.5388  -47.1054 H         1 UNK         0.0600 
    186 H186       -1.1701  -11.7456  -49.0873 H         1 UNK         0.0600 
    187 H187       -0.5285  -13.0491  -48.0883 H         1 UNK         0.0600 
    188 H188       -2.2641  -12.7880  -48.2037 H         1 UNK         0.0600 
    189 H189       -0.7999  -12.5424  -45.2812 H         1 UNK         0.3000 
    190 H190       -1.2459  -22.1375  -43.8069 H         1 UNK         0.3000 
    191 H191       -2.8516  -24.0582  -42.4405 H         1 UNK         0.0600 
    192 H192       -1.1376  -22.6488  -41.3149 H         1 UNK         0.0600 
    193 H193       -0.8420  -24.3555  -41.0166 H         1 UNK         0.0600 
    194 H194        0.1478  -23.4866  -42.1803 H         1 UNK         0.0600 
    195 H195       -0.2678  -24.4099  -44.8482 H         1 UNK         0.3000 
    196 H196       -0.1830  -27.3232  -44.7540 H         1 UNK         0.0600 
    197 H197        1.4133  -27.0352  -46.6254 H         1 UNK         0.0600 
    198 H198        1.8397  -25.9904  -45.2783 H         1 UNK         0.0600 
    199 H199        1.0564  -25.3152  -46.7030 H         1 UNK         0.0600 
    200 H200       -2.6533  -27.1857  -44.9281 H         1 UNK         0.3000 
    201 H201       -4.5016  -27.8757  -45.9441 H         1 UNK         0.0600 
    202 H202       -3.0339  -29.7493  -46.6764 H         1 UNK         0.0600 
    203 H203       -2.6583  -28.8916  -48.1703 H         1 UNK         0.0600 
    204 H204       -4.2997  -29.4321  -47.8511 H         1 UNK         0.0600 
    205 H205       -4.3497  -25.2562  -46.1353 H         1 UNK         0.3000 
    206 H206       -5.3055  -23.4833  -47.0338 H         1 UNK         0.0600 
    207 H207       -7.2673  -25.0268  -47.1995 H         1 UNK         0.0600 
    208 H208       -7.2950  -23.7814  -48.4343 H         1 UNK         0.0600 
    209 H209       -6.8164  -25.4192  -48.8581 H         1 UNK         0.0600 
    210 H210       -2.7538  -24.3778  -48.2136 H         1 UNK         0.3000 
    211 H211       -1.2999  -23.9762  -49.8090 H         1 UNK         0.0600 
    212 H212       -3.0932  -21.6470  -50.6672 H         1 UNK         0.0600 
    213 H213       -1.3786  -21.8214  -50.9962 H         1 UNK         0.0600 
    214 H214       -1.9314  -21.5796  -49.3471 H         1 UNK         0.0600 
    215 H215       -3.3338  -25.9135  -50.3466 H         1 UNK         0.3000 
    216 H216       -4.1094  -27.3049  -51.8673 H         1 UNK         0.0600 
    217 H217       -3.0034  -27.5867  -54.0481 H         1 UNK         0.0600 
    218 H218       -1.7901  -27.3363  -52.8030 H         1 UNK         0.0600 
    219 H219       -2.2094  -26.0267  -53.9066 H         1 UNK         0.0600 
    220 H220       -5.7299  -25.4041  -51.2353 H         1 UNK         0.3000 
    221 H221       -7.6221  -24.3472  -51.6529 H         1 UNK         0.0600 
    222 H222       -7.5908  -25.5681  -54.4652 H         1 UNK         0.0600 
    223 H223       -8.2714  -26.3256  -53.0262 H         1 UNK         0.0600 
    224 H224       -8.9692  -24.8416  -53.6558 H         1 UNK         0.0600 
    225 H225       -5.7117  -22.7695  -51.4819 H         1 UNK         0.3000 
    226 H226       -4.9749  -20.7477  -51.6832 H         1 UNK         0.0600 
    227 H227       -7.2893  -19.9937  -52.1087 H         1 UNK         0.0600 
    228 H228       -6.1306  -19.0028  -52.9809 H         1 UNK         0.0600 
    229 H229       -7.0710  -20.2095  -53.8447 H         1 UNK         0.0600 
    230 H230       -5.5059  -22.0595  -54.9440 H         1 UNK         0.3000 
    231 H231       -4.3377  -22.1089  -56.8493 H         1 UNK         0.0600 
    232 H232       -1.9015  -22.2976  -54.9992 H         1 UNK         0.0600 
    233 H233       -1.9888  -22.8636  -56.6638 H         1 UNK         0.0600 
    234 H234       -2.9602  -23.6396  -55.4225 H         1 UNK         0.0600 
    235 H235       -4.9621  -19.4891  -55.9659 H         1 UNK         0.3000 
    236 H236       -4.6617  -17.3172  -56.2390 H         1 UNK         0.0600 
    237 H237       -4.5037  -17.9492  -58.6642 H         1 UNK         0.0600 
    238 H238       -3.5895  -16.4962  -58.3007 H         1 UNK         0.0600 
    239 H239       -2.7475  -18.0228  -58.5265 H         1 UNK         0.0600 
    240 H240       -2.7542  -18.8492  -54.4561 H         1 UNK         0.3000 
    241 H241       -1.0391  -18.6334  -53.1575 H         1 UNK         0.0600 
    242 H242        1.1946  -18.9536  -56.2425 H         1 UNK         0.3800 
    243 H243       -0.5309  -19.1993  -56.1223 H         1 UNK         0.3800 
    244 H244       -0.1286  -16.3898  -52.4740 H         1 UNK         0.0800 
    245 H245       -1.0622  -15.6354  -53.7342 H         1 UNK         0.0800 
    246 H246       -1.3156  -18.0937  -50.6648 H         1 UNK         0.0800 
    247 H247       -0.9323  -16.4892  -50.0875 H         1 UNK         0.0800 
@<TRIPOS>BOND
     1    1    2 1    
     2    1  127 1    
     3    1  128 1    
     4    1  129 1    
     5    2    3 2    
     6    2    4 am   BACKBONE|DICT|INTERRES
     7    4    5 1    
     8    4  130 1    
     9    5    6 1    
    10    5   65 1    
    11    5  131 1    
    12    6    7 1    
    13    6  132 1    
    14    6  133 1    
    15    7    8 1    
    16    8    9 1    
    17    8  134 1    
    18    8  135 1    
    19    9   10 ar   
    20    9   14 ar   
    21   10   11 ar   
    22   10  136 1    
    23   11   12 ar   
    24   11  126 1    
    25   12   13 ar   
    26   12  137 1    
    27   13   14 ar   
    28   13   15 1    
    29   14  138 1    
    30   15   16 1    
    31   15  139 1    
    32   15  140 1    
    33   16   17 1    
    34   17   18 1    
    35   17  141 1    
    36   17  142 1    
    37   18   19 1    
    38   18   67 1    
    39   18  143 1    
    40   19   20 am   BACKBONE|DICT|INTERRES
    41   19  144 1    
    42   20   21 2    
    43   20   22 1    
    44   22   23 1    
    45   22   24 1    
    46   22  145 1    
    47   23  146 1    
    48   23  147 1    
    49   23  148 1    
    50   24   25 am   BACKBONE|DICT|INTERRES
    51   24  149 1    
    52   25   26 2    
    53   25   27 1    
    54   27   28 1    
    55   27   29 1    
    56   27  150 1    
    57   28  151 1    
    58   28  152 1    
    59   28  153 1    
    60   29   30 am   BACKBONE|DICT|INTERRES
    61   29  154 1    
    62   30   31 2    
    63   30   32 1    
    64   32   33 1    
    65   32   34 1    
    66   32  155 1    
    67   33  156 1    
    68   33  157 1    
    69   33  158 1    
    70   34   35 am   BACKBONE|DICT|INTERRES
    71   34  159 1    
    72   35   36 2    
    73   35   37 1    
    74   37   38 1    
    75   37   39 1    
    76   37  160 1    
    77   38  161 1    
    78   38  162 1    
    79   38  163 1    
    80   39   40 am   BACKBONE|DICT|INTERRES
    81   39  164 1    
    82   40   41 2    
    83   40   42 1    
    84   42   43 1    
    85   42   44 1    
    86   42  165 1    
    87   43  166 1    
    88   43  167 1    
    89   43  168 1    
    90   44   45 am   BACKBONE|DICT|INTERRES
    91   44  169 1    
    92   45   46 2    
    93   45   47 1    
    94   47   48 1    
    95   47   49 1    
    96   47  170 1    
    97   48  171 1    
    98   48  172 1    
    99   48  173 1    
   100   49   50 am   BACKBONE|DICT|INTERRES
   101   49  174 1    
   102   50   51 2    
   103   50   52 1    
   104   52   53 1    
   105   52   54 1    
   106   52  175 1    
   107   53  176 1    
   108   53  177 1    
   109   53  178 1    
   110   54   55 am   BACKBONE|DICT|INTERRES
   111   54  179 1    
   112   55   56 2    
   113   55   57 1    
   114   57   58 1    
   115   57   59 1    
   116   57  180 1    
   117   58  181 1    
   118   58  182 1    
   119   58  183 1    
   120   59   60 am   BACKBONE|DICT|INTERRES
   121   59  184 1    
   122   60   61 2    
   123   60   62 1    
   124   62   63 1    
   125   62   64 1    
   126   62  185 1    
   127   63  186 1    
   128   63  187 1    
   129   63  188 1    
   130   64   65 am   BACKBONE|DICT|INTERRES
   131   64  189 1    
   132   65   66 2    
   133   67   68 2    
   134   67   69 am   BACKBONE|DICT|INTERRES
   135   69   70 1    
   136   69  190 1    
   137   70   71 1    
   138   70   72 1    
   139   70  191 1    
   140   71  192 1    
   141   71  193 1    
   142   71  194 1    
   143   72   73 2    
   144   72   74 am   BACKBONE|DICT|INTERRES
   145   74   75 1    
   146   74  195 1    
   147   75   76 1    
   148   75   77 1    
   149   75  196 1    
   150   76  197 1    
   151   76  198 1    
   152   76  199 1    
   153   77   78 2    
   154   77   79 am   BACKBONE|DICT|INTERRES
   155   79   80 1    
   156   79  200 1    
   157   80   81 1    
   158   80   82 1    
   159   80  201 1    
   160   81  202 1    
   161   81  203 1    
   162   81  204 1    
   163   82   83 2    
   164   82   84 am   BACKBONE|DICT|INTERRES
   165   84   85 1    
   166   84  205 1    
   167   85   86 1    
   168   85   87 1    
   169   85  206 1    
   170   86  207 1    
   171   86  208 1    
   172   86  209 1    
   173   87   88 2    
   174   87   89 am   BACKBONE|DICT|INTERRES
   175   89   90 1    
   176   89  210 1    
   177   90   91 1    
   178   90   92 1    
   179   90  211 1    
   180   91  212 1    
   181   91  213 1    
   182   91  214 1    
   183   92   93 2    
   184   92   94 am   BACKBONE|DICT|INTERRES
   185   94   95 1    
   186   94  215 1    
   187   95   96 1    
   188   95   97 1    
   189   95  216 1    
   190   96  217 1    
   191   96  218 1    
   192   96  219 1    
   193   97   98 2    
   194   97   99 am   BACKBONE|DICT|INTERRES
   195   99  100 1    
   196   99  220 1    
   197  100  101 1    
   198  100  102 1    
   199  100  221 1    
   200  101  222 1    
   201  101  223 1    
   202  101  224 1    
   203  102  103 2    
   204  102  104 am   BACKBONE|DICT|INTERRES
   205  104  105 1    
   206  104  225 1    
   207  105  106 1    
   208  105  107 1    
   209  105  226 1    
   210  106  227 1    
   211  106  228 1    
   212  106  229 1    
   213  107  108 2    
   214  107  109 am   BACKBONE|DICT|INTERRES
   215  109  110 1    
   216  109  230 1    
   217  110  111 1    
   218  110  112 1    
   219  110  231 1    
   220  111  232 1    
   221  111  233 1    
   222  111  234 1    
   223  112  113 2    
   224  112  114 am   BACKBONE|DICT|INTERRES
   225  114  115 1    
   226  114  235 1    
   227  115  116 1    
   228  115  117 1    
   229  115  236 1    
   230  116  237 1    
   231  116  238 1    
   232  116  239 1    
   233  117  118 2    
   234  117  119 am   BACKBONE|DICT|INTERRES
   235  119  120 1    
   236  119  240 1    
   237  120  121 1    
   238  120  124 1    
   239  120  241 1    
   240  121  122 am   BACKBONE|DICT|INTERRES
   241  121  123 2    
   242  122  242 1    
   243  122  243 1    
   244  124  125 1    
   245  124  244 1    
   246  124  245 1    
   247  125  126 1    
   248  126  246 1    
   249  126  247 1    
@<TRIPOS>SUBSTRUCTURE
     1 UNK         1 GROUP             0       ****    0 ROOT    
