@<TRIPOS>MOLECULE
3R540
247   249    1
SMALL
USER_CHARGES


@<TRIPOS>ATOM
      1 CA          2.0341  -13.5041  -49.6053 C.3       0 UNK        -0.1800 
      2 C           3.3051  -13.1820  -48.8327 C.2       0 UNK         0.5000 
      3 O           3.4002  -12.1081  -48.2394 O.2       0 UNK        -0.5000 
      4 N           4.2697  -14.1087  -48.8535 N.am      1 UNK        -0.5000 
      5 CA          5.6363  -13.9870  -48.3287 C.3       1 UNK         0.1400 
      6 C6          6.4948  -15.2411  -48.6501 C.3       23 UNK        -0.0398 
      7 S7          5.6542  -16.8272  -48.2794 S.3       23 UNK        -0.2404 
      8 C8          5.2468  -17.4030  -49.9578 C.3       23 UNK        -0.0205 
      9 C9          3.9534  -18.2011  -49.9823 C.ar      23 UNK        -0.0193 
     10 C10         2.7344  -17.5500  -50.1841 C.ar      23 UNK        -0.1150 
     11 C11         1.5461  -18.2771  -50.2753 C.ar      23 UNK        -0.0193 
     12 C12         1.5846  -19.6695  -50.1590 C.ar      23 UNK        -0.1150 
     13 C13         2.7936  -20.3384  -49.9155 C.ar      23 UNK        -0.0193 
     14 C14         3.9733  -19.5905  -49.8370 C.ar      23 UNK        -0.1150 
     15 C15         2.8879  -21.8583  -49.7356 C.3       23 UNK        -0.0205 
     16 S16         1.3175  -22.7405  -49.4149 S.3       23 UNK        -0.2404 
     17 C17         0.7076  -21.8893  -47.9182 C.3       23 UNK        -0.0398 
     18 CA          0.4600  -22.7875  -46.6863 C.3       11 UNK         0.1400 
     19 N           0.2902  -21.9454  -45.4994 N.am      11 UNK        -0.5000 
     20 C           0.3208  -22.3497  -44.2244 C.2       10 UNK         0.5000 
     21 O           0.4988  -23.5181  -43.8787 O.2       10 UNK        -0.5000 
     22 CA          0.0747  -21.2567  -43.1671 C.3       10 UNK         0.1400 
     23 CB          1.3541  -20.4459  -42.9106 C.3       10 UNK        -0.1800 
     24 N          -1.0086  -20.3504  -43.5592 N.am      10 UNK        -0.5000 
     25 C          -2.3042  -20.6948  -43.5653 C.2       9 UNK         0.5000 
     26 O          -2.7154  -21.7811  -43.1610 O.2       9 UNK        -0.5000 
     27 CA         -3.3122  -19.6752  -44.1297 C.3       9 UNK         0.1400 
     28 CB         -3.7580  -18.6968  -43.0342 C.3       9 UNK        -0.1800 
     29 N          -2.8026  -18.9260  -45.2794 N.am      9 UNK        -0.5000 
     30 C          -2.5063  -19.4638  -46.4714 C.2       8 UNK         0.5000 
     31 O          -2.6582  -20.6533  -46.7431 O.2       8 UNK        -0.5000 
     32 CA         -1.8836  -18.5258  -47.5219 C.3       8 UNK         0.1400 
     33 CB         -2.9585  -17.7072  -48.2517 C.3       8 UNK        -0.1800 
     34 N          -0.8913  -17.6176  -46.9498 N.am      8 UNK        -0.5000 
     35 C           0.2480  -18.0057  -46.3583 C.2       7 UNK         0.5000 
     36 O           0.6000  -19.1777  -46.2433 O.2       7 UNK        -0.5000 
     37 CA          1.0951  -16.8903  -45.7291 C.3       7 UNK         0.1400 
     38 CB          1.8546  -16.1150  -46.8175 C.3       7 UNK        -0.1800 
     39 N           0.2495  -15.9839  -44.9498 N.am      7 UNK        -0.5000 
     40 C          -0.3524  -16.3357  -43.8012 C.2       6 UNK         0.5000 
     41 O          -0.1925  -17.4268  -43.2547 O.2       6 UNK        -0.5000 
     42 CA         -1.3428  -15.3312  -43.1839 C.3       6 UNK         0.1400 
     43 CB         -0.6689  -14.4884  -42.0909 C.3       6 UNK        -0.1800 
     44 N          -1.9618  -14.4642  -44.1891 N.am      6 UNK        -0.5000 
     45 C          -2.8751  -14.8983  -45.0719 C.2       5 UNK         0.5000 
     46 O          -3.2875  -16.0575  -45.0979 O.2       5 UNK        -0.5000 
     47 CA         -3.3897  -13.9003  -46.1276 C.3       5 UNK         0.1400 
     48 CB         -4.6961  -13.2468  -45.6546 C.3       5 UNK        -0.1800 
     49 N          -2.4287  -12.8532  -46.4776 N.am      5 UNK        -0.5000 
     50 C          -1.2301  -13.0643  -47.0369 C.2       4 UNK         0.5000 
     51 O          -0.8068  -14.1872  -47.3193 O.2       4 UNK        -0.5000 
     52 CA         -0.3273  -11.8306  -47.2747 C.3       4 UNK         0.1400 
     53 CB         -0.9960  -10.4808  -46.9303 C.3       4 UNK        -0.1800 
     54 N           0.9551  -11.9471  -46.5696 N.am      4 UNK        -0.5000 
     55 C           1.1207  -12.1985  -45.2649 C.2       3 UNK         0.5000 
     56 O           0.1921  -12.3480  -44.4674 O.2       3 UNK        -0.5000 
     57 CA          2.5596  -12.3415  -44.7593 C.3       3 UNK         0.1400 
     58 CB          2.9372  -11.1766  -43.8292 C.3       3 UNK        -0.1800 
     59 N           2.6181  -13.6055  -44.0327 N.am      3 UNK        -0.5000 
     60 C           3.6399  -14.4604  -43.9111 C.2       2 UNK         0.5000 
     61 O           3.4954  -15.5400  -43.3401 O.2       2 UNK        -0.5000 
     62 CA          5.0070  -14.1085  -44.5258 C.3       2 UNK         0.1400 
     63 CB          6.1576  -14.9488  -43.9350 C.3       2 UNK        -0.1800 
     64 N           4.9676  -14.2912  -45.9758 N.am      2 UNK        -0.5000 
     65 C           5.7340  -13.6097  -46.8352 C.2       1 UNK         0.5000 
     66 O           6.5092  -12.7149  -46.4934 O.2       1 UNK        -0.5000 
     67 C          -0.7101  -23.7784  -46.8998 C.2       11 UNK         0.5000 
     68 O          -0.5238  -24.7812  -47.5883 O.2       11 UNK        -0.5000 
     69 N          -1.8694  -23.5229  -46.2712 N.am      12 UNK        -0.5000 
     70 CA         -3.1010  -24.3222  -46.3268 C.3       12 UNK         0.1400 
     71 CB         -4.1423  -23.7059  -45.3828 C.3       12 UNK        -0.1800 
     72 C          -2.9298  -25.8214  -45.9987 C.2       12 UNK         0.5000 
     73 O          -3.7221  -26.6413  -46.4640 O.2       12 UNK        -0.5000 
     74 N          -1.9068  -26.1536  -45.2003 N.am      13 UNK        -0.5000 
     75 CA         -1.5317  -27.5234  -44.8542 C.3       13 UNK         0.1400 
     76 CB         -0.6740  -27.4869  -43.5798 C.3       13 UNK        -0.1800 
     77 C          -0.7805  -28.2591  -45.9838 C.2       13 UNK         0.5000 
     78 O          -0.7700  -29.4909  -45.9866 O.2       13 UNK        -0.5000 
     79 N          -0.1495  -27.5121  -46.9000 N.am      14 UNK        -0.5000 
     80 CA          0.6745  -28.0408  -47.9873 C.3       14 UNK         0.1400 
     81 CB          1.9510  -27.1917  -48.1041 C.3       14 UNK        -0.1800 
     82 C          -0.0765  -28.0580  -49.3287 C.2       14 UNK         0.5000 
     83 O           0.1151  -28.9881  -50.1135 O.2       14 UNK        -0.5000 
     84 N          -0.9102  -27.0423  -49.5758 N.am      15 UNK        -0.5000 
     85 CA         -1.6866  -26.8621  -50.8000 C.3       15 UNK         0.1400 
     86 CB         -0.8096  -26.1785  -51.8651 C.3       15 UNK        -0.1800 
     87 C          -2.9246  -26.0134  -50.4867 C.2       15 UNK         0.5000 
     88 O          -2.9738  -25.3739  -49.4375 O.2       15 UNK        -0.5000 
     89 N          -3.8899  -25.9638  -51.4132 N.am      16 UNK        -0.5000 
     90 CA         -5.1450  -25.2037  -51.3042 C.3       16 UNK         0.1400 
     91 CB         -6.1536  -25.7763  -52.3160 C.3       16 UNK        -0.1800 
     92 C          -4.9748  -23.6702  -51.4514 C.2       16 UNK         0.5000 
     93 O          -5.8255  -23.0039  -52.0444 O.2       16 UNK        -0.5000 
     94 N          -3.8802  -23.1280  -50.9055 N.am      17 UNK        -0.5000 
     95 CA         -3.4702  -21.7289  -50.9968 C.3       17 UNK         0.1400 
     96 CB         -2.0900  -21.5690  -50.3514 C.3       17 UNK        -0.1800 
     97 C          -4.4682  -20.7525  -50.3596 C.2       17 UNK         0.5000 
     98 O          -4.6685  -19.6672  -50.9012 O.2       17 UNK        -0.5000 
     99 N          -5.0889  -21.1566  -49.2432 N.am      18 UNK        -0.5000 
    100 CA        -6.1089  -20.3772  -48.5396 C.3       18 UNK         0.1400 
    101 CB        -6.3575  -20.9882  -47.1538 C.3       18 UNK        -0.1800 
    102 C         -7.4228  -20.2595  -49.3323 C.2       18 UNK         0.5000 
    103 O         -8.0547  -19.2039  -49.2995 O.2       18 UNK        -0.5000 
    104 N         -7.7917  -21.3266  -50.0552 N.am      19 UNK        -0.5000 
    105 CA        -8.9575  -21.3579  -50.9408 C.3       19 UNK         0.1400 
    106 CB        -9.3190  -22.8156  -51.2639 C.3       19 UNK        -0.1800 
    107 C         -8.7145  -20.5536  -52.2301 C.2       19 UNK         0.5000 
    108 O         -9.6183  -19.8617  -52.6995 O.2       19 UNK        -0.5000 
    109 N         -7.4855  -20.6358  -52.7570 N.am      20 UNK        -0.5000 
    110 CA        -7.0183  -19.8814  -53.9203 C.3       20 UNK         0.1400 
    111 CB        -5.7559  -20.5669  -54.4673 C.3       20 UNK        -0.1800 
    112 C         -6.7240  -18.3971  -53.6195 C.2       20 UNK         0.5000 
    113 O         -6.5318  -17.6261  -54.5602 O.2       20 UNK        -0.5000 
    114 N         -6.6330  -18.0334  -52.3307 N.am      21 UNK        -0.5000 
    115 CA        -6.2111  -16.7324  -51.7938 C.3       21 UNK         0.1400 
    116 CB        -7.2777  -15.6557  -52.0786 C.3       21 UNK        -0.1800 
    117 C         -4.7975  -16.3314  -52.2738 C.2       21 UNK         0.5000 
    118 O         -4.5530  -15.1698  -52.6035 O.2       21 UNK        -0.5000 
    119 N         -3.9068  -17.3295  -52.3407 N.am      22 UNK        -0.5000 
    120 CA        -2.5656  -17.2773  -52.9444 C.3       22 UNK         0.1400 
    121 C         -2.5474  -17.1081  -54.4996 C.2       22 UNK         0.5000 
    122 N         -3.6702  -17.1913  -55.2043 N.am      22 UNK        -0.7600 
    123 O         -1.4897  -16.9289  -55.0961 O.2       22 UNK        -0.5000 
    124 C124       -1.6174  -16.2865  -52.2070 C.3       23 UNK        -0.0398 
    125 S125        0.1152  -16.8631  -52.1721 S.3       23 UNK        -0.2404 
    126 C126        0.2247  -17.5557  -50.4957 C.3       23 UNK        -0.0205 
    127 H127        1.2771  -13.9152  -48.9413 H         1 UNK         0.0600 
    128 H128        2.2192  -14.2222  -50.4034 H         1 UNK         0.0600 
    129 H129        1.6320  -12.6004  -50.0629 H         1 UNK         0.0600 
    130 H130        4.0877  -14.9824  -49.3229 H         1 UNK         0.3000 
    131 H131        6.0848  -13.1516  -48.8706 H         1 UNK         0.0600 
    132 H132        6.7772  -15.2219  -49.7033 H         1 UNK         0.0800 
    133 H133        7.4434  -15.2176  -48.1101 H         1 UNK         0.0800 
    134 H134        5.1526  -16.5577  -50.6408 H         1 UNK         0.0800 
    135 H135        6.0725  -18.0066  -50.3379 H         1 UNK         0.0800 
    136 H136        2.7078  -16.4771  -50.2942 H         1 UNK         0.1150 
    137 H137        0.6639  -20.2244  -50.2498 H         1 UNK         0.1150 
    138 H138        4.9158  -20.0931  -49.6691 H         1 UNK         0.1150 
    139 H139        3.3394  -22.2826  -50.6331 H         1 UNK         0.0800 
    140 H140        3.5705  -22.0801  -48.9137 H         1 UNK         0.0800 
    141 H141       -0.1913  -21.3273  -48.1676 H         1 UNK         0.0800 
    142 H142        1.4518  -21.1399  -47.6494 H         1 UNK         0.0800 
    143 H143        1.3566  -23.3895  -46.5249 H         1 UNK         0.0600 
    144 H144        0.1869  -20.9500  -45.6808 H         1 UNK         0.3000 
    145 H145       -0.2055  -21.7498  -42.2338 H         1 UNK         0.0600 
    146 H146        1.2041  -19.7176  -42.1134 H         1 UNK         0.0600 
    147 H147        1.6750  -19.9027  -43.8001 H         1 UNK         0.0600 
    148 H148        2.1753  -21.0965  -42.6076 H         1 UNK         0.0600 
    149 H149       -0.7429  -19.4158  -43.8476 H         1 UNK         0.3000 
    150 H150       -4.1912  -20.2309  -44.4622 H         1 UNK         0.0600 
    151 H151       -4.2103  -19.2297  -42.1969 H         1 UNK         0.0600 
    152 H152       -4.4995  -17.9914  -43.4098 H         1 UNK         0.0600 
    153 H153       -2.9170  -18.1259  -42.6418 H         1 UNK         0.0600 
    154 H154       -2.7159  -17.9206  -45.1645 H         1 UNK         0.3000 
    155 H155       -1.3728  -19.1505  -48.2561 H         1 UNK         0.0600 
    156 H156       -3.6465  -18.3597  -48.7849 H         1 UNK         0.0600 
    157 H157       -2.5167  -17.0363  -48.9875 H         1 UNK         0.0600 
    158 H158       -3.5486  -17.1036  -47.5623 H         1 UNK         0.0600 
    159 H159       -1.1048  -16.6297  -46.9778 H         1 UNK         0.3000 
    160 H160        1.8256  -17.3419  -45.0541 H         1 UNK         0.0600 
    161 H161        1.2052  -15.8408  -47.6475 H         1 UNK         0.0600 
    162 H162        2.6597  -16.7242  -47.2295 H         1 UNK         0.0600 
    163 H163        2.2954  -15.1993  -46.4301 H         1 UNK         0.0600 
    164 H164        0.0039  -15.1027  -45.3811 H         1 UNK         0.3000 
    165 H165       -2.1379  -15.9048  -42.7045 H         1 UNK         0.0600 
    166 H166       -1.3650  -13.7681  -41.6610 H         1 UNK         0.0600 
    167 H167       -0.3169  -15.1245  -41.2778 H         1 UNK         0.0600 
    168 H168        0.1935  -13.9402  -42.4648 H         1 UNK         0.0600 
    169 H169       -1.6098  -13.5158  -44.2558 H         1 UNK         0.3000 
    170 H170       -3.6022  -14.4700  -47.0347 H         1 UNK         0.0600 
    171 H171       -4.5413  -12.6374  -44.7632 H         1 UNK         0.0600 
    172 H172       -5.1219  -12.6086  -46.4292 H         1 UNK         0.0600 
    173 H173       -5.4446  -14.0019  -45.4102 H         1 UNK         0.0600 
    174 H174       -2.6890  -11.9060  -46.2450 H         1 UNK         0.3000 
    175 H175       -0.1007  -11.8223  -48.3411 H         1 UNK         0.0600 
    176 H176       -1.2449  -10.4014  -45.8713 H         1 UNK         0.0600 
    177 H177       -0.3337   -9.6494  -47.1723 H         1 UNK         0.0600 
    178 H178       -1.9116  -10.3331  -47.5045 H         1 UNK         0.0600 
    179 H179        1.7831  -11.8689  -47.1535 H         1 UNK         0.3000 
    180 H180        3.2326  -12.3481  -45.6148 H         1 UNK         0.0600 
    181 H181        3.9577  -11.2685  -43.4594 H         1 UNK         0.0600 
    182 H182        2.2748  -11.1226  -42.9642 H         1 UNK         0.0600 
    183 H183        2.8683  -10.2235  -44.3550 H         1 UNK         0.0600 
    184 H184        1.7276  -13.8684  -43.6359 H         1 UNK         0.3000 
    185 H185        5.2109  -13.0637  -44.2875 H         1 UNK         0.0600 
    186 H186        7.1254  -14.6113  -44.3061 H         1 UNK         0.0600 
    187 H187        6.1831  -14.8680  -42.8476 H         1 UNK         0.0600 
    188 H188        6.0548  -16.0052  -44.1862 H         1 UNK         0.0600 
    189 H189        4.3588  -15.0175  -46.3255 H         1 UNK         0.3000 
    190 H190       -1.9388  -22.6471  -45.7705 H         1 UNK         0.3000 
    191 H191       -3.4921  -24.2328  -47.3381 H         1 UNK         0.0600 
    192 H192       -4.2574  -22.6380  -45.5593 H         1 UNK         0.0600 
    193 H193       -3.8655  -23.8450  -44.3375 H         1 UNK         0.0600 
    194 H194       -5.1197  -24.1681  -45.5258 H         1 UNK         0.0600 
    195 H195       -1.3097  -25.4149  -44.8548 H         1 UNK         0.3000 
    196 H196       -2.4391  -28.0909  -44.6371 H         1 UNK         0.0600 
    197 H197       -1.2189  -27.0355  -42.7505 H         1 UNK         0.0600 
    198 H198        0.2433  -26.9155  -43.7291 H         1 UNK         0.0600 
    199 H199       -0.3884  -28.4931  -43.2704 H         1 UNK         0.0600 
    200 H200       -0.2680  -26.5030  -46.8846 H         1 UNK         0.3000 
    201 H201        0.9782  -29.0657  -47.7637 H         1 UNK         0.0600 
    202 H202        2.5185  -27.2040  -47.1736 H         1 UNK         0.0600 
    203 H203        1.7261  -26.1518  -48.3453 H         1 UNK         0.0600 
    204 H204        2.6041  -27.5755  -48.8888 H         1 UNK         0.0600 
    205 H205       -1.0377  -26.3091  -48.8825 H         1 UNK         0.3000 
    206 H206       -2.0267  -27.8331  -51.1658 H         1 UNK         0.0600 
    207 H207       -0.4556  -25.2042  -51.5244 H         1 UNK         0.0600 
    208 H208        0.0639  -26.7840  -52.1072 H         1 UNK         0.0600 
    209 H209       -1.3605  -26.0230  -52.7932 H         1 UNK         0.0600 
    210 H210       -3.7615  -26.4786  -52.2724 H         1 UNK         0.3000 
    211 H211       -5.5526  -25.3718  -50.3053 H         1 UNK         0.0600 
    212 H212       -5.8273  -25.6120  -53.3436 H         1 UNK         0.0600 
    213 H213       -7.1337  -25.3118  -52.2038 H         1 UNK         0.0600 
    214 H214       -6.2910  -26.8484  -52.1737 H         1 UNK         0.0600 
    215 H215       -3.2763  -23.7514  -50.3779 H         1 UNK         0.3000 
    216 H216       -3.3865  -21.4739  -52.0548 H         1 UNK         0.0600 
    217 H217       -1.7562  -20.5317  -50.3891 H         1 UNK         0.0600 
    218 H218       -1.3425  -22.1724  -50.8663 H         1 UNK         0.0600 
    219 H219       -2.1088  -21.8768  -49.3055 H         1 UNK         0.0600 
    220 H220       -4.8453  -22.0550  -48.8539 H         1 UNK         0.3000 
    221 H221       -5.7279  -19.3649  -48.3938 H         1 UNK         0.0600 
    222 H222       -6.6501  -22.0368  -47.2178 H         1 UNK         0.0600 
    223 H223       -5.4624  -20.9221  -46.5372 H         1 UNK         0.0600 
    224 H224       -7.1496  -20.4555  -46.6260 H         1 UNK         0.0600 
    225 H225       -7.1931  -22.1392  -50.0629 H         1 UNK         0.3000 
    226 H226       -9.8036  -20.9073  -50.4174 H         1 UNK         0.0600 
    227 H227       -9.5225  -23.3830  -50.3557 H         1 UNK         0.0600 
    228 H228      -10.2138  -22.8650  -51.8856 H         1 UNK         0.0600 
    229 H229       -8.5184  -23.3208  -51.8040 H         1 UNK         0.0600 
    230 H230       -6.8249  -21.2887  -52.3468 H         1 UNK         0.3000 
    231 H231       -7.7904  -19.9153  -54.6916 H         1 UNK         0.0600 
    232 H232       -5.4008  -20.0735  -55.3729 H         1 UNK         0.0600 
    233 H233       -5.9503  -21.6095  -54.7202 H         1 UNK         0.0600 
    234 H234       -4.9425  -20.5451  -53.7415 H         1 UNK         0.0600 
    235 H235       -6.7424  -18.7655  -51.6424 H         1 UNK         0.3000 
    236 H236       -6.1427  -16.8557  -50.7119 H         1 UNK         0.0600 
    237 H237       -7.3664  -15.4447  -53.1447 H         1 UNK         0.0600 
    238 H238       -8.2571  -15.9677  -51.7159 H         1 UNK         0.0600 
    239 H239       -7.0303  -14.7186  -51.5788 H         1 UNK         0.0600 
    240 H240       -4.2012  -18.2404  -51.9951 H         1 UNK         0.3000 
    241 H241       -2.1805  -18.2843  -52.7799 H         1 UNK         0.0600 
    242 H242       -4.5748  -17.3129  -54.7634 H         1 UNK         0.3800 
    243 H243       -3.6227  -17.0884  -56.2053 H         1 UNK         0.3800 
    244 H244       -1.9454  -16.1368  -51.1780 H         1 UNK         0.0800 
    245 H245       -1.6545  -15.2975  -52.6667 H         1 UNK         0.0800 
    246 H246        0.1178  -16.7554  -49.7618 H         1 UNK         0.0800 
    247 H247       -0.6120  -18.2373  -50.3418 H         1 UNK         0.0800 
@<TRIPOS>BOND
     1    1    2 1    
     2    1  127 1    
     3    1  128 1    
     4    1  129 1    
     5    2    3 2    
     6    2    4 am   BACKBONE|DICT|INTERRES
     7    4    5 1    
     8    4  130 1    
     9    5    6 1    
    10    5   65 1    
    11    5  131 1    
    12    6    7 1    
    13    6  132 1    
    14    6  133 1    
    15    7    8 1    
    16    8    9 1    
    17    8  134 1    
    18    8  135 1    
    19    9   10 ar   
    20    9   14 ar   
    21   10   11 ar   
    22   10  136 1    
    23   11   12 ar   
    24   11  126 1    
    25   12   13 ar   
    26   12  137 1    
    27   13   14 ar   
    28   13   15 1    
    29   14  138 1    
    30   15   16 1    
    31   15  139 1    
    32   15  140 1    
    33   16   17 1    
    34   17   18 1    
    35   17  141 1    
    36   17  142 1    
    37   18   19 1    
    38   18   67 1    
    39   18  143 1    
    40   19   20 am   BACKBONE|DICT|INTERRES
    41   19  144 1    
    42   20   21 2    
    43   20   22 1    
    44   22   23 1    
    45   22   24 1    
    46   22  145 1    
    47   23  146 1    
    48   23  147 1    
    49   23  148 1    
    50   24   25 am   BACKBONE|DICT|INTERRES
    51   24  149 1    
    52   25   26 2    
    53   25   27 1    
    54   27   28 1    
    55   27   29 1    
    56   27  150 1    
    57   28  151 1    
    58   28  152 1    
    59   28  153 1    
    60   29   30 am   BACKBONE|DICT|INTERRES
    61   29  154 1    
    62   30   31 2    
    63   30   32 1    
    64   32   33 1    
    65   32   34 1    
    66   32  155 1    
    67   33  156 1    
    68   33  157 1    
    69   33  158 1    
    70   34   35 am   BACKBONE|DICT|INTERRES
    71   34  159 1    
    72   35   36 2    
    73   35   37 1    
    74   37   38 1    
    75   37   39 1    
    76   37  160 1    
    77   38  161 1    
    78   38  162 1    
    79   38  163 1    
    80   39   40 am   BACKBONE|DICT|INTERRES
    81   39  164 1    
    82   40   41 2    
    83   40   42 1    
    84   42   43 1    
    85   42   44 1    
    86   42  165 1    
    87   43  166 1    
    88   43  167 1    
    89   43  168 1    
    90   44   45 am   BACKBONE|DICT|INTERRES
    91   44  169 1    
    92   45   46 2    
    93   45   47 1    
    94   47   48 1    
    95   47   49 1    
    96   47  170 1    
    97   48  171 1    
    98   48  172 1    
    99   48  173 1    
   100   49   50 am   BACKBONE|DICT|INTERRES
   101   49  174 1    
   102   50   51 2    
   103   50   52 1    
   104   52   53 1    
   105   52   54 1    
   106   52  175 1    
   107   53  176 1    
   108   53  177 1    
   109   53  178 1    
   110   54   55 am   BACKBONE|DICT|INTERRES
   111   54  179 1    
   112   55   56 2    
   113   55   57 1    
   114   57   58 1    
   115   57   59 1    
   116   57  180 1    
   117   58  181 1    
   118   58  182 1    
   119   58  183 1    
   120   59   60 am   BACKBONE|DICT|INTERRES
   121   59  184 1    
   122   60   61 2    
   123   60   62 1    
   124   62   63 1    
   125   62   64 1    
   126   62  185 1    
   127   63  186 1    
   128   63  187 1    
   129   63  188 1    
   130   64   65 am   BACKBONE|DICT|INTERRES
   131   64  189 1    
   132   65   66 2    
   133   67   68 2    
   134   67   69 am   BACKBONE|DICT|INTERRES
   135   69   70 1    
   136   69  190 1    
   137   70   71 1    
   138   70   72 1    
   139   70  191 1    
   140   71  192 1    
   141   71  193 1    
   142   71  194 1    
   143   72   73 2    
   144   72   74 am   BACKBONE|DICT|INTERRES
   145   74   75 1    
   146   74  195 1    
   147   75   76 1    
   148   75   77 1    
   149   75  196 1    
   150   76  197 1    
   151   76  198 1    
   152   76  199 1    
   153   77   78 2    
   154   77   79 am   BACKBONE|DICT|INTERRES
   155   79   80 1    
   156   79  200 1    
   157   80   81 1    
   158   80   82 1    
   159   80  201 1    
   160   81  202 1    
   161   81  203 1    
   162   81  204 1    
   163   82   83 2    
   164   82   84 am   BACKBONE|DICT|INTERRES
   165   84   85 1    
   166   84  205 1    
   167   85   86 1    
   168   85   87 1    
   169   85  206 1    
   170   86  207 1    
   171   86  208 1    
   172   86  209 1    
   173   87   88 2    
   174   87   89 am   BACKBONE|DICT|INTERRES
   175   89   90 1    
   176   89  210 1    
   177   90   91 1    
   178   90   92 1    
   179   90  211 1    
   180   91  212 1    
   181   91  213 1    
   182   91  214 1    
   183   92   93 2    
   184   92   94 am   BACKBONE|DICT|INTERRES
   185   94   95 1    
   186   94  215 1    
   187   95   96 1    
   188   95   97 1    
   189   95  216 1    
   190   96  217 1    
   191   96  218 1    
   192   96  219 1    
   193   97   98 2    
   194   97   99 am   BACKBONE|DICT|INTERRES
   195   99  100 1    
   196   99  220 1    
   197  100  101 1    
   198  100  102 1    
   199  100  221 1    
   200  101  222 1    
   201  101  223 1    
   202  101  224 1    
   203  102  103 2    
   204  102  104 am   BACKBONE|DICT|INTERRES
   205  104  105 1    
   206  104  225 1    
   207  105  106 1    
   208  105  107 1    
   209  105  226 1    
   210  106  227 1    
   211  106  228 1    
   212  106  229 1    
   213  107  108 2    
   214  107  109 am   BACKBONE|DICT|INTERRES
   215  109  110 1    
   216  109  230 1    
   217  110  111 1    
   218  110  112 1    
   219  110  231 1    
   220  111  232 1    
   221  111  233 1    
   222  111  234 1    
   223  112  113 2    
   224  112  114 am   BACKBONE|DICT|INTERRES
   225  114  115 1    
   226  114  235 1    
   227  115  116 1    
   228  115  117 1    
   229  115  236 1    
   230  116  237 1    
   231  116  238 1    
   232  116  239 1    
   233  117  118 2    
   234  117  119 am   BACKBONE|DICT|INTERRES
   235  119  120 1    
   236  119  240 1    
   237  120  121 1    
   238  120  124 1    
   239  120  241 1    
   240  121  122 am   BACKBONE|DICT|INTERRES
   241  121  123 2    
   242  122  242 1    
   243  122  243 1    
   244  124  125 1    
   245  124  244 1    
   246  124  245 1    
   247  125  126 1    
   248  126  246 1    
   249  126  247 1    
@<TRIPOS>SUBSTRUCTURE
     1 UNK         1 GROUP             0       ****    0 ROOT    
