@<TRIPOS>MOLECULE
3R540
247   249    1
SMALL
USER_CHARGES


@<TRIPOS>ATOM
      1 CA         -0.6042  -16.2245  -54.1984 C.3       0 UNK        -0.1800 
      2 C          -0.1101  -16.6528  -52.8242 C.2       0 UNK         0.5000 
      3 O          -0.6501  -17.5938  -52.2489 O.2       0 UNK        -0.5000 
      4 N           0.9183  -15.9738  -52.2988 N.am      1 UNK        -0.5000 
      5 CA          1.4690  -16.2078  -50.9562 C.3       1 UNK         0.1400 
      6 C6          2.3893  -15.0571  -50.4791 C.3       23 UNK        -0.0398 
      7 S7          1.6177  -13.4081  -50.5729 S.3       23 UNK        -0.2404 
      8 C8          0.8834  -13.2514  -48.9129 C.3       23 UNK        -0.0205 
      9 C9         -0.4017  -14.0553  -48.7653 C.ar      23 UNK        -0.0193 
     10 C10        -1.4977  -13.7722  -49.5836 C.ar      23 UNK        -0.1150 
     11 C11        -2.7011  -14.4633  -49.4306 C.ar      23 UNK        -0.0193 
     12 C12        -2.8091  -15.4418  -48.4369 C.ar      23 UNK        -0.1150 
     13 C13        -1.7207  -15.7371  -47.6044 C.ar      23 UNK        -0.0193 
     14 C14        -0.5178  -15.0435  -47.7828 C.ar      23 UNK        -0.1150 
     15 C15        -1.8415  -16.7351  -46.4543 C.3       23 UNK        -0.0205 
     16 S16        -2.7916  -18.2385  -46.8583 S.3       23 UNK        -0.2404 
     17 C17        -2.5804  -19.1867  -45.3162 C.3       23 UNK        -0.0398 
     18 CA         -1.4755  -20.2701  -45.4246 C.3       11 UNK         0.1400 
     19 N          -0.7478  -20.4342  -44.1647 N.am      11 UNK        -0.5000 
     20 C           0.3325  -21.2070  -43.9847 C.2       10 UNK         0.5000 
     21 O           0.8929  -21.8299  -44.8855 O.2       10 UNK        -0.5000 
     22 CA          0.8387  -21.3460  -42.5394 C.3       10 UNK         0.1400 
     23 CB          1.7574  -20.1757  -42.1627 C.3       10 UNK        -0.1800 
     24 N          -0.2666  -21.4349  -41.5851 N.am      10 UNK        -0.5000 
     25 C          -1.0865  -22.4908  -41.4826 C.2       9 UNK         0.5000 
     26 O          -0.9689  -23.5155  -42.1537 O.2       9 UNK        -0.5000 
     27 CA         -2.2651  -22.3570  -40.5024 C.3       9 UNK         0.1400 
     28 CB         -1.8133  -22.6545  -39.0649 C.3       9 UNK        -0.1800 
     29 N          -2.8877  -21.0335  -40.5538 N.am      9 UNK        -0.5000 
     30 C          -3.5378  -20.5424  -41.6183 C.2       8 UNK         0.5000 
     31 O          -3.7068  -21.1659  -42.6659 O.2       8 UNK        -0.5000 
     32 CA         -4.0370  -19.0900  -41.5119 C.3       8 UNK         0.1400 
     33 CB         -5.4276  -19.0436  -40.8621 C.3       8 UNK        -0.1800 
     34 N          -3.1239  -18.2095  -40.7752 N.am      8 UNK        -0.5000 
     35 C          -1.8692  -17.9316  -41.1516 C.2       7 UNK         0.5000 
     36 O          -1.3213  -18.4387  -42.1330 O.2       7 UNK        -0.5000 
     37 CA         -1.0813  -16.9564  -40.2714 C.3       7 UNK         0.1400 
     38 CB         -0.1946  -17.7186  -39.2721 C.3       7 UNK        -0.1800 
     39 N          -0.2523  -16.1297  -41.1388 N.am      7 UNK        -0.5000 
     40 C           0.1540  -14.8822  -40.8864 C.2       6 UNK         0.5000 
     41 O          -0.0938  -14.2902  -39.8339 O.2       6 UNK        -0.5000 
     42 CA          0.9858  -14.1924  -41.9930 C.3       6 UNK         0.1400 
     43 CB          1.3717  -12.7460  -41.6329 C.3       6 UNK        -0.1800 
     44 N           2.2073  -14.9351  -42.3163 N.am      6 UNK        -0.5000 
     45 C           2.2583  -16.0518  -43.0508 C.2       5 UNK         0.5000 
     46 O           1.2597  -16.5716  -43.5583 O.2       5 UNK        -0.5000 
     47 CA          3.6426  -16.7103  -43.2087 C.3       5 UNK         0.1400 
     48 CB          4.1466  -17.2545  -41.8609 C.3       5 UNK        -0.1800 
     49 N           3.5399  -17.8215  -44.1499 N.am      5 UNK        -0.5000 
     50 C           3.7592  -17.7333  -45.4643 C.2       4 UNK         0.5000 
     51 O           4.3043  -16.7742  -46.0169 O.2       4 UNK        -0.5000 
     52 CA          3.1852  -18.8914  -46.2970 C.3       4 UNK         0.1400 
     53 CB          1.7184  -18.5878  -46.6356 C.3       4 UNK        -0.1800 
     54 N           3.9269  -19.1193  -47.5356 N.am      4 UNK        -0.5000 
     55 C           5.1468  -19.6733  -47.5978 C.2       3 UNK         0.5000 
     56 O           5.7644  -20.0510  -46.6005 O.2       3 UNK        -0.5000 
     57 CA          5.7689  -19.8709  -48.9967 C.3       3 UNK         0.1400 
     58 CB          6.6294  -21.1451  -49.0826 C.3       3 UNK        -0.1800 
     59 N           4.7341  -19.9267  -50.0276 N.am      3 UNK        -0.5000 
     60 C           4.7550  -19.2747  -51.1948 C.2       2 UNK         0.5000 
     61 O           5.7070  -18.6001  -51.5907 O.2       2 UNK        -0.5000 
     62 CA          3.4751  -19.3498  -52.0560 C.3       2 UNK         0.1400 
     63 CB          2.5916  -20.5834  -51.7596 C.3       2 UNK        -0.1800 
     64 N           2.6861  -18.1172  -51.9495 N.am      2 UNK        -0.5000 
     65 C           2.2249  -17.5463  -50.8246 C.2       1 UNK         0.5000 
     66 O           2.3964  -18.0181  -49.7015 O.2       1 UNK        -0.5000 
     67 C          -2.0259  -21.6123  -45.9500 C.2       11 UNK         0.5000 
     68 O          -1.8755  -21.9153  -47.1343 O.2       11 UNK        -0.5000 
     69 N          -2.6169  -22.4099  -45.0503 N.am      12 UNK        -0.5000 
     70 CA         -3.0953  -23.7613  -45.3298 C.3       12 UNK         0.1400 
     71 CB         -3.9439  -24.2614  -44.1514 C.3       12 UNK        -0.1800 
     72 C          -1.9498  -24.7393  -45.6458 C.2       12 UNK         0.5000 
     73 O          -2.0331  -25.4595  -46.6406 O.2       12 UNK        -0.5000 
     74 N          -0.8939  -24.7301  -44.8184 N.am      13 UNK        -0.5000 
     75 CA          0.2768  -25.6037  -44.9468 C.3       13 UNK         0.1400 
     76 CB          1.1907  -25.4245  -43.7255 C.3       13 UNK        -0.1800 
     77 C           1.0709  -25.3894  -46.2486 C.2       13 UNK         0.5000 
     78 O           1.5103  -26.3650  -46.8584 O.2       13 UNK        -0.5000 
     79 N           1.2189  -24.1249  -46.6642 N.am      14 UNK        -0.5000 
     80 CA          1.8820  -23.7349  -47.9105 C.3       14 UNK         0.1400 
     81 CB          2.3320  -22.2722  -47.7860 C.3       14 UNK        -0.1800 
     82 C           0.9961  -23.9099  -49.1611 C.2       14 UNK         0.5000 
     83 O           1.4977  -23.7398  -50.2721 O.2       14 UNK        -0.5000 
     84 N          -0.3003  -24.1971  -48.9622 N.am      15 UNK        -0.5000 
     85 CA         -1.3728  -24.2778  -49.9635 C.3       15 UNK         0.1400 
     86 CB         -1.0928  -25.3747  -51.0106 C.3       15 UNK        -0.1800 
     87 C          -1.7269  -22.9193  -50.6078 C.2       15 UNK         0.5000 
     88 O          -2.4697  -22.8810  -51.5898 O.2       15 UNK        -0.5000 
     89 N          -1.2462  -21.8230  -50.0060 N.am      16 UNK        -0.5000 
     90 CA         -1.5579  -20.4377  -50.3545 C.3       16 UNK         0.1400 
     91 CB         -0.6888  -19.5092  -49.5000 C.3       16 UNK        -0.1800 
     92 C          -3.0491  -20.1123  -50.1672 C.2       16 UNK         0.5000 
     93 O          -3.6102  -19.3454  -50.9444 O.2       16 UNK        -0.5000 
     94 N          -3.6875  -20.7714  -49.1902 N.am      17 UNK        -0.5000 
     95 CA         -5.1212  -20.6905  -48.9068 C.3       17 UNK         0.1400 
     96 CB         -5.4128  -21.4628  -47.6113 C.3       17 UNK        -0.1800 
     97 C          -6.0343  -21.1895  -50.0493 C.2       17 UNK         0.5000 
     98 O          -7.2365  -20.9223  -50.0012 O.2       17 UNK        -0.5000 
     99 N          -5.4657  -21.8905  -51.0401 N.am      18 UNK        -0.5000 
    100 CA        -6.1485  -22.3746  -52.2381 C.3       18 UNK         0.1400 
    101 CB        -6.1285  -23.9132  -52.2130 C.3       18 UNK        -0.1800 
    102 C         -5.5132  -21.8284  -53.5345 C.2       18 UNK         0.5000 
    103 O         -5.8722  -22.2962  -54.6178 O.2       18 UNK        -0.5000 
    104 N         -4.5806  -20.8696  -53.4349 N.am      19 UNK        -0.5000 
    105 CA        -3.8699  -20.2805  -54.5700 C.3       19 UNK         0.1400 
    106 CB        -2.5118  -19.7392  -54.0995 C.3       19 UNK        -0.1800 
    107 C         -4.7184  -19.2118  -55.2872 C.2       19 UNK         0.5000 
    108 O         -4.4403  -18.0149  -55.1760 O.2       19 UNK        -0.5000 
    109 N         -5.7306  -19.6845  -56.0277 N.am      20 UNK        -0.5000 
    110 CA        -6.6364  -18.9371  -56.9037 C.3       20 UNK         0.1400 
    111 CB        -5.8771  -18.4122  -58.1426 C.3       20 UNK        -0.1800 
    112 C         -7.4194  -17.8415  -56.1537 C.2       20 UNK         0.5000 
    113 O         -8.4570  -18.1408  -55.5613 O.2       20 UNK        -0.5000 
    114 N         -6.9220  -16.5984  -56.2047 N.am      21 UNK        -0.5000 
    115 CA        -7.4859  -15.4403  -55.5118 C.3       21 UNK         0.1400 
    116 CB        -6.8474  -14.1606  -56.0736 C.3       21 UNK        -0.1800 
    117 C         -7.3071  -15.5079  -53.9832 C.2       21 UNK         0.5000 
    118 O         -8.1536  -14.9861  -53.2557 O.2       21 UNK        -0.5000 
    119 N         -6.2243  -16.1480  -53.5274 N.am      22 UNK        -0.5000 
    120 CA        -5.9711  -16.4453  -52.1124 C.3       22 UNK         0.1400 
    121 C         -6.6205  -17.7959  -51.7101 C.2       22 UNK         0.5000 
    122 N         -7.0666  -17.9346  -50.4692 N.am      22 UNK        -0.7600 
    123 O         -6.7145  -18.7292  -52.5022 O.2       22 UNK        -0.5000 
    124 C124       -4.4568  -16.4293  -51.7869 C.3       23 UNK        -0.0398 
    125 S125       -3.7330  -14.7687  -51.9955 S.3       23 UNK        -0.2404 
    126 C126       -3.8899  -14.1001  -50.3086 C.3       23 UNK        -0.0205 
    127 H127       -1.6754  -16.0241  -54.1637 H         1 UNK         0.0600 
    128 H128       -0.4310  -17.0197  -54.9234 H         1 UNK         0.0600 
    129 H129       -0.1003  -15.3236  -54.5486 H         1 UNK         0.0600 
    130 H130        1.3155  -15.1959  -52.8059 H         1 UNK         0.3000 
    131 H131        0.6235  -16.2661  -50.2677 H         1 UNK         0.0600 
    132 H132        2.7201  -15.2317  -49.4532 H         1 UNK         0.0800 
    133 H133        3.2975  -15.0251  -51.0838 H         1 UNK         0.0800 
    134 H134        1.6170  -13.5346  -48.1566 H         1 UNK         0.0800 
    135 H135        0.6544  -12.2001  -48.7338 H         1 UNK         0.0800 
    136 H136       -1.4161  -13.0031  -50.3391 H         1 UNK         0.1150 
    137 H137       -3.7484  -15.9574  -48.2968 H         1 UNK         0.1150 
    138 H138        0.3213  -15.2516  -47.1335 H         1 UNK         0.1150 
    139 H139       -0.8495  -17.0368  -46.1146 H         1 UNK         0.0800 
    140 H140       -2.3165  -16.2309  -45.6118 H         1 UNK         0.0800 
    141 H141       -3.5420  -19.6151  -45.0282 H         1 UNK         0.0800 
    142 H142       -2.3400  -18.4756  -44.5261 H         1 UNK         0.0800 
    143 H143       -0.7332  -19.9344  -46.1468 H         1 UNK         0.0600 
    144 H144       -1.0937  -19.9044  -43.3699 H         1 UNK         0.3000 
    145 H145        1.4210  -22.2670  -42.4722 H         1 UNK         0.0600 
    146 H146        2.0986  -20.2583  -41.1307 H         1 UNK         0.0600 
    147 H147        2.6450  -20.1696  -42.7950 H         1 UNK         0.0600 
    148 H148        1.2586  -19.2124  -42.2751 H         1 UNK         0.0600 
    149 H149       -0.4643  -20.6104  -41.0383 H         1 UNK         0.3000 
    150 H150       -3.0177  -23.0965  -40.7846 H         1 UNK         0.0600 
    151 H151       -1.0790  -21.9288  -38.7129 H         1 UNK         0.0600 
    152 H152       -1.3571  -23.6430  -38.9966 H         1 UNK         0.0600 
    153 H153       -2.6576  -22.6394  -38.3755 H         1 UNK         0.0600 
    154 H154       -2.7945  -20.4503  -39.7355 H         1 UNK         0.3000 
    155 H155       -4.1248  -18.7001  -42.5281 H         1 UNK         0.0600 
    156 H156       -5.4021  -19.3896  -39.8281 H         1 UNK         0.0600 
    157 H157       -6.1325  -19.6766  -41.4030 H         1 UNK         0.0600 
    158 H158       -5.8323  -18.0313  -40.8682 H         1 UNK         0.0600 
    159 H159       -3.4989  -17.7641  -39.9498 H         1 UNK         0.3000 
    160 H160       -1.7866  -16.3241  -39.7280 H         1 UNK         0.0600 
    161 H161        0.5361  -18.3477  -39.7821 H         1 UNK         0.0600 
    162 H162       -0.7935  -18.3630  -38.6274 H         1 UNK         0.0600 
    163 H163        0.3516  -17.0311  -38.6261 H         1 UNK         0.0600 
    164 H164       -0.0123  -16.5503  -42.0343 H         1 UNK         0.3000 
    165 H165        0.3563  -14.1505  -42.8846 H         1 UNK         0.0600 
    166 H166        1.9022  -12.2636  -42.4541 H         1 UNK         0.0600 
    167 H167        0.4860  -12.1444  -41.4245 H         1 UNK         0.0600 
    168 H168        2.0120  -12.7068  -40.7507 H         1 UNK         0.0600 
    169 H169        3.0590  -14.5859  -41.9012 H         1 UNK         0.3000 
    170 H170        4.3476  -15.9622  -43.5772 H         1 UNK         0.0600 
    171 H171        3.4272  -17.9325  -41.4010 H         1 UNK         0.0600 
    172 H172        5.0860  -17.7947  -41.9809 H         1 UNK         0.0600 
    173 H173        4.3301  -16.4458  -41.1528 H         1 UNK         0.0600 
    174 H174        3.0242  -18.6183  -43.8103 H         1 UNK         0.3000 
    175 H175        3.2200  -19.8092  -45.7055 H         1 UNK         0.0600 
    176 H176        1.6139  -17.6428  -47.1700 H         1 UNK         0.0600 
    177 H177        1.2844  -19.3684  -47.2562 H         1 UNK         0.0600 
    178 H178        1.1194  -18.5139  -45.7276 H         1 UNK         0.0600 
    179 H179        3.4908  -18.7624  -48.3831 H         1 UNK         0.3000 
    180 H180        6.4146  -19.0065  -49.1634 H         1 UNK         0.0600 
    181 H181        6.0408  -22.0393  -48.8741 H         1 UNK         0.0600 
    182 H182        7.4522  -21.1159  -48.3673 H         1 UNK         0.0600 
    183 H183        7.0691  -21.2568  -50.0738 H         1 UNK         0.0600 
    184 H184        3.8889  -20.4183  -49.7759 H         1 UNK         0.3000 
    185 H185        3.8034  -19.4225  -53.0938 H         1 UNK         0.0600 
    186 H186        3.1539  -21.5091  -51.8893 H         1 UNK         0.0600 
    187 H187        2.1935  -20.5816  -50.7459 H         1 UNK         0.0600 
    188 H188        1.7416  -20.6259  -52.4408 H         1 UNK         0.0600 
    189 H189        2.5087  -17.6348  -52.8187 H         1 UNK         0.3000 
    190 H190       -2.7594  -22.0627  -44.1062 H         1 UNK         0.3000 
    191 H191       -3.7389  -23.7146  -46.2096 H         1 UNK         0.0600 
    192 H192       -4.8014  -23.6099  -43.9815 H         1 UNK         0.0600 
    193 H193       -4.3288  -25.2635  -44.3443 H         1 UNK         0.0600 
    194 H194       -3.3689  -24.3018  -43.2261 H         1 UNK         0.0600 
    195 H195       -0.9187  -24.1294  -43.9991 H         1 UNK         0.3000 
    196 H196       -0.0835  -26.6344  -44.9494 H         1 UNK         0.0600 
    197 H197        2.0605  -26.0796  -43.7875 H         1 UNK         0.0600 
    198 H198        0.6668  -25.6680  -42.8012 H         1 UNK         0.0600 
    199 H199        1.5556  -24.4004  -43.6453 H         1 UNK         0.0600 
    200 H200        0.8804  -23.3690  -46.0740 H         1 UNK         0.3000 
    201 H201        2.7709  -24.3541  -48.0473 H         1 UNK         0.0600 
    202 H202        2.8882  -21.9550  -48.6679 H         1 UNK         0.0600 
    203 H203        2.9825  -22.1294  -46.9229 H         1 UNK         0.0600 
    204 H204        1.4764  -21.6063  -47.6761 H         1 UNK         0.0600 
    205 H205       -0.6061  -24.3257  -48.0055 H         1 UNK         0.3000 
    206 H206       -2.2633  -24.5788  -49.4099 H         1 UNK         0.0600 
    207 H207       -0.8458  -26.3225  -50.5324 H         1 UNK         0.0600 
    208 H208       -1.9685  -25.5470  -51.6374 H         1 UNK         0.0600 
    209 H209       -0.2697  -25.1059  -51.6727 H         1 UNK         0.0600 
    210 H210       -0.7321  -21.9596  -49.1473 H         1 UNK         0.3000 
    211 H211       -1.3029  -20.2809  -51.4032 H         1 UNK         0.0600 
    212 H212       -0.8441  -19.6831  -48.4383 H         1 UNK         0.0600 
    213 H213       -0.9120  -18.4600  -49.6979 H         1 UNK         0.0600 
    214 H214        0.3665  -19.6665  -49.7067 H         1 UNK         0.0600 
    215 H215       -3.1305  -21.3580  -48.5772 H         1 UNK         0.3000 
    216 H216       -5.3608  -19.6387  -48.7390 H         1 UNK         0.0600 
    217 H217       -6.4702  -21.4066  -47.3494 H         1 UNK         0.0600 
    218 H218       -4.8535  -21.0523  -46.7713 H         1 UNK         0.0600 
    219 H219       -5.1550  -22.5173  -47.7103 H         1 UNK         0.0600 
    220 H220       -4.4669  -22.0566  -51.0112 H         1 UNK         0.3000 
    221 H221       -7.1889  -22.0441  -52.2457 H         1 UNK         0.0600 
    222 H222       -5.1089  -24.2997  -52.2471 H         1 UNK         0.0600 
    223 H223       -6.6029  -24.2980  -51.3101 H         1 UNK         0.0600 
    224 H224       -6.6688  -24.3304  -53.0636 H         1 UNK         0.0600 
    225 H225       -4.4012  -20.4489  -52.5295 H         1 UNK         0.3000 
    226 H226       -3.6578  -21.0673  -55.2972 H         1 UNK         0.0600 
    227 H227       -1.9506  -19.3116  -54.9309 H         1 UNK         0.0600 
    228 H228       -2.6301  -18.9568  -53.3514 H         1 UNK         0.0600 
    229 H229       -1.9007  -20.5320  -53.6690 H         1 UNK         0.0600 
    230 H230       -5.9161  -20.6792  -55.9545 H         1 UNK         0.3000 
    231 H231       -7.3787  -19.6535  -57.2590 H         1 UNK         0.0600 
    232 H232       -5.0462  -17.7579  -57.8774 H         1 UNK         0.0600 
    233 H233       -6.5422  -17.8529  -58.8019 H         1 UNK         0.0600 
    234 H234       -5.4690  -19.2383  -58.7249 H         1 UNK         0.0600 
    235 H235       -6.0438  -16.4576  -56.6828 H         1 UNK         0.3000 
    236 H236       -8.5575  -15.4071  -55.7196 H         1 UNK         0.0600 
    237 H237       -7.0266  -14.0668  -57.1448 H         1 UNK         0.0600 
    238 H238       -7.2660  -13.2739  -55.5957 H         1 UNK         0.0600 
    239 H239       -5.7692  -14.1438  -55.9092 H         1 UNK         0.0600 
    240 H240       -5.6159  -16.6176  -54.1897 H         1 UNK         0.3000 
    241 H241       -6.4413  -15.6703  -51.5039 H         1 UNK         0.0600 
    242 H242       -7.0255  -17.1888  -49.7933 H         1 UNK         0.3800 
    243 H243       -7.4625  -18.8302  -50.2131 H         1 UNK         0.3800 
    244 H244       -3.9195  -17.1216  -52.4368 H         1 UNK         0.0800 
    245 H245       -4.2707  -16.7665  -50.7660 H         1 UNK         0.0800 
    246 H246       -4.8248  -14.4363  -49.8579 H         1 UNK         0.0800 
    247 H247       -3.9632  -13.0135  -50.3734 H         1 UNK         0.0800 
@<TRIPOS>BOND
     1    1    2 1    
     2    1  127 1    
     3    1  128 1    
     4    1  129 1    
     5    2    3 2    
     6    2    4 am   BACKBONE|DICT|INTERRES
     7    4    5 1    
     8    4  130 1    
     9    5    6 1    
    10    5   65 1    
    11    5  131 1    
    12    6    7 1    
    13    6  132 1    
    14    6  133 1    
    15    7    8 1    
    16    8    9 1    
    17    8  134 1    
    18    8  135 1    
    19    9   10 ar   
    20    9   14 ar   
    21   10   11 ar   
    22   10  136 1    
    23   11   12 ar   
    24   11  126 1    
    25   12   13 ar   
    26   12  137 1    
    27   13   14 ar   
    28   13   15 1    
    29   14  138 1    
    30   15   16 1    
    31   15  139 1    
    32   15  140 1    
    33   16   17 1    
    34   17   18 1    
    35   17  141 1    
    36   17  142 1    
    37   18   19 1    
    38   18   67 1    
    39   18  143 1    
    40   19   20 am   BACKBONE|DICT|INTERRES
    41   19  144 1    
    42   20   21 2    
    43   20   22 1    
    44   22   23 1    
    45   22   24 1    
    46   22  145 1    
    47   23  146 1    
    48   23  147 1    
    49   23  148 1    
    50   24   25 am   BACKBONE|DICT|INTERRES
    51   24  149 1    
    52   25   26 2    
    53   25   27 1    
    54   27   28 1    
    55   27   29 1    
    56   27  150 1    
    57   28  151 1    
    58   28  152 1    
    59   28  153 1    
    60   29   30 am   BACKBONE|DICT|INTERRES
    61   29  154 1    
    62   30   31 2    
    63   30   32 1    
    64   32   33 1    
    65   32   34 1    
    66   32  155 1    
    67   33  156 1    
    68   33  157 1    
    69   33  158 1    
    70   34   35 am   BACKBONE|DICT|INTERRES
    71   34  159 1    
    72   35   36 2    
    73   35   37 1    
    74   37   38 1    
    75   37   39 1    
    76   37  160 1    
    77   38  161 1    
    78   38  162 1    
    79   38  163 1    
    80   39   40 am   BACKBONE|DICT|INTERRES
    81   39  164 1    
    82   40   41 2    
    83   40   42 1    
    84   42   43 1    
    85   42   44 1    
    86   42  165 1    
    87   43  166 1    
    88   43  167 1    
    89   43  168 1    
    90   44   45 am   BACKBONE|DICT|INTERRES
    91   44  169 1    
    92   45   46 2    
    93   45   47 1    
    94   47   48 1    
    95   47   49 1    
    96   47  170 1    
    97   48  171 1    
    98   48  172 1    
    99   48  173 1    
   100   49   50 am   BACKBONE|DICT|INTERRES
   101   49  174 1    
   102   50   51 2    
   103   50   52 1    
   104   52   53 1    
   105   52   54 1    
   106   52  175 1    
   107   53  176 1    
   108   53  177 1    
   109   53  178 1    
   110   54   55 am   BACKBONE|DICT|INTERRES
   111   54  179 1    
   112   55   56 2    
   113   55   57 1    
   114   57   58 1    
   115   57   59 1    
   116   57  180 1    
   117   58  181 1    
   118   58  182 1    
   119   58  183 1    
   120   59   60 am   BACKBONE|DICT|INTERRES
   121   59  184 1    
   122   60   61 2    
   123   60   62 1    
   124   62   63 1    
   125   62   64 1    
   126   62  185 1    
   127   63  186 1    
   128   63  187 1    
   129   63  188 1    
   130   64   65 am   BACKBONE|DICT|INTERRES
   131   64  189 1    
   132   65   66 2    
   133   67   68 2    
   134   67   69 am   BACKBONE|DICT|INTERRES
   135   69   70 1    
   136   69  190 1    
   137   70   71 1    
   138   70   72 1    
   139   70  191 1    
   140   71  192 1    
   141   71  193 1    
   142   71  194 1    
   143   72   73 2    
   144   72   74 am   BACKBONE|DICT|INTERRES
   145   74   75 1    
   146   74  195 1    
   147   75   76 1    
   148   75   77 1    
   149   75  196 1    
   150   76  197 1    
   151   76  198 1    
   152   76  199 1    
   153   77   78 2    
   154   77   79 am   BACKBONE|DICT|INTERRES
   155   79   80 1    
   156   79  200 1    
   157   80   81 1    
   158   80   82 1    
   159   80  201 1    
   160   81  202 1    
   161   81  203 1    
   162   81  204 1    
   163   82   83 2    
   164   82   84 am   BACKBONE|DICT|INTERRES
   165   84   85 1    
   166   84  205 1    
   167   85   86 1    
   168   85   87 1    
   169   85  206 1    
   170   86  207 1    
   171   86  208 1    
   172   86  209 1    
   173   87   88 2    
   174   87   89 am   BACKBONE|DICT|INTERRES
   175   89   90 1    
   176   89  210 1    
   177   90   91 1    
   178   90   92 1    
   179   90  211 1    
   180   91  212 1    
   181   91  213 1    
   182   91  214 1    
   183   92   93 2    
   184   92   94 am   BACKBONE|DICT|INTERRES
   185   94   95 1    
   186   94  215 1    
   187   95   96 1    
   188   95   97 1    
   189   95  216 1    
   190   96  217 1    
   191   96  218 1    
   192   96  219 1    
   193   97   98 2    
   194   97   99 am   BACKBONE|DICT|INTERRES
   195   99  100 1    
   196   99  220 1    
   197  100  101 1    
   198  100  102 1    
   199  100  221 1    
   200  101  222 1    
   201  101  223 1    
   202  101  224 1    
   203  102  103 2    
   204  102  104 am   BACKBONE|DICT|INTERRES
   205  104  105 1    
   206  104  225 1    
   207  105  106 1    
   208  105  107 1    
   209  105  226 1    
   210  106  227 1    
   211  106  228 1    
   212  106  229 1    
   213  107  108 2    
   214  107  109 am   BACKBONE|DICT|INTERRES
   215  109  110 1    
   216  109  230 1    
   217  110  111 1    
   218  110  112 1    
   219  110  231 1    
   220  111  232 1    
   221  111  233 1    
   222  111  234 1    
   223  112  113 2    
   224  112  114 am   BACKBONE|DICT|INTERRES
   225  114  115 1    
   226  114  235 1    
   227  115  116 1    
   228  115  117 1    
   229  115  236 1    
   230  116  237 1    
   231  116  238 1    
   232  116  239 1    
   233  117  118 2    
   234  117  119 am   BACKBONE|DICT|INTERRES
   235  119  120 1    
   236  119  240 1    
   237  120  121 1    
   238  120  124 1    
   239  120  241 1    
   240  121  122 am   BACKBONE|DICT|INTERRES
   241  121  123 2    
   242  122  242 1    
   243  122  243 1    
   244  124  125 1    
   245  124  244 1    
   246  124  245 1    
   247  125  126 1    
   248  126  246 1    
   249  126  247 1    
@<TRIPOS>SUBSTRUCTURE
     1 UNK         1 GROUP             0       ****    0 ROOT    
