@<TRIPOS>MOLECULE
3R540
247   249    1
SMALL
USER_CHARGES


@<TRIPOS>ATOM
      1 CA          6.0202  -11.0959  -50.3269 C.3       0 UNK        -0.1800 
      2 C           4.9520  -11.9569  -49.6681 C.2       0 UNK         0.5000 
      3 O           4.8528  -11.9799  -48.4405 O.2       0 UNK        -0.5000 
      4 N           4.1487  -12.6609  -50.4751 N.am      1 UNK        -0.5000 
      5 CA          3.0569  -13.5388  -50.0402 C.3       1 UNK         0.1400 
      6 C6          2.7555  -14.6454  -51.0880 C.3       23 UNK        -0.0398 
      7 S7          3.9097  -16.0544  -50.9628 S.3       23 UNK        -0.2404 
      8 C8          3.3207  -16.9202  -49.4635 C.3       23 UNK        -0.0205 
      9 C9          1.9150  -17.4867  -49.6116 C.ar      23 UNK        -0.0193 
     10 C10         0.8044  -16.7253  -49.2331 C.ar      23 UNK        -0.1150 
     11 C11        -0.4887  -17.2346  -49.3699 C.ar      23 UNK        -0.0193 
     12 C12        -0.6618  -18.5364  -49.8470 C.ar      23 UNK        -0.1150 
     13 C13         0.4372  -19.3222  -50.2007 C.ar      23 UNK        -0.0193 
     14 C14         1.7242  -18.7820  -50.1020 C.ar      23 UNK        -0.1150 
     15 C15         0.2142  -20.7574  -50.6660 C.3       23 UNK        -0.0205 
     16 S16         1.2378  -21.9860  -49.7844 S.3       23 UNK        -0.2404 
     17 C17         1.0005  -21.5326  -48.0305 C.3       23 UNK        -0.0398 
     18 CA          0.3229  -22.6326  -47.1853 C.3       11 UNK         0.1400 
     19 N           0.5938  -22.4445  -45.7575 N.am      11 UNK        -0.5000 
     20 C           0.2780  -23.3156  -44.7902 C.2       10 UNK         0.5000 
     21 O          -0.2479  -24.4066  -45.0016 O.2       10 UNK        -0.5000 
     22 CA          0.5481  -22.8746  -43.3402 C.3       10 UNK         0.1400 
     23 CB          2.0303  -23.0497  -42.9783 C.3       10 UNK        -0.1800 
     24 N           0.1368  -21.4923  -43.0932 N.am      10 UNK        -0.5000 
     25 C          -1.1309  -21.0595  -43.1553 C.2       9 UNK         0.5000 
     26 O          -2.0938  -21.8003  -43.3577 O.2       9 UNK        -0.5000 
     27 CA         -1.3560  -19.5406  -43.0200 C.3       9 UNK         0.1400 
     28 CB         -1.3527  -19.1126  -41.5452 C.3       9 UNK        -0.1800 
     29 N          -0.3716  -18.7507  -43.7622 N.am      9 UNK        -0.5000 
     30 C          -0.2043  -18.8025  -45.0916 C.2       8 UNK         0.5000 
     31 O          -0.8846  -19.5016  -45.8380 O.2       8 UNK        -0.5000 
     32 CA          0.9658  -17.9988  -45.6786 C.3       8 UNK         0.1400 
     33 CB          0.6111  -16.5136  -45.8058 C.3       8 UNK        -0.1800 
     34 N           2.1824  -18.1474  -44.8828 N.am      8 UNK        -0.5000 
     35 C           2.8745  -19.2891  -44.7670 C.2       7 UNK         0.5000 
     36 O           2.5809  -20.3306  -45.3515 O.2       7 UNK        -0.5000 
     37 CA          4.0672  -19.2744  -43.7954 C.3       7 UNK         0.1400 
     38 CB          5.3127  -18.6860  -44.4749 C.3       7 UNK        -0.1800 
     39 N           3.7772  -18.5230  -42.5737 N.am      7 UNK        -0.5000 
     40 C           2.8655  -18.8855  -41.6596 C.2       6 UNK         0.5000 
     41 O           2.2037  -19.9208  -41.7259 O.2       6 UNK        -0.5000 
     42 CA          2.6189  -17.8961  -40.5065 C.3       6 UNK         0.1400 
     43 CB          3.6214  -18.1309  -39.3669 C.3       6 UNK        -0.1800 
     44 N           2.6860  -16.4960  -40.9368 N.am      6 UNK        -0.5000 
     45 C           1.8221  -15.9277  -41.7877 C.2       5 UNK         0.5000 
     46 O           0.8768  -16.5276  -42.3046 O.2       5 UNK        -0.5000 
     47 CA          2.0852  -14.4632  -42.1553 C.3       5 UNK         0.1400 
     48 CB          3.0015  -14.3617  -43.3877 C.3       5 UNK        -0.1800 
     49 N           0.8132  -13.8041  -42.4280 N.am      5 UNK        -0.5000 
     50 C           0.5702  -12.5004  -42.2637 C.2       4 UNK         0.5000 
     51 O           1.4283  -11.6911  -41.9053 O.2       4 UNK        -0.5000 
     52 CA         -0.8670  -12.0255  -42.5615 C.3       4 UNK         0.1400 
     53 CB         -1.0853  -10.5395  -42.2218 C.3       4 UNK        -0.1800 
     54 N          -1.2197  -12.2365  -43.9641 N.am      4 UNK        -0.5000 
     55 C          -1.6511  -13.3878  -44.4939 C.2       3 UNK         0.5000 
     56 O          -1.8068  -14.4205  -43.8419 O.2       3 UNK        -0.5000 
     57 CA         -1.9604  -13.3833  -46.0042 C.3       3 UNK         0.1400 
     58 CB         -3.4532  -13.1082  -46.2387 C.3       3 UNK        -0.1800 
     59 N          -1.1730  -12.4076  -46.7669 N.am      3 UNK        -0.5000 
     60 C           0.1486  -12.4943  -46.9620 C.2       2 UNK         0.5000 
     61 O           0.8516  -13.3866  -46.4853 O.2       2 UNK        -0.5000 
     62 CA          0.8024  -11.3909  -47.8138 C.3       2 UNK         0.1400 
     63 CB          1.3141  -10.2532  -46.9172 C.3       2 UNK        -0.1800 
     64 N           1.9265  -11.9498  -48.5611 N.am      2 UNK        -0.5000 
     65 C           1.8026  -12.7298  -49.6407 C.2       1 UNK         0.5000 
     66 O           0.7560  -12.8342  -50.2830 O.2       1 UNK        -0.5000 
     67 C          -1.1892  -22.7349  -47.4788 C.2       11 UNK         0.5000 
     68 O          -1.6018  -23.6240  -48.2263 O.2       11 UNK        -0.5000 
     69 N          -1.9896  -21.8613  -46.8505 N.am      12 UNK        -0.5000 
     70 CA         -3.4517  -21.8515  -46.9098 C.3       12 UNK         0.1400 
     71 CB         -3.9994  -20.6240  -46.1687 C.3       12 UNK        -0.1800 
     72 C          -4.0862  -23.1443  -46.3707 C.2       12 UNK         0.5000 
     73 O          -5.0351  -23.6497  -46.9701 O.2       12 UNK        -0.5000 
     74 N          -3.5350  -23.6712  -45.2696 N.am      13 UNK        -0.5000 
     75 CA         -3.9273  -24.9566  -44.6946 C.3       13 UNK         0.1400 
     76 CB         -3.3387  -25.0845  -43.2812 C.3       13 UNK        -0.1800 
     77 C          -3.5095  -26.1506  -45.5751 C.2       13 UNK         0.5000 
     78 O          -4.2731  -27.1096  -45.6940 O.2       13 UNK        -0.5000 
     79 N          -2.3088  -26.0751  -46.1656 N.am      14 UNK        -0.5000 
     80 CA         -1.7214  -27.1219  -46.9982 C.3       14 UNK         0.1400 
     81 CB         -0.2205  -26.8522  -47.1902 C.3       14 UNK        -0.1800 
     82 C          -2.4196  -27.2927  -48.3583 C.2       14 UNK         0.5000 
     83 O          -2.7608  -28.4221  -48.7145 O.2       14 UNK        -0.5000 
     84 N          -2.5982  -26.1923  -49.1033 N.am      15 UNK        -0.5000 
     85 CA         -3.1166  -26.2307  -50.4757 C.3       15 UNK         0.1400 
     86 CB         -2.0018  -26.6721  -51.4444 C.3       15 UNK        -0.1800 
     87 C          -3.7342  -24.9118  -50.9650 C.2       15 UNK         0.5000 
     88 O          -4.5096  -24.9488  -51.9227 O.2       15 UNK        -0.5000 
     89 N          -3.3635  -23.7692  -50.3658 N.am      16 UNK        -0.5000 
     90 CA         -3.8107  -22.4169  -50.7312 C.3       16 UNK         0.1400 
     91 CB         -5.3105  -22.2432  -50.4001 C.3       16 UNK        -0.1800 
     92 C          -3.4769  -22.0367  -52.1889 C.2       16 UNK         0.5000 
     93 O          -4.2678  -21.3550  -52.8400 O.2       16 UNK        -0.5000 
     94 N          -2.3365  -22.5317  -52.6961 N.am      17 UNK        -0.5000 
     95 CA         -1.8889  -22.4337  -54.0934 C.3       17 UNK         0.1400 
     96 CB         -1.5406  -20.9743  -54.4567 C.3       17 UNK        -0.1800 
     97 C          -2.8871  -23.0750  -55.0865 C.2       17 UNK         0.5000 
     98 O          -3.0838  -22.5544  -56.1847 O.2       17 UNK        -0.5000 
     99 N          -3.5087  -24.1857  -54.6597 N.am      18 UNK        -0.5000 
    100 CA        -4.6252  -24.8883  -55.3003 C.3       18 UNK         0.1400 
    101 CB        -4.2475  -25.4154  -56.7014 C.3       18 UNK        -0.1800 
    102 C         -5.9104  -24.0354  -55.2788 C.2       18 UNK         0.5000 
    103 O         -6.5614  -23.8621  -56.3108 O.2       18 UNK        -0.5000 
    104 N         -6.2377  -23.5236  -54.0816 N.am      19 UNK        -0.5000 
    105 CA        -7.3896  -22.6731  -53.7562 C.3       19 UNK         0.1400 
    106 CB        -8.6997  -23.4823  -53.8529 C.3       19 UNK        -0.1800 
    107 C         -7.4249  -21.3580  -54.5652 C.2       19 UNK         0.5000 
    108 O         -8.4620  -21.0048  -55.1311 O.2       19 UNK        -0.5000 
    109 N         -6.2819  -20.6645  -54.6079 N.am      20 UNK        -0.5000 
    110 CA        -6.0764  -19.4229  -55.3533 C.3       20 UNK         0.1400 
    111 CB        -5.1829  -19.7182  -56.5685 C.3       20 UNK        -0.1800 
    112 C         -5.4635  -18.2964  -54.5006 C.2       20 UNK         0.5000 
    113 O         -5.5993  -17.1338  -54.8855 O.2       20 UNK        -0.5000 
    114 N         -4.8011  -18.6266  -53.3832 N.am      21 UNK        -0.5000 
    115 CA        -4.1005  -17.6764  -52.5230 C.3       21 UNK         0.1400 
    116 CB        -2.5868  -17.8059  -52.7637 C.3       21 UNK        -0.1800 
    117 C         -4.4530  -17.9504  -51.0546 C.2       21 UNK         0.5000 
    118 O         -4.1662  -19.0423  -50.5640 O.2       21 UNK        -0.5000 
    119 N         -5.0609  -16.9491  -50.4029 N.am      22 UNK        -0.5000 
    120 CA        -5.4458  -16.8041  -48.9786 C.3       22 UNK         0.1400 
    121 C         -6.1731  -17.9720  -48.2389 C.2       22 UNK         0.5000 
    122 N         -6.2226  -19.1821  -48.7692 N.am      22 UNK        -0.7600 
    123 O         -6.7490  -17.7553  -47.1759 O.2       22 UNK        -0.5000 
    124 C124       -4.3345  -16.1460  -48.1130 C.3       23 UNK        -0.0398 
    125 S125       -2.8350  -17.1562  -47.8702 S.3       23 UNK        -0.2404 
    126 C126       -1.6960  -16.3644  -49.0484 C.3       23 UNK        -0.0205 
    127 H127        7.0100  -11.4030  -49.9890 H         1 UNK         0.0600 
    128 H128        5.8765  -10.0493  -50.0583 H         1 UNK         0.0600 
    129 H129        5.9922  -11.1753  -51.4139 H         1 UNK         0.0600 
    130 H130        4.2708  -12.5828  -51.4747 H         1 UNK         0.3000 
    131 H131        3.3728  -14.0318  -49.1194 H         1 UNK         0.0600 
    132 H132        2.8130  -14.2378  -52.0982 H         1 UNK         0.0800 
    133 H133        1.7431  -15.0371  -51.0078 H         1 UNK         0.0800 
    134 H134        3.3659  -16.2542  -48.6013 H         1 UNK         0.0800 
    135 H135        4.0153  -17.7317  -49.2411 H         1 UNK         0.0800 
    136 H136        0.9462  -15.7246  -48.8498 H         1 UNK         0.1150 
    137 H137       -1.6603  -18.9394  -49.9351 H         1 UNK         0.1150 
    138 H138        2.5793  -19.3803  -50.3835 H         1 UNK         0.1150 
    139 H139       -0.8326  -21.0382  -50.5464 H         1 UNK         0.0800 
    140 H140        0.4328  -20.8200  -51.7320 H         1 UNK         0.0800 
    141 H141        2.0023  -21.3417  -47.6462 H         1 UNK         0.0800 
    142 H142        0.4661  -20.5885  -47.9266 H         1 UNK         0.0800 
    143 H143        0.7722  -23.5894  -47.4584 H         1 UNK         0.0600 
    144 H144        1.0659  -21.5830  -45.4999 H         1 UNK         0.3000 
    145 H145       -0.0386  -23.5200  -42.6831 H         1 UNK         0.0600 
    146 H146        2.2100  -22.8099  -41.9302 H         1 UNK         0.0600 
    147 H147        2.6730  -22.4084  -43.5816 H         1 UNK         0.0600 
    148 H148        2.3516  -24.0798  -43.1367 H         1 UNK         0.0600 
    149 H149        0.8711  -20.8306  -42.8601 H         1 UNK         0.3000 
    150 H150       -2.3393  -19.3132  -43.4364 H         1 UNK         0.0600 
    151 H151       -2.1129  -19.6538  -40.9808 H         1 UNK         0.0600 
    152 H152       -1.5660  -18.0483  -41.4436 H         1 UNK         0.0600 
    153 H153       -0.3909  -19.3071  -41.0708 H         1 UNK         0.0600 
    154 H154        0.2023  -18.1094  -43.2225 H         1 UNK         0.3000 
    155 H155        1.1658  -18.3847  -46.6807 H         1 UNK         0.0600 
    156 H156       -0.2801  -16.3786  -46.4170 H         1 UNK         0.0600 
    157 H157        1.4197  -15.9618  -46.2840 H         1 UNK         0.0600 
    158 H158        0.4112  -16.0509  -44.8402 H         1 UNK         0.0600 
    159 H159        2.4626  -17.3525  -44.3300 H         1 UNK         0.3000 
    160 H160        4.2842  -20.3077  -43.5164 H         1 UNK         0.0600 
    161 H161        5.1662  -17.6420  -44.7549 H         1 UNK         0.0600 
    162 H162        5.5582  -19.2381  -45.3831 H         1 UNK         0.0600 
    163 H163        6.1816  -18.7392  -43.8188 H         1 UNK         0.0600 
    164 H164        4.2801  -17.6590  -42.4365 H         1 UNK         0.3000 
    165 H165        1.6147  -18.0823  -40.1199 H         1 UNK         0.0600 
    166 H166        3.4042  -17.4897  -38.5124 H         1 UNK         0.0600 
    167 H167        3.5780  -19.1630  -39.0163 H         1 UNK         0.0600 
    168 H168        4.6466  -17.9344  -39.6831 H         1 UNK         0.0600 
    169 H169        3.4397  -15.9425  -40.5551 H         1 UNK         0.3000 
    170 H170        2.5687  -13.9802  -41.3035 H         1 UNK         0.0600 
    171 H171        2.5356  -14.7954  -44.2727 H         1 UNK         0.0600 
    172 H172        3.2382  -13.3226  -43.6171 H         1 UNK         0.0600 
    173 H173        3.9465  -14.8801  -43.2221 H         1 UNK         0.0600 
    174 H174        0.0612  -14.4188  -42.7257 H         1 UNK         0.3000 
    175 H175       -1.5397  -12.6100  -41.9301 H         1 UNK         0.0600 
    176 H176       -0.4516   -9.8892  -42.8261 H         1 UNK         0.0600 
    177 H177       -2.1219  -10.2459  -42.3885 H         1 UNK         0.0600 
    178 H178       -0.8581  -10.3403  -41.1737 H         1 UNK         0.0600 
    179 H179       -1.0877  -11.4505  -44.5827 H         1 UNK         0.3000 
    180 H180       -1.7323  -14.3794  -46.3881 H         1 UNK         0.0600 
    181 H181       -3.7454  -12.1272  -45.8618 H         1 UNK         0.0600 
    182 H182       -4.0707  -13.8508  -45.7317 H         1 UNK         0.0600 
    183 H183       -3.7018  -13.1459  -47.2990 H         1 UNK         0.0600 
    184 H184       -1.6844  -11.6430  -47.1840 H         1 UNK         0.3000 
    185 H185        0.0673  -10.9883  -48.5139 H         1 UNK         0.0600 
    186 H186        2.0446  -10.6110  -46.1901 H         1 UNK         0.0600 
    187 H187        1.7868   -9.4684  -47.5081 H         1 UNK         0.0600 
    188 H188        0.4956   -9.7936  -46.3619 H         1 UNK         0.0600 
    189 H189        2.8340  -11.9188  -48.1088 H         1 UNK         0.3000 
    190 H190       -1.5612  -21.1128  -46.3076 H         1 UNK         0.3000 
    191 H191       -3.7359  -21.7528  -47.9541 H         1 UNK         0.0600 
    192 H192       -3.6163  -19.7017  -46.6031 H         1 UNK         0.0600 
    193 H193       -3.7307  -20.6330  -45.1132 H         1 UNK         0.0600 
    194 H194       -5.0873  -20.5822  -46.2311 H         1 UNK         0.0600 
    195 H195       -2.7915  -23.1638  -44.8020 H         1 UNK         0.3000 
    196 H196       -5.0158  -24.9718  -44.6081 H         1 UNK         0.0600 
    197 H197       -3.6815  -24.2742  -42.6374 H         1 UNK         0.0600 
    198 H198       -2.2488  -25.0616  -43.2929 H         1 UNK         0.0600 
    199 H199       -3.6427  -26.0225  -42.8152 H         1 UNK         0.0600 
    200 H200       -1.7147  -25.2788  -45.9554 H         1 UNK         0.3000 
    201 H201       -1.8186  -28.0666  -46.4589 H         1 UNK         0.0600 
    202 H202        0.3027  -26.8389  -46.2341 H         1 UNK         0.0600 
    203 H203       -0.0411  -25.8969  -47.6832 H         1 UNK         0.0600 
    204 H204        0.2414  -27.6285  -47.8015 H         1 UNK         0.0600 
    205 H205       -2.2974  -25.2953  -48.7324 H         1 UNK         0.3000 
    206 H206       -3.9229  -26.9660  -50.5204 H         1 UNK         0.0600 
    207 H207       -1.6461  -27.6761  -51.2133 H         1 UNK         0.0600 
    208 H208       -1.1463  -25.9970  -51.4021 H         1 UNK         0.0600 
    209 H209       -2.3573  -26.6903  -52.4756 H         1 UNK         0.0600 
    210 H210       -2.6954  -23.8039  -49.5988 H         1 UNK         0.3000 
    211 H211       -3.2439  -21.7145  -50.1209 H         1 UNK         0.0600 
    212 H212       -5.9306  -22.9607  -50.9344 H         1 UNK         0.0600 
    213 H213       -5.6688  -21.2489  -50.6635 H         1 UNK         0.0600 
    214 H214       -5.5015  -22.3820  -49.3375 H         1 UNK         0.0600 
    215 H215       -1.7586  -23.0948  -52.0888 H         1 UNK         0.3000 
    216 H216       -0.9710  -23.0187  -54.1646 H         1 UNK         0.0600 
    217 H217       -1.0729  -20.9179  -55.4401 H         1 UNK         0.0600 
    218 H218       -0.8410  -20.5425  -53.7426 H         1 UNK         0.0600 
    219 H219       -2.4267  -20.3401  -54.4830 H         1 UNK         0.0600 
    220 H220       -3.3139  -24.4922  -53.7157 H         1 UNK         0.3000 
    221 H221       -4.8305  -25.7591  -54.6757 H         1 UNK         0.0600 
    222 H222       -4.1031  -24.6088  -57.4203 H         1 UNK         0.0600 
    223 H223       -3.3308  -26.0039  -56.6674 H         1 UNK         0.0600 
    224 H224       -5.0333  -26.0609  -57.0951 H         1 UNK         0.0600 
    225 H225       -5.6273  -23.7462  -53.3033 H         1 UNK         0.3000 
    226 H226       -7.2709  -22.3746  -52.7151 H         1 UNK         0.0600 
    227 H227       -8.6544  -24.3791  -53.2351 H         1 UNK         0.0600 
    228 H228       -9.5496  -22.8934  -53.5061 H         1 UNK         0.0600 
    229 H229       -8.9115  -23.7909  -54.8771 H         1 UNK         0.0600 
    230 H230       -5.4834  -21.0194  -54.0841 H         1 UNK         0.3000 
    231 H231       -7.0317  -19.0434  -55.7211 H         1 UNK         0.0600 
    232 H232       -5.0482  -18.8272  -57.1829 H         1 UNK         0.0600 
    233 H233       -5.6210  -20.4894  -57.2025 H         1 UNK         0.0600 
    234 H234       -4.1937  -20.0597  -56.2631 H         1 UNK         0.0600 
    235 H235       -4.7235  -19.6017  -53.1028 H         1 UNK         0.3000 
    236 H236       -4.3924  -16.6519  -52.7629 H         1 UNK         0.0600 
    237 H237       -2.2187  -18.7945  -52.4874 H         1 UNK         0.0600 
    238 H238       -2.3381  -17.6388  -53.8118 H         1 UNK         0.0600 
    239 H239       -2.0311  -17.0733  -52.1789 H         1 UNK         0.0600 
    240 H240       -5.2812  -16.1329  -50.9549 H         1 UNK         0.3000 
    241 H241       -6.2337  -16.0519  -49.0371 H         1 UNK         0.0600 
    242 H242       -6.7147  -19.9233  -48.2996 H         1 UNK         0.3800 
    243 H243       -5.6219  -19.3711  -49.5677 H         1 UNK         0.3800 
    244 H244       -4.7268  -15.8948  -47.1264 H         1 UNK         0.0800 
    245 H245       -4.0502  -15.1918  -48.5570 H         1 UNK         0.0800 
    246 H246       -1.3838  -15.4005  -48.6437 H         1 UNK         0.0800 
    247 H247       -2.2226  -16.1511  -49.9779 H         1 UNK         0.0800 
@<TRIPOS>BOND
     1    1    2 1    
     2    1  127 1    
     3    1  128 1    
     4    1  129 1    
     5    2    3 2    
     6    2    4 am   BACKBONE|DICT|INTERRES
     7    4    5 1    
     8    4  130 1    
     9    5    6 1    
    10    5   65 1    
    11    5  131 1    
    12    6    7 1    
    13    6  132 1    
    14    6  133 1    
    15    7    8 1    
    16    8    9 1    
    17    8  134 1    
    18    8  135 1    
    19    9   10 ar   
    20    9   14 ar   
    21   10   11 ar   
    22   10  136 1    
    23   11   12 ar   
    24   11  126 1    
    25   12   13 ar   
    26   12  137 1    
    27   13   14 ar   
    28   13   15 1    
    29   14  138 1    
    30   15   16 1    
    31   15  139 1    
    32   15  140 1    
    33   16   17 1    
    34   17   18 1    
    35   17  141 1    
    36   17  142 1    
    37   18   19 1    
    38   18   67 1    
    39   18  143 1    
    40   19   20 am   BACKBONE|DICT|INTERRES
    41   19  144 1    
    42   20   21 2    
    43   20   22 1    
    44   22   23 1    
    45   22   24 1    
    46   22  145 1    
    47   23  146 1    
    48   23  147 1    
    49   23  148 1    
    50   24   25 am   BACKBONE|DICT|INTERRES
    51   24  149 1    
    52   25   26 2    
    53   25   27 1    
    54   27   28 1    
    55   27   29 1    
    56   27  150 1    
    57   28  151 1    
    58   28  152 1    
    59   28  153 1    
    60   29   30 am   BACKBONE|DICT|INTERRES
    61   29  154 1    
    62   30   31 2    
    63   30   32 1    
    64   32   33 1    
    65   32   34 1    
    66   32  155 1    
    67   33  156 1    
    68   33  157 1    
    69   33  158 1    
    70   34   35 am   BACKBONE|DICT|INTERRES
    71   34  159 1    
    72   35   36 2    
    73   35   37 1    
    74   37   38 1    
    75   37   39 1    
    76   37  160 1    
    77   38  161 1    
    78   38  162 1    
    79   38  163 1    
    80   39   40 am   BACKBONE|DICT|INTERRES
    81   39  164 1    
    82   40   41 2    
    83   40   42 1    
    84   42   43 1    
    85   42   44 1    
    86   42  165 1    
    87   43  166 1    
    88   43  167 1    
    89   43  168 1    
    90   44   45 am   BACKBONE|DICT|INTERRES
    91   44  169 1    
    92   45   46 2    
    93   45   47 1    
    94   47   48 1    
    95   47   49 1    
    96   47  170 1    
    97   48  171 1    
    98   48  172 1    
    99   48  173 1    
   100   49   50 am   BACKBONE|DICT|INTERRES
   101   49  174 1    
   102   50   51 2    
   103   50   52 1    
   104   52   53 1    
   105   52   54 1    
   106   52  175 1    
   107   53  176 1    
   108   53  177 1    
   109   53  178 1    
   110   54   55 am   BACKBONE|DICT|INTERRES
   111   54  179 1    
   112   55   56 2    
   113   55   57 1    
   114   57   58 1    
   115   57   59 1    
   116   57  180 1    
   117   58  181 1    
   118   58  182 1    
   119   58  183 1    
   120   59   60 am   BACKBONE|DICT|INTERRES
   121   59  184 1    
   122   60   61 2    
   123   60   62 1    
   124   62   63 1    
   125   62   64 1    
   126   62  185 1    
   127   63  186 1    
   128   63  187 1    
   129   63  188 1    
   130   64   65 am   BACKBONE|DICT|INTERRES
   131   64  189 1    
   132   65   66 2    
   133   67   68 2    
   134   67   69 am   BACKBONE|DICT|INTERRES
   135   69   70 1    
   136   69  190 1    
   137   70   71 1    
   138   70   72 1    
   139   70  191 1    
   140   71  192 1    
   141   71  193 1    
   142   71  194 1    
   143   72   73 2    
   144   72   74 am   BACKBONE|DICT|INTERRES
   145   74   75 1    
   146   74  195 1    
   147   75   76 1    
   148   75   77 1    
   149   75  196 1    
   150   76  197 1    
   151   76  198 1    
   152   76  199 1    
   153   77   78 2    
   154   77   79 am   BACKBONE|DICT|INTERRES
   155   79   80 1    
   156   79  200 1    
   157   80   81 1    
   158   80   82 1    
   159   80  201 1    
   160   81  202 1    
   161   81  203 1    
   162   81  204 1    
   163   82   83 2    
   164   82   84 am   BACKBONE|DICT|INTERRES
   165   84   85 1    
   166   84  205 1    
   167   85   86 1    
   168   85   87 1    
   169   85  206 1    
   170   86  207 1    
   171   86  208 1    
   172   86  209 1    
   173   87   88 2    
   174   87   89 am   BACKBONE|DICT|INTERRES
   175   89   90 1    
   176   89  210 1    
   177   90   91 1    
   178   90   92 1    
   179   90  211 1    
   180   91  212 1    
   181   91  213 1    
   182   91  214 1    
   183   92   93 2    
   184   92   94 am   BACKBONE|DICT|INTERRES
   185   94   95 1    
   186   94  215 1    
   187   95   96 1    
   188   95   97 1    
   189   95  216 1    
   190   96  217 1    
   191   96  218 1    
   192   96  219 1    
   193   97   98 2    
   194   97   99 am   BACKBONE|DICT|INTERRES
   195   99  100 1    
   196   99  220 1    
   197  100  101 1    
   198  100  102 1    
   199  100  221 1    
   200  101  222 1    
   201  101  223 1    
   202  101  224 1    
   203  102  103 2    
   204  102  104 am   BACKBONE|DICT|INTERRES
   205  104  105 1    
   206  104  225 1    
   207  105  106 1    
   208  105  107 1    
   209  105  226 1    
   210  106  227 1    
   211  106  228 1    
   212  106  229 1    
   213  107  108 2    
   214  107  109 am   BACKBONE|DICT|INTERRES
   215  109  110 1    
   216  109  230 1    
   217  110  111 1    
   218  110  112 1    
   219  110  231 1    
   220  111  232 1    
   221  111  233 1    
   222  111  234 1    
   223  112  113 2    
   224  112  114 am   BACKBONE|DICT|INTERRES
   225  114  115 1    
   226  114  235 1    
   227  115  116 1    
   228  115  117 1    
   229  115  236 1    
   230  116  237 1    
   231  116  238 1    
   232  116  239 1    
   233  117  118 2    
   234  117  119 am   BACKBONE|DICT|INTERRES
   235  119  120 1    
   236  119  240 1    
   237  120  121 1    
   238  120  124 1    
   239  120  241 1    
   240  121  122 am   BACKBONE|DICT|INTERRES
   241  121  123 2    
   242  122  242 1    
   243  122  243 1    
   244  124  125 1    
   245  124  244 1    
   246  124  245 1    
   247  125  126 1    
   248  126  246 1    
   249  126  247 1    
@<TRIPOS>SUBSTRUCTURE
     1 UNK         1 GROUP             0       ****    0 ROOT    
