@<TRIPOS>MOLECULE
3R540
247   249    1
SMALL
USER_CHARGES


@<TRIPOS>ATOM
      1 CA         -0.0193  -14.4719  -53.2072 C.3       0 UNK        -0.1800 
      2 C           0.1062  -13.9466  -51.7835 C.2       0 UNK         0.5000 
      3 O          -0.7043  -14.3080  -50.9311 O.2       0 UNK        -0.5000 
      4 N           1.1285  -13.1139  -51.5403 N.am      1 UNK        -0.5000 
      5 CA          1.4946  -12.4778  -50.2650 C.3       1 UNK         0.1400 
      6 C6          1.7928  -13.4906  -49.1221 C.3       23 UNK        -0.0398 
      7 S7          3.2557  -14.5298  -49.4498 S.3       23 UNK        -0.2404 
      8 C8          2.9145  -15.9730  -48.3892 C.3       23 UNK        -0.0205 
      9 C9          2.4148  -17.1662  -49.1910 C.ar      23 UNK        -0.0193 
     10 C10         1.2136  -17.0939  -49.9019 C.ar      23 UNK        -0.1150 
     11 C11         0.7675  -18.1767  -50.6635 C.ar      23 UNK        -0.0193 
     12 C12         1.5306  -19.3450  -50.7001 C.ar      23 UNK        -0.1150 
     13 C13         2.7126  -19.4487  -49.9617 C.ar      23 UNK        -0.0193 
     14 C14         3.1539  -18.3521  -49.2164 C.ar      23 UNK        -0.1150 
     15 C15         3.5065  -20.7488  -49.9535 C.3       23 UNK        -0.0205 
     16 S16         2.4853  -22.1976  -49.5240 S.3       23 UNK        -0.2404 
     17 C17         1.7066  -21.6415  -47.9689 C.3       23 UNK        -0.0398 
     18 CA          0.9068  -22.7649  -47.2745 C.3       11 UNK         0.1400 
     19 N           0.6656  -22.4619  -45.8634 N.am      11 UNK        -0.5000 
     20 C           0.2337  -23.3569  -44.9650 C.2       10 UNK         0.5000 
     21 O           0.0241  -24.5414  -45.2259 O.2       10 UNK        -0.5000 
     22 CA         -0.0486  -22.8320  -43.5473 C.3       10 UNK         0.1400 
     23 CB          1.2552  -22.7277  -42.7425 C.3       10 UNK        -0.1800 
     24 N          -0.7339  -21.5385  -43.5498 N.am      10 UNK        -0.5000 
     25 C          -1.9646  -21.3374  -44.0430 C.2       9 UNK         0.5000 
     26 O          -2.6604  -22.2308  -44.5236 O.2       9 UNK        -0.5000 
     27 CA         -2.4954  -19.8930  -44.0409 C.3       9 UNK         0.1400 
     28 CB         -3.0234  -19.5097  -42.6513 C.3       9 UNK        -0.1800 
     29 N          -1.5060  -18.9084  -44.4805 N.am      9 UNK        -0.5000 
     30 C          -0.9140  -18.9040  -45.6835 C.2       8 UNK         0.5000 
     31 O          -1.1039  -19.7578  -46.5483 O.2       8 UNK        -0.5000 
     32 CA          0.0927  -17.7740  -45.9472 C.3       8 UNK         0.1400 
     33 CB         -0.6237  -16.4358  -46.1985 C.3       8 UNK        -0.1800 
     34 N           1.0367  -17.6352  -44.8404 N.am      8 UNK        -0.5000 
     35 C           1.9757  -18.5422  -44.5356 C.2       7 UNK         0.5000 
     36 O           2.2070  -19.5461  -45.2104 O.2       7 UNK        -0.5000 
     37 CA          2.7493  -18.3113  -43.2253 C.3       7 UNK         0.1400 
     38 CB          3.9348  -17.3605  -43.4448 C.3       7 UNK        -0.1800 
     39 N           1.8926  -17.7966  -42.1536 N.am      7 UNK        -0.5000 
     40 C           0.9356  -18.5227  -41.5561 C.2       6 UNK         0.5000 
     41 O           0.6830  -19.6893  -41.8527 O.2       6 UNK        -0.5000 
     42 CA          0.0928  -17.8338  -40.4675 C.3       6 UNK         0.1400 
     43 CB          0.7609  -17.9906  -39.0937 C.3       6 UNK        -0.1800 
     44 N          -0.1637  -16.4163  -40.7175 N.am      6 UNK        -0.5000 
     45 C          -0.7812  -15.9099  -41.7931 C.2       5 UNK         0.5000 
     46 O          -1.1908  -16.5946  -42.7320 O.2       5 UNK        -0.5000 
     47 CA         -0.9475  -14.3771  -41.8480 C.3       5 UNK         0.1400 
     48 CB         -0.7440  -13.6762  -40.4861 C.3       5 UNK        -0.1800 
     49 N          -0.0870  -13.7524  -42.8568 N.am      5 UNK        -0.5000 
     50 C           1.2407  -13.8904  -43.0022 C.2       4 UNK         0.5000 
     51 O           1.9335  -14.6642  -42.3393 O.2       4 UNK        -0.5000 
     52 CA          1.9154  -13.0058  -44.0679 C.3       4 UNK         0.1400 
     53 CB          2.1821  -13.8025  -45.3525 C.3       4 UNK        -0.1800 
     54 N           1.1414  -11.8072  -44.4060 N.am      4 UNK        -0.5000 
     55 C           1.0711  -10.7013  -43.6509 C.2       3 UNK         0.5000 
     56 O           1.6427  -10.5917  -42.5649 O.2       3 UNK        -0.5000 
     57 CA          0.2065   -9.5311  -44.1818 C.3       3 UNK         0.1400 
     58 CB          0.8125   -8.1546  -43.8354 C.3       3 UNK        -0.1800 
     59 N          -0.1280   -9.6023  -45.6144 N.am      3 UNK        -0.5000 
     60 C           0.7250   -9.5767  -46.6482 C.2       2 UNK         0.5000 
     61 O           1.9519   -9.5209  -46.5351 O.2       2 UNK        -0.5000 
     62 CA          0.1109   -9.6632  -48.0512 C.3       2 UNK         0.1400 
     63 CB          0.1080   -8.2941  -48.7516 C.3       2 UNK        -0.1800 
     64 N           0.9154  -10.6169  -48.8023 N.am      2 UNK        -0.5000 
     65 C           0.4871  -11.3993  -49.7981 C.2       1 UNK         0.5000 
     66 O          -0.6266  -11.2857  -50.3153 O.2       1 UNK        -0.5000 
     67 C          -0.4083  -23.0929  -48.0143 C.2       11 UNK         0.5000 
     68 O          -0.4585  -24.0725  -48.7588 O.2       11 UNK        -0.5000 
     69 N          -1.4668  -22.3117  -47.7542 N.am      12 UNK        -0.5000 
     70 CA         -2.8069  -22.5385  -48.2931 C.3       12 UNK         0.1400 
     71 CB         -3.7216  -21.3589  -47.9404 C.3       12 UNK        -0.1800 
     72 C          -3.4232  -23.8693  -47.8265 C.2       12 UNK         0.5000 
     73 O          -4.0221  -24.5728  -48.6397 O.2       12 UNK        -0.5000 
     74 N          -3.2274  -24.2102  -46.5448 N.am      13 UNK        -0.5000 
     75 CA         -3.6332  -25.4831  -45.9493 C.3       13 UNK         0.1400 
     76 CB         -3.4650  -25.4201  -44.4240 C.3       13 UNK        -0.1800 
     77 C          -2.8688  -26.6843  -46.5339 C.2       13 UNK         0.5000 
     78 O          -3.4835  -27.7207  -46.7846 O.2       13 UNK        -0.5000 
     79 N          -1.5598  -26.5188  -46.7753 N.am      14 UNK        -0.5000 
     80 CA         -0.7035  -27.5156  -47.4238 C.3       14 UNK         0.1400 
     81 CB          0.7692  -27.0975  -47.2955 C.3       14 UNK        -0.1800 
     82 C          -1.0817  -27.7541  -48.8983 C.2       14 UNK         0.5000 
     83 O          -1.0741  -28.9001  -49.3494 O.2       14 UNK        -0.5000 
     84 N          -1.4400  -26.6761  -49.6103 N.am      15 UNK        -0.5000 
     85 CA         -1.9670  -26.7127  -50.9770 C.3       15 UNK         0.1400 
     86 CB         -1.9170  -25.2951  -51.5680 C.3       15 UNK        -0.1800 
     87 C          -3.3979  -27.2847  -51.0646 C.2       15 UNK         0.5000 
     88 O          -3.8058  -27.7264  -52.1393 O.2       15 UNK        -0.5000 
     89 N          -4.1346  -27.2473  -49.9446 N.am      16 UNK        -0.5000 
     90 CA         -5.5018  -27.7195  -49.6908 C.3       16 UNK         0.1400 
     91 CB         -5.6430  -29.2274  -49.9705 C.3       16 UNK        -0.1800 
     92 C          -6.5910  -26.9050  -50.4122 C.2       16 UNK         0.5000 
     93 O          -7.5510  -26.4729  -49.7740 O.2       16 UNK        -0.5000 
     94 N          -6.4106  -26.6843  -51.7180 N.am      17 UNK        -0.5000 
     95 CA         -7.2639  -25.8540  -52.5707 C.3       17 UNK         0.1400 
     96 CB         -7.2210  -26.4291  -53.9962 C.3       17 UNK        -0.1800 
     97 C          -6.8430  -24.3681  -52.5680 C.2       17 UNK         0.5000 
     98 O          -7.4959  -23.5632  -53.2335 O.2       17 UNK        -0.5000 
     99 N          -5.7637  -24.0503  -51.8357 N.am      18 UNK        -0.5000 
    100 CA        -5.0076  -22.7960  -51.7825 C.3       18 UNK         0.1400 
    101 CB        -5.8923  -21.5777  -51.4694 C.3       18 UNK        -0.1800 
    102 C         -4.1521  -22.5694  -53.0427 C.2       18 UNK         0.5000 
    103 O         -4.5605  -22.9111  -54.1544 O.2       18 UNK        -0.5000 
    104 N         -2.9539  -22.0102  -52.8379 N.am      19 UNK        -0.5000 
    105 CA        -1.9697  -21.7891  -53.8973 C.3       19 UNK         0.1400 
    106 CB        -0.5714  -21.7261  -53.2673 C.3       19 UNK        -0.1800 
    107 C         -2.2529  -20.5249  -54.7297 C.2       19 UNK         0.5000 
    108 O         -1.9553  -20.5149  -55.9248 O.2       19 UNK        -0.5000 
    109 N         -2.8180  -19.4912  -54.0934 N.am      20 UNK        -0.5000 
    110 CA        -3.1580  -18.1989  -54.6858 C.3       20 UNK         0.1400 
    111 CB        -1.8812  -17.4080  -55.0637 C.3       20 UNK        -0.1800 
    112 C         -4.0836  -17.4422  -53.7138 C.2       20 UNK         0.5000 
    113 O         -4.9070  -18.0719  -53.0442 O.2       20 UNK        -0.5000 
    114 N         -3.9136  -16.1139  -53.6209 N.am      21 UNK        -0.5000 
    115 CA        -4.6798  -15.1799  -52.7824 C.3       21 UNK         0.1400 
    116 CB        -4.1968  -13.7492  -53.0689 C.3       21 UNK        -0.1800 
    117 C         -4.6377  -15.4663  -51.2654 C.2       21 UNK         0.5000 
    118 O         -5.4684  -14.9352  -50.5271 O.2       21 UNK        -0.5000 
    119 N         -3.7001  -16.3182  -50.8370 N.am      22 UNK        -0.5000 
    120 CA        -3.6488  -16.9474  -49.5117 C.3       22 UNK         0.1400 
    121 C         -4.8700  -17.8515  -49.1641 C.2       22 UNK         0.5000 
    122 N         -5.6477  -18.3214  -50.1330 N.am      22 UNK        -0.7600 
    123 O         -5.1246  -18.1112  -47.9918 O.2       22 UNK        -0.5000 
    124 C124       -2.3102  -17.7006  -49.3025 C.3       23 UNK        -0.0398 
    125 S125       -1.9107  -18.9139  -50.6152 S.3       23 UNK        -0.2404 
    126 C126       -0.5255  -18.0860  -51.4596 C.3       23 UNK        -0.0205 
    127 H127       -1.0638  -14.4961  -53.5152 H         1 UNK         0.0600 
    128 H128        0.5262  -13.8483  -53.9157 H         1 UNK         0.0600 
    129 H129        0.3794  -15.4844  -53.2668 H         1 UNK         0.0600 
    130 H130        1.7304  -12.8658  -52.3125 H         1 UNK         0.3000 
    131 H131        2.4196  -11.9381  -50.4749 H         1 UNK         0.0600 
    132 H132        0.9232  -14.1156  -48.9199 H         1 UNK         0.0800 
    133 H133        2.0012  -12.9694  -48.1885 H         1 UNK         0.0800 
    134 H134        3.8343  -16.2289  -47.8612 H         1 UNK         0.0800 
    135 H135        2.1890  -15.7224  -47.6169 H         1 UNK         0.0800 
    136 H136        0.6330  -16.1862  -49.8728 H         1 UNK         0.1150 
    137 H137        1.1940  -20.1895  -51.2818 H         1 UNK         0.1150 
    138 H138        4.0733  -18.4230  -48.6523 H         1 UNK         0.1150 
    139 H139        3.9450  -20.9030  -50.9400 H         1 UNK         0.0800 
    140 H140        4.3383  -20.6897  -49.2499 H         1 UNK         0.0800 
    141 H141        1.0725  -20.7726  -48.1556 H         1 UNK         0.0800 
    142 H142        2.5068  -21.2962  -47.3128 H         1 UNK         0.0800 
    143 H143        1.5208  -23.6682  -47.2955 H         1 UNK         0.0600 
    144 H144        0.7989  -21.5015  -45.5745 H         1 UNK         0.3000 
    145 H145       -0.6988  -23.5544  -43.0496 H         1 UNK         0.0600 
    146 H146        1.0560  -22.4587  -41.7051 H         1 UNK         0.0600 
    147 H147        1.7884  -23.6792  -42.7343 H         1 UNK         0.0600 
    148 H148        1.9266  -21.9759  -43.1599 H         1 UNK         0.0600 
    149 H149       -0.2359  -20.7609  -43.1239 H         1 UNK         0.3000 
    150 H150       -3.3299  -19.8477  -44.7436 H         1 UNK         0.0600 
    151 H151       -3.8140  -20.1907  -42.3339 H         1 UNK         0.0600 
    152 H152       -3.4402  -18.5023  -42.6496 H         1 UNK         0.0600 
    153 H153       -2.2362  -19.5492  -41.8994 H         1 UNK         0.0600 
    154 H154       -1.3035  -18.1491  -43.8355 H         1 UNK         0.3000 
    155 H155        0.6473  -18.0369  -46.8510 H         1 UNK         0.0600 
    156 H156       -1.5068  -16.5639  -46.8226 H         1 UNK         0.0600 
    157 H157        0.0275  -15.7347  -46.7155 H         1 UNK         0.0600 
    158 H158       -0.9555  -15.9665  -45.2729 H         1 UNK         0.0600 
    159 H159        0.8686  -16.8830  -44.1884 H         1 UNK         0.3000 
    160 H160        3.1488  -19.2766  -42.9063 H         1 UNK         0.0600 
    161 H161        4.5881  -17.7268  -44.2377 H         1 UNK         0.0600 
    162 H162        4.5384  -17.2707  -42.5415 H         1 UNK         0.0600 
    163 H163        3.6058  -16.3609  -43.7255 H         1 UNK         0.0600 
    164 H164        2.0075  -16.8227  -41.8964 H         1 UNK         0.3000 
    165 H165       -0.8740  -18.3378  -40.4310 H         1 UNK         0.0600 
    166 H166        0.1287  -17.5939  -38.2991 H         1 UNK         0.0600 
    167 H167        0.9447  -19.0416  -38.8665 H         1 UNK         0.0600 
    168 H168        1.7200  -17.4727  -39.0513 H         1 UNK         0.0600 
    169 H169        0.1700  -15.7706  -40.0171 H         1 UNK         0.3000 
    170 H170       -1.9771  -14.1974  -42.1604 H         1 UNK         0.0600 
    171 H171       -1.3953  -14.1004  -39.7207 H         1 UNK         0.0600 
    172 H172        0.2851  -13.7508  -40.1324 H         1 UNK         0.0600 
    173 H173       -0.9862  -12.6158  -40.5581 H         1 UNK         0.0600 
    174 H174       -0.5529  -13.1137  -43.4842 H         1 UNK         0.3000 
    175 H175        2.8798  -12.6961  -43.6595 H         1 UNK         0.0600 
    176 H176        1.2606  -13.9993  -45.8978 H         1 UNK         0.0600 
    177 H177        2.8551  -13.2551  -46.0120 H         1 UNK         0.0600 
    178 H178        2.6535  -14.7620  -45.1409 H         1 UNK         0.0600 
    179 H179        0.6480  -11.8135  -45.2855 H         1 UNK         0.3000 
    180 H180       -0.7435   -9.6083  -43.6512 H         1 UNK         0.0600 
    181 H181        1.8033   -8.0264  -44.2722 H         1 UNK         0.0600 
    182 H182        0.9136   -8.0290  -42.7567 H         1 UNK         0.0600 
    183 H183        0.1797   -7.3432  -44.1950 H         1 UNK         0.0600 
    184 H184       -1.1166   -9.6667  -45.8165 H         1 UNK         0.3000 
    185 H185       -0.9140  -10.0325  -47.9715 H         1 UNK         0.0600 
    186 H186       -0.4767   -7.5681  -48.1853 H         1 UNK         0.0600 
    187 H187        1.1174   -7.8945  -48.8574 H         1 UNK         0.0600 
    188 H188       -0.3314   -8.3608  -49.7470 H         1 UNK         0.0600 
    189 H189        1.8492  -10.7350  -48.4284 H         1 UNK         0.3000 
    190 H190       -1.3456  -21.4915  -47.1637 H         1 UNK         0.3000 
    191 H191       -2.7085  -22.5777  -49.3782 H         1 UNK         0.0600 
    192 H192       -3.8380  -21.2451  -46.8626 H         1 UNK         0.0600 
    193 H193       -4.7160  -21.4901  -48.3687 H         1 UNK         0.0600 
    194 H194       -3.3221  -20.4248  -48.3311 H         1 UNK         0.0600 
    195 H195       -2.7821  -23.5405  -45.9230 H         1 UNK         0.3000 
    196 H196       -4.6935  -25.6285  -46.1666 H         1 UNK         0.0600 
    197 H197       -2.4285  -25.2374  -44.1397 H         1 UNK         0.0600 
    198 H198       -3.7745  -26.3560  -43.9571 H         1 UNK         0.0600 
    199 H199       -4.0743  -24.6252  -43.9936 H         1 UNK         0.0600 
    200 H200       -1.1127  -25.6551  -46.4850 H         1 UNK         0.3000 
    201 H201       -0.8319  -28.4611  -46.8928 H         1 UNK         0.0600 
    202 H202        1.0600  -26.9959  -46.2499 H         1 UNK         0.0600 
    203 H203        0.9647  -26.1464  -47.7905 H         1 UNK         0.0600 
    204 H204        1.4266  -27.8425  -47.7452 H         1 UNK         0.0600 
    205 H205       -1.3320  -25.7580  -49.1874 H         1 UNK         0.3000 
    206 H206       -1.3204  -27.3558  -51.5773 H         1 UNK         0.0600 
    207 H207       -0.8950  -24.9167  -51.5948 H         1 UNK         0.0600 
    208 H208       -2.2972  -25.2784  -52.5904 H         1 UNK         0.0600 
    209 H209       -2.5129  -24.5968  -50.9817 H         1 UNK         0.0600 
    210 H210       -3.7099  -26.7822  -49.1523 H         1 UNK         0.3000 
    211 H211       -5.6624  -27.5727  -48.6216 H         1 UNK         0.0600 
    212 H212       -5.5124  -29.4640  -51.0266 H         1 UNK         0.0600 
    213 H213       -6.6308  -29.5849  -49.6775 H         1 UNK         0.0600 
    214 H214       -4.9084  -29.8007  -49.4047 H         1 UNK         0.0600 
    215 H215       -5.5760  -27.0789  -52.1455 H         1 UNK         0.3000 
    216 H216       -8.2945  -25.9035  -52.2133 H         1 UNK         0.0600 
    217 H217       -7.8795  -25.8735  -54.6651 H         1 UNK         0.0600 
    218 H218       -7.5476  -27.4691  -54.0118 H         1 UNK         0.0600 
    219 H219       -6.2147  -26.3865  -54.4150 H         1 UNK         0.0600 
    220 H220       -5.3457  -24.8120  -51.3214 H         1 UNK         0.3000 
    221 H221       -4.3266  -22.9214  -50.9427 H         1 UNK         0.0600 
    222 H222       -6.5655  -21.3326  -52.2908 H         1 UNK         0.0600 
    223 H223       -6.4906  -21.7395  -50.5729 H         1 UNK         0.0600 
    224 H224       -5.2697  -20.7010  -51.2953 H         1 UNK         0.0600 
    225 H225       -2.6798  -21.7355  -51.9061 H         1 UNK         0.3000 
    226 H226       -1.9860  -22.6418  -54.5800 H         1 UNK         0.0600 
    227 H227       -0.3123  -22.6690  -52.7854 H         1 UNK         0.0600 
    228 H228        0.1928  -21.5229  -54.0186 H         1 UNK         0.0600 
    229 H229       -0.5141  -20.9421  -52.5154 H         1 UNK         0.0600 
    230 H230       -3.0998  -19.6027  -53.1286 H         1 UNK         0.3000 
    231 H231       -3.7372  -18.3825  -55.5926 H         1 UNK         0.0600 
    232 H232       -2.1246  -16.4843  -55.5896 H         1 UNK         0.0600 
    233 H233       -1.2355  -17.9765  -55.7321 H         1 UNK         0.0600 
    234 H234       -1.2924  -17.1476  -54.1851 H         1 UNK         0.0600 
    235 H235       -3.2058  -15.6926  -54.2041 H         1 UNK         0.3000 
    236 H236       -5.7246  -15.2554  -53.0898 H         1 UNK         0.0600 
    237 H237       -4.8029  -13.0182  -52.5321 H         1 UNK         0.0600 
    238 H238       -3.1623  -13.6045  -52.7559 H         1 UNK         0.0600 
    239 H239       -4.2674  -13.5093  -54.1300 H         1 UNK         0.0600 
    240 H240       -3.0670  -16.7008  -51.5208 H         1 UNK         0.3000 
    241 H241       -3.6746  -16.1337  -48.7845 H         1 UNK         0.0600 
    242 H242       -6.4458  -18.8855  -49.8931 H         1 UNK         0.3800 
    243 H243       -5.4317  -18.1406  -51.1077 H         1 UNK         0.3800 
    244 H244       -1.5063  -16.9694  -49.2320 H         1 UNK         0.0800 
    245 H245       -2.3093  -18.2232  -48.3464 H         1 UNK         0.0800 
    246 H246       -0.3769  -18.5489  -52.4354 H         1 UNK         0.0800 
    247 H247       -0.7855  -17.0451  -51.6539 H         1 UNK         0.0800 
@<TRIPOS>BOND
     1    1    2 1    
     2    1  127 1    
     3    1  128 1    
     4    1  129 1    
     5    2    3 2    
     6    2    4 am   BACKBONE|DICT|INTERRES
     7    4    5 1    
     8    4  130 1    
     9    5    6 1    
    10    5   65 1    
    11    5  131 1    
    12    6    7 1    
    13    6  132 1    
    14    6  133 1    
    15    7    8 1    
    16    8    9 1    
    17    8  134 1    
    18    8  135 1    
    19    9   10 ar   
    20    9   14 ar   
    21   10   11 ar   
    22   10  136 1    
    23   11   12 ar   
    24   11  126 1    
    25   12   13 ar   
    26   12  137 1    
    27   13   14 ar   
    28   13   15 1    
    29   14  138 1    
    30   15   16 1    
    31   15  139 1    
    32   15  140 1    
    33   16   17 1    
    34   17   18 1    
    35   17  141 1    
    36   17  142 1    
    37   18   19 1    
    38   18   67 1    
    39   18  143 1    
    40   19   20 am   BACKBONE|DICT|INTERRES
    41   19  144 1    
    42   20   21 2    
    43   20   22 1    
    44   22   23 1    
    45   22   24 1    
    46   22  145 1    
    47   23  146 1    
    48   23  147 1    
    49   23  148 1    
    50   24   25 am   BACKBONE|DICT|INTERRES
    51   24  149 1    
    52   25   26 2    
    53   25   27 1    
    54   27   28 1    
    55   27   29 1    
    56   27  150 1    
    57   28  151 1    
    58   28  152 1    
    59   28  153 1    
    60   29   30 am   BACKBONE|DICT|INTERRES
    61   29  154 1    
    62   30   31 2    
    63   30   32 1    
    64   32   33 1    
    65   32   34 1    
    66   32  155 1    
    67   33  156 1    
    68   33  157 1    
    69   33  158 1    
    70   34   35 am   BACKBONE|DICT|INTERRES
    71   34  159 1    
    72   35   36 2    
    73   35   37 1    
    74   37   38 1    
    75   37   39 1    
    76   37  160 1    
    77   38  161 1    
    78   38  162 1    
    79   38  163 1    
    80   39   40 am   BACKBONE|DICT|INTERRES
    81   39  164 1    
    82   40   41 2    
    83   40   42 1    
    84   42   43 1    
    85   42   44 1    
    86   42  165 1    
    87   43  166 1    
    88   43  167 1    
    89   43  168 1    
    90   44   45 am   BACKBONE|DICT|INTERRES
    91   44  169 1    
    92   45   46 2    
    93   45   47 1    
    94   47   48 1    
    95   47   49 1    
    96   47  170 1    
    97   48  171 1    
    98   48  172 1    
    99   48  173 1    
   100   49   50 am   BACKBONE|DICT|INTERRES
   101   49  174 1    
   102   50   51 2    
   103   50   52 1    
   104   52   53 1    
   105   52   54 1    
   106   52  175 1    
   107   53  176 1    
   108   53  177 1    
   109   53  178 1    
   110   54   55 am   BACKBONE|DICT|INTERRES
   111   54  179 1    
   112   55   56 2    
   113   55   57 1    
   114   57   58 1    
   115   57   59 1    
   116   57  180 1    
   117   58  181 1    
   118   58  182 1    
   119   58  183 1    
   120   59   60 am   BACKBONE|DICT|INTERRES
   121   59  184 1    
   122   60   61 2    
   123   60   62 1    
   124   62   63 1    
   125   62   64 1    
   126   62  185 1    
   127   63  186 1    
   128   63  187 1    
   129   63  188 1    
   130   64   65 am   BACKBONE|DICT|INTERRES
   131   64  189 1    
   132   65   66 2    
   133   67   68 2    
   134   67   69 am   BACKBONE|DICT|INTERRES
   135   69   70 1    
   136   69  190 1    
   137   70   71 1    
   138   70   72 1    
   139   70  191 1    
   140   71  192 1    
   141   71  193 1    
   142   71  194 1    
   143   72   73 2    
   144   72   74 am   BACKBONE|DICT|INTERRES
   145   74   75 1    
   146   74  195 1    
   147   75   76 1    
   148   75   77 1    
   149   75  196 1    
   150   76  197 1    
   151   76  198 1    
   152   76  199 1    
   153   77   78 2    
   154   77   79 am   BACKBONE|DICT|INTERRES
   155   79   80 1    
   156   79  200 1    
   157   80   81 1    
   158   80   82 1    
   159   80  201 1    
   160   81  202 1    
   161   81  203 1    
   162   81  204 1    
   163   82   83 2    
   164   82   84 am   BACKBONE|DICT|INTERRES
   165   84   85 1    
   166   84  205 1    
   167   85   86 1    
   168   85   87 1    
   169   85  206 1    
   170   86  207 1    
   171   86  208 1    
   172   86  209 1    
   173   87   88 2    
   174   87   89 am   BACKBONE|DICT|INTERRES
   175   89   90 1    
   176   89  210 1    
   177   90   91 1    
   178   90   92 1    
   179   90  211 1    
   180   91  212 1    
   181   91  213 1    
   182   91  214 1    
   183   92   93 2    
   184   92   94 am   BACKBONE|DICT|INTERRES
   185   94   95 1    
   186   94  215 1    
   187   95   96 1    
   188   95   97 1    
   189   95  216 1    
   190   96  217 1    
   191   96  218 1    
   192   96  219 1    
   193   97   98 2    
   194   97   99 am   BACKBONE|DICT|INTERRES
   195   99  100 1    
   196   99  220 1    
   197  100  101 1    
   198  100  102 1    
   199  100  221 1    
   200  101  222 1    
   201  101  223 1    
   202  101  224 1    
   203  102  103 2    
   204  102  104 am   BACKBONE|DICT|INTERRES
   205  104  105 1    
   206  104  225 1    
   207  105  106 1    
   208  105  107 1    
   209  105  226 1    
   210  106  227 1    
   211  106  228 1    
   212  106  229 1    
   213  107  108 2    
   214  107  109 am   BACKBONE|DICT|INTERRES
   215  109  110 1    
   216  109  230 1    
   217  110  111 1    
   218  110  112 1    
   219  110  231 1    
   220  111  232 1    
   221  111  233 1    
   222  111  234 1    
   223  112  113 2    
   224  112  114 am   BACKBONE|DICT|INTERRES
   225  114  115 1    
   226  114  235 1    
   227  115  116 1    
   228  115  117 1    
   229  115  236 1    
   230  116  237 1    
   231  116  238 1    
   232  116  239 1    
   233  117  118 2    
   234  117  119 am   BACKBONE|DICT|INTERRES
   235  119  120 1    
   236  119  240 1    
   237  120  121 1    
   238  120  124 1    
   239  120  241 1    
   240  121  122 am   BACKBONE|DICT|INTERRES
   241  121  123 2    
   242  122  242 1    
   243  122  243 1    
   244  124  125 1    
   245  124  244 1    
   246  124  245 1    
   247  125  126 1    
   248  126  246 1    
   249  126  247 1    
@<TRIPOS>SUBSTRUCTURE
     1 UNK         1 GROUP             0       ****    0 ROOT    
