@<TRIPOS>MOLECULE
3R540
247   249    1
SMALL
USER_CHARGES


@<TRIPOS>ATOM
      1 CA         -1.7504  -16.2581  -47.8170 C.3       0 UNK        -0.1800 
      2 C          -0.9127  -15.2813  -47.0060 C.2       0 UNK         0.5000 
      3 O          -1.3420  -14.1525  -46.7692 O.2       0 UNK        -0.5000 
      4 N           0.2694  -15.7213  -46.5516 N.am      1 UNK        -0.5000 
      5 CA          1.2508  -14.9401  -45.7782 C.3       1 UNK         0.1400 
      6 C6          2.5406  -15.7465  -45.4886 C.3       23 UNK        -0.0398 
      7 S7          3.3662  -16.3366  -47.0031 S.3       23 UNK        -0.2404 
      8 C8          2.7468  -18.0505  -47.0929 C.3       23 UNK        -0.0205 
      9 C9          2.5040  -18.5190  -48.5224 C.ar      23 UNK        -0.0193 
     10 C10         1.7906  -17.7241  -49.4261 C.ar      23 UNK        -0.1150 
     11 C11         1.5520  -18.1618  -50.7312 C.ar      23 UNK        -0.0193 
     12 C12         2.0061  -19.4233  -51.1256 C.ar      23 UNK        -0.1150 
     13 C13         2.7174  -20.2325  -50.2328 C.ar      23 UNK        -0.0193 
     14 C14         2.9692  -19.7698  -48.9365 C.ar      23 UNK        -0.1150 
     15 C15         3.2353  -21.5940  -50.6816 C.3       23 UNK        -0.0205 
     16 S16         2.7266  -22.9549  -49.5803 S.3       23 UNK        -0.2404 
     17 C17         0.9135  -22.9189  -49.7722 C.3       23 UNK        -0.0398 
     18 CA          0.1885  -23.6390  -48.6119 C.3       11 UNK         0.1400 
     19 N           0.5242  -23.0837  -47.2962 N.am      11 UNK        -0.5000 
     20 C           0.2230  -23.6801  -46.1356 C.2       10 UNK         0.5000 
     21 O          -0.3816  -24.7479  -46.0536 O.2       10 UNK        -0.5000 
     22 CA          0.6330  -22.9475  -44.8485 C.3       10 UNK         0.1400 
     23 CB          2.1066  -23.2216  -44.5139 C.3       10 UNK        -0.1800 
     24 N           0.4106  -21.5017  -44.8827 N.am      10 UNK        -0.5000 
     25 C          -0.7650  -20.8877  -45.0694 C.2       9 UNK         0.5000 
     26 O          -1.7984  -21.4775  -45.3880 O.2       9 UNK        -0.5000 
     27 CA         -0.7782  -19.3641  -44.8112 C.3       9 UNK         0.1400 
     28 CB         -2.1770  -18.7410  -44.9601 C.3       9 UNK        -0.1800 
     29 N          -0.2560  -19.0463  -43.4772 N.am      9 UNK        -0.5000 
     30 C           1.0418  -18.9918  -43.1539 C.2       8 UNK         0.5000 
     31 O           1.9477  -19.1581  -43.9746 O.2       8 UNK        -0.5000 
     32 CA          1.3846  -18.7954  -41.6656 C.3       8 UNK         0.1400 
     33 CB          1.4811  -20.1576  -40.9616 C.3       8 UNK        -0.1800 
     34 N           2.6601  -18.0940  -41.5196 N.am      8 UNK        -0.5000 
     35 C           2.8066  -16.7833  -41.7364 C.2       7 UNK         0.5000 
     36 O           1.8543  -16.0174  -41.9002 O.2       7 UNK        -0.5000 
     37 CA          4.2420  -16.2366  -41.8130 C.3       7 UNK         0.1400 
     38 CB          5.0826  -17.0008  -42.8604 C.3       7 UNK        -0.1800 
     39 N           4.1456  -14.8214  -42.1578 N.am      7 UNK        -0.5000 
     40 C           5.1272  -13.9153  -42.1870 C.2       6 UNK         0.5000 
     41 O           6.2986  -14.1584  -41.8952 O.2       6 UNK        -0.5000 
     42 CA          4.7306  -12.4911  -42.6149 C.3       6 UNK         0.1400 
     43 CB          4.9341  -12.3041  -44.1267 C.3       6 UNK        -0.1800 
     44 N           3.3403  -12.1743  -42.2889 N.am      6 UNK        -0.5000 
     45 C           2.9170  -11.7196  -41.1018 C.2       5 UNK         0.5000 
     46 O           3.6593  -11.5565  -40.1319 O.2       5 UNK        -0.5000 
     47 CA          1.4125  -11.3850  -40.9956 C.3       5 UNK         0.1400 
     48 CB          1.0877  -10.3860  -39.8660 C.3       5 UNK        -0.1800 
     49 N           0.8448  -10.9432  -42.2740 N.am      5 UNK        -0.5000 
     50 C           1.1656   -9.8573  -42.9948 C.2       4 UNK         0.5000 
     51 O           1.9290   -8.9718  -42.6088 O.2       4 UNK        -0.5000 
     52 CA          0.5598   -9.7654  -44.4101 C.3       4 UNK         0.1400 
     53 CB          1.6337  -10.0745  -45.4663 C.3       4 UNK        -0.1800 
     54 N          -0.5565  -10.6936  -44.6001 N.am      4 UNK        -0.5000 
     55 C          -1.8306  -10.4359  -44.2748 C.2       3 UNK         0.5000 
     56 O          -2.2267   -9.3462  -43.8603 O.2       3 UNK        -0.5000 
     57 CA         -2.8209  -11.6089  -44.4059 C.3       3 UNK         0.1400 
     58 CB         -3.4247  -11.6536  -45.8174 C.3       3 UNK        -0.1800 
     59 N          -2.1952  -12.8984  -44.0979 N.am      3 UNK        -0.5000 
     60 C          -1.8350  -13.2792  -42.8616 C.2       2 UNK         0.5000 
     61 O          -2.0474  -12.6031  -41.8555 O.2       2 UNK        -0.5000 
     62 CA         -1.0763  -14.6114  -42.7131 C.3       2 UNK         0.1400 
     63 CB         -2.0346  -15.7387  -42.3020 C.3       2 UNK        -0.1800 
     64 N          -0.3608  -15.0139  -43.9220 N.am      2 UNK        -0.5000 
     65 C           0.6897  -14.3749  -44.4559 C.2       1 UNK         0.5000 
     66 O           1.2022  -13.3681  -43.9635 O.2       1 UNK        -0.5000 
     67 C          -1.3343  -23.6456  -48.8439 C.2       11 UNK         0.5000 
     68 O          -1.8747  -24.6475  -49.3096 O.2       11 UNK        -0.5000 
     69 N          -2.0006  -22.5451  -48.4673 N.am      12 UNK        -0.5000 
     70 CA         -3.4499  -22.3835  -48.5725 C.3       12 UNK         0.1400 
     71 CB         -3.8139  -20.9103  -48.3333 C.3       12 UNK        -0.1800 
     72 C          -4.2226  -23.3048  -47.6115 C.2       12 UNK         0.5000 
     73 O          -5.2989  -23.7876  -47.9622 O.2       12 UNK        -0.5000 
     74 N          -3.6487  -23.5528  -46.4267 N.am      13 UNK        -0.5000 
     75 CA         -4.1489  -24.5279  -45.4601 C.3       13 UNK         0.1400 
     76 CB         -3.4397  -24.3178  -44.1136 C.3       13 UNK        -0.1800 
     77 C          -3.9808  -25.9797  -45.9503 C.2       13 UNK         0.5000 
     78 O          -4.8535  -26.8094  -45.6912 O.2       13 UNK        -0.5000 
     79 N          -2.8693  -26.2602  -46.6456 N.am      14 UNK        -0.5000 
     80 CA         -2.5352  -27.5770  -47.1843 C.3       14 UNK         0.1400 
     81 CB         -1.0461  -27.6249  -47.5604 C.3       14 UNK        -0.1800 
     82 C          -3.4102  -27.9960  -48.3791 C.2       14 UNK         0.5000 
     83 O          -3.7848  -29.1678  -48.4526 O.2       14 UNK        -0.5000 
     84 N          -3.7202  -27.0628  -49.2903 N.am      15 UNK        -0.5000 
     85 CA         -4.5081  -27.3399  -50.4894 C.3       15 UNK         0.1400 
     86 CB         -3.5830  -27.8266  -51.6192 C.3       15 UNK        -0.1800 
     87 C          -5.2958  -26.1035  -50.9367 C.2       15 UNK         0.5000 
     88 O          -4.7402  -25.0057  -51.0014 O.2       15 UNK        -0.5000 
     89 N          -6.5598  -26.3216  -51.3236 N.am      16 UNK        -0.5000 
     90 CA         -7.4497  -25.3002  -51.8823 C.3       16 UNK         0.1400 
     91 CB         -8.8791  -25.8563  -51.9558 C.3       16 UNK        -0.1800 
     92 C          -6.9951  -24.7960  -53.2654 C.2       16 UNK         0.5000 
     93 O          -7.2220  -23.6318  -53.5913 O.2       16 UNK        -0.5000 
     94 N          -6.3241  -25.6611  -54.0395 N.am      17 UNK        -0.5000 
     95 CA         -5.7021  -25.3107  -55.3180 C.3       17 UNK         0.1400 
     96 CB         -5.2289  -26.5902  -56.0235 C.3       17 UNK        -0.1800 
     97 C          -4.5352  -24.3216  -55.1432 C.2       17 UNK         0.5000 
     98 O          -4.3982  -23.3902  -55.9358 O.2       17 UNK        -0.5000 
     99 N          -3.7442  -24.5142  -54.0786 N.am      18 UNK        -0.5000 
    100 CA        -2.6661  -23.6092  -53.6883 C.3       18 UNK         0.1400 
    101 CB        -1.7183  -24.3204  -52.7176 C.3       18 UNK        -0.1800 
    102 C         -3.2029  -22.2972  -53.0907 C.2       18 UNK         0.5000 
    103 O         -2.6193  -21.2444  -53.3434 O.2       18 UNK        -0.5000 
    104 N         -4.3300  -22.3641  -52.3648 N.am      19 UNK        -0.5000 
    105 CA        -5.0683  -21.1936  -51.8817 C.3       19 UNK         0.1400 
    106 CB        -6.2335  -21.6281  -50.9768 C.3       19 UNK        -0.1800 
    107 C         -5.5853  -20.3209  -53.0390 C.2       19 UNK         0.5000 
    108 O         -5.4145  -19.1029  -53.0021 O.2       19 UNK        -0.5000 
    109 N         -6.1649  -20.9647  -54.0619 N.am      20 UNK        -0.5000 
    110 CA        -6.6397  -20.3262  -55.2897 C.3       20 UNK         0.1400 
    111 CB        -7.4367  -21.3441  -56.1194 C.3       20 UNK        -0.1800 
    112 C         -5.5048  -19.7057  -56.1265 C.2       20 UNK         0.5000 
    113 O         -5.6991  -18.6352  -56.7033 O.2       20 UNK        -0.5000 
    114 N         -4.3422  -20.3730  -56.1654 N.am      21 UNK        -0.5000 
    115 CA        -3.1285  -19.8789  -56.8171 C.3       21 UNK         0.1400 
    116 CB        -2.1091  -21.0207  -56.9479 C.3       21 UNK        -0.1800 
    117 C         -2.5127  -18.6747  -56.0793 C.2       21 UNK         0.5000 
    118 O         -2.1134  -17.7073  -56.7291 O.2       21 UNK        -0.5000 
    119 N         -2.4531  -18.7536  -54.7433 N.am      22 UNK        -0.5000 
    120 CA        -2.0011  -17.6733  -53.8562 C.3       22 UNK         0.1400 
    121 C         -2.9640  -16.4491  -53.8525 C.2       22 UNK         0.5000 
    122 N         -4.2695  -16.6481  -53.7261 N.am      22 UNK        -0.7600 
    123 O         -2.5253  -15.3100  -53.9882 O.2       22 UNK        -0.5000 
    124 C124       -1.7066  -18.2175  -52.4321 C.3       23 UNK        -0.0398 
    125 S125       -0.9049  -17.0030  -51.3307 S.3       23 UNK        -0.2404 
    126 C126        0.8563  -17.2388  -51.7208 C.3       23 UNK        -0.0205 
    127 H127       -2.6514  -16.5271  -47.2661 H         1 UNK         0.0600 
    128 H128       -1.2024  -17.1725  -48.0466 H         1 UNK         0.0600 
    129 H129       -2.0524  -15.7979  -48.7574 H         1 UNK         0.0600 
    130 H130        0.5711  -16.6484  -46.8073 H         1 UNK         0.3000 
    131 H131        1.5220  -14.0782  -46.3915 H         1 UNK         0.0600 
    132 H132        3.2620  -15.1256  -44.9559 H         1 UNK         0.0800 
    133 H133        2.3321  -16.5917  -44.8312 H         1 UNK         0.0800 
    134 H134        3.4594  -18.7009  -46.5829 H         1 UNK         0.0800 
    135 H135        1.8099  -18.1443  -46.5481 H         1 UNK         0.0800 
    136 H136        1.4326  -16.7502  -49.1233 H         1 UNK         0.1150 
    137 H137        1.8246  -19.7655  -52.1349 H         1 UNK         0.1150 
    138 H138        3.5228  -20.3924  -48.2476 H         1 UNK         0.1150 
    139 H139        2.9044  -21.8219  -51.6961 H         1 UNK         0.0800 
    140 H140        4.3249  -21.5585  -50.7146 H         1 UNK         0.0800 
    141 H141        0.6754  -23.3942  -50.7242 H         1 UNK         0.0800 
    142 H142        0.5745  -21.8846  -49.8482 H         1 UNK         0.0800 
    143 H143        0.5158  -24.6812  -48.6181 H         1 UNK         0.0600 
    144 H144        1.0374  -22.2149  -47.2824 H         1 UNK         0.3000 
    145 H145        0.0215  -23.3492  -44.0381 H         1 UNK         0.0600 
    146 H146        2.3781  -22.7929  -43.5489 H         1 UNK         0.0600 
    147 H147        2.3028  -24.2933  -44.4595 H         1 UNK         0.0600 
    148 H148        2.7753  -22.8024  -45.2669 H         1 UNK         0.0600 
    149 H149        1.1993  -20.9165  -44.6276 H         1 UNK         0.3000 
    150 H150       -0.1382  -18.9065  -45.5661 H         1 UNK         0.0600 
    151 H151       -2.8874  -19.1694  -44.2520 H         1 UNK         0.0600 
    152 H152       -2.5723  -18.9027  -45.9629 H         1 UNK         0.0600 
    153 H153       -2.1494  -17.6641  -44.7978 H         1 UNK         0.0600 
    154 H154       -0.9440  -18.9652  -42.7424 H         1 UNK         0.3000 
    155 H155        0.5944  -18.2093  -41.1911 H         1 UNK         0.0600 
    156 H156        2.2551  -20.7867  -41.4036 H         1 UNK         0.0600 
    157 H157        0.5384  -20.7022  -41.0300 H         1 UNK         0.0600 
    158 H158        1.7099  -20.0384  -39.9024 H         1 UNK         0.0600 
    159 H159        3.4820  -18.6729  -41.4297 H         1 UNK         0.3000 
    160 H160        4.6996  -16.3304  -40.8267 H         1 UNK         0.0600 
    161 H161        4.6328  -16.9547  -43.8521 H         1 UNK         0.0600 
    162 H162        5.1835  -18.0541  -42.5981 H         1 UNK         0.0600 
    163 H163        6.0936  -16.6022  -42.9371 H         1 UNK         0.0600 
    164 H164        3.1943  -14.5250  -42.3450 H         1 UNK         0.3000 
    165 H165        5.3897  -11.7917  -42.0959 H         1 UNK         0.0600 
    166 H166        5.9602  -12.5348  -44.4157 H         1 UNK         0.0600 
    167 H167        4.2749  -12.9500  -44.7070 H         1 UNK         0.0600 
    168 H168        4.7366  -11.2740  -44.4241 H         1 UNK         0.0600 
    169 H169        2.6480  -12.3365  -43.0132 H         1 UNK         0.3000 
    170 H170        0.9135  -12.3249  -40.7552 H         1 UNK         0.0600 
    171 H171        1.3731  -10.7898  -38.8941 H         1 UNK         0.0600 
    172 H172        1.6161   -9.4410  -39.9938 H         1 UNK         0.0600 
    173 H173        0.0197  -10.1718  -39.8262 H         1 UNK         0.0600 
    174 H174        0.2322  -11.6116  -42.7187 H         1 UNK         0.3000 
    175 H175        0.2145   -8.7404  -44.5604 H         1 UNK         0.0600 
    176 H176        1.2344   -9.9738  -46.4756 H         1 UNK         0.0600 
    177 H177        2.4762   -9.3869  -45.3810 H         1 UNK         0.0600 
    178 H178        2.0259  -11.0867  -45.3601 H         1 UNK         0.0600 
    179 H179       -0.3210  -11.6194  -44.9287 H         1 UNK         0.3000 
    180 H180       -3.6334  -11.4424  -43.6953 H         1 UNK         0.0600 
    181 H181       -2.6574  -11.7855  -46.5810 H         1 UNK         0.0600 
    182 H182       -3.9547  -10.7275  -46.0431 H         1 UNK         0.0600 
    183 H183       -4.1397  -12.4705  -45.9158 H         1 UNK         0.0600 
    184 H184       -1.9659  -13.4910  -44.8891 H         1 UNK         0.3000 
    185 H185       -0.3423  -14.4789  -41.9159 H         1 UNK         0.0600 
    186 H186       -2.5636  -15.4850  -41.3824 H         1 UNK         0.0600 
    187 H187       -2.7849  -15.9305  -43.0698 H         1 UNK         0.0600 
    188 H188       -1.4932  -16.6660  -42.1170 H         1 UNK         0.0600 
    189 H189       -0.7126  -15.8261  -44.4040 H         1 UNK         0.3000 
    190 H190       -1.4923  -21.7941  -48.0252 H         1 UNK         0.3000 
    191 H191       -3.7341  -22.6539  -49.5901 H         1 UNK         0.0600 
    192 H192       -3.3007  -20.2544  -49.0367 H         1 UNK         0.0600 
    193 H193       -4.8850  -20.7477  -48.4555 H         1 UNK         0.0600 
    194 H194       -3.5517  -20.5931  -47.3244 H         1 UNK         0.0600 
    195 H195       -2.8037  -23.0487  -46.1784 H         1 UNK         0.3000 
    196 H196       -5.2156  -24.3458  -45.3132 H         1 UNK         0.0600 
    197 H197       -3.8235  -25.0055  -43.3592 H         1 UNK         0.0600 
    198 H198       -3.5938  -23.3049  -43.7409 H         1 UNK         0.0600 
    199 H199       -2.3652  -24.4838  -44.1928 H         1 UNK         0.0600 
    200 H200       -2.1724  -25.5338  -46.7648 H         1 UNK         0.3000 
    201 H201       -2.6962  -28.3094  -46.3903 H         1 UNK         0.0600 
    202 H202       -0.7720  -28.6083  -47.9444 H         1 UNK         0.0600 
    203 H203       -0.7988  -26.8934  -48.3293 H         1 UNK         0.0600 
    204 H204       -0.4141  -27.4284  -46.6944 H         1 UNK         0.0600 
    205 H205       -3.3659  -26.1146  -49.1956 H         1 UNK         0.3000 
    206 H206       -5.2309  -28.1287  -50.2695 H         1 UNK         0.0600 
    207 H207       -3.0912  -28.7617  -51.3510 H         1 UNK         0.0600 
    208 H208       -4.1421  -28.0078  -52.5380 H         1 UNK         0.0600 
    209 H209       -2.8058  -27.0953  -51.8432 H         1 UNK         0.0600 
    210 H210       -6.9416  -27.2538  -51.2493 H         1 UNK         0.3000 
    211 H211       -7.4504  -24.4468  -51.2015 H         1 UNK         0.0600 
    212 H212       -8.9400  -26.7293  -52.6069 H         1 UNK         0.0600 
    213 H213       -9.5693  -25.1069  -52.3461 H         1 UNK         0.0600 
    214 H214       -9.2409  -26.1461  -50.9691 H         1 UNK         0.0600 
    215 H215       -6.1955  -26.6057  -53.7094 H         1 UNK         0.3000 
    216 H216       -6.4562  -24.8308  -55.9456 H         1 UNK         0.0600 
    217 H217       -4.7732  -26.3579  -56.9870 H         1 UNK         0.0600 
    218 H218       -6.0626  -27.2661  -56.2143 H         1 UNK         0.0600 
    219 H219       -4.4881  -27.1290  -55.4312 H         1 UNK         0.0600 
    220 H220       -3.9496  -25.2739  -53.4476 H         1 UNK         0.3000 
    221 H221       -2.0925  -23.3541  -54.5815 H         1 UNK         0.0600 
    222 H222       -2.2419  -24.6543  -51.8243 H         1 UNK         0.0600 
    223 H223       -1.2583  -25.1928  -53.1816 H         1 UNK         0.0600 
    224 H224       -0.9149  -23.6546  -52.4044 H         1 UNK         0.0600 
    225 H225       -4.7065  -23.2772  -52.1361 H         1 UNK         0.3000 
    226 H226       -4.3766  -20.5938  -51.2875 H         1 UNK         0.0600 
    227 H227       -6.6276  -20.7741  -50.4252 H         1 UNK         0.0600 
    228 H228       -7.0615  -22.0470  -51.5466 H         1 UNK         0.0600 
    229 H229       -5.9292  -22.3759  -50.2469 H         1 UNK         0.0600 
    230 H230       -6.3229  -21.9651  -53.9800 H         1 UNK         0.3000 
    231 H231       -7.3168  -19.5190  -55.0026 H         1 UNK         0.0600 
    232 H232       -6.8200  -22.1920  -56.4180 H         1 UNK         0.0600 
    233 H233       -7.8288  -20.8862  -57.0283 H         1 UNK         0.0600 
    234 H234       -8.2865  -21.7315  -55.5570 H         1 UNK         0.0600 
    235 H235       -4.2889  -21.2845  -55.7262 H         1 UNK         0.3000 
    236 H236       -3.3964  -19.5522  -57.8241 H         1 UNK         0.0600 
    237 H237       -2.5259  -21.8607  -57.5039 H         1 UNK         0.0600 
    238 H238       -1.2180  -20.6872  -57.4809 H         1 UNK         0.0600 
    239 H239       -1.7883  -21.3894  -55.9740 H         1 UNK         0.0600 
    240 H240       -2.7521  -19.6117  -54.2884 H         1 UNK         0.3000 
    241 H241       -1.0515  -17.3199  -54.2628 H         1 UNK         0.0600 
    242 H242       -4.6484  -17.5804  -53.5651 H         1 UNK         0.3800 
    243 H243       -4.8924  -15.8571  -53.7374 H         1 UNK         0.3800 
    244 H244       -1.0677  -19.1000  -52.4911 H         1 UNK         0.0800 
    245 H245       -2.6312  -18.5519  -51.9587 H         1 UNK         0.0800 
    246 H246        1.3477  -16.2652  -51.6926 H         1 UNK         0.0800 
    247 H247        0.9711  -17.6014  -52.7433 H         1 UNK         0.0800 
@<TRIPOS>BOND
     1    1    2 1    
     2    1  127 1    
     3    1  128 1    
     4    1  129 1    
     5    2    3 2    
     6    2    4 am   BACKBONE|DICT|INTERRES
     7    4    5 1    
     8    4  130 1    
     9    5    6 1    
    10    5   65 1    
    11    5  131 1    
    12    6    7 1    
    13    6  132 1    
    14    6  133 1    
    15    7    8 1    
    16    8    9 1    
    17    8  134 1    
    18    8  135 1    
    19    9   10 ar   
    20    9   14 ar   
    21   10   11 ar   
    22   10  136 1    
    23   11   12 ar   
    24   11  126 1    
    25   12   13 ar   
    26   12  137 1    
    27   13   14 ar   
    28   13   15 1    
    29   14  138 1    
    30   15   16 1    
    31   15  139 1    
    32   15  140 1    
    33   16   17 1    
    34   17   18 1    
    35   17  141 1    
    36   17  142 1    
    37   18   19 1    
    38   18   67 1    
    39   18  143 1    
    40   19   20 am   BACKBONE|DICT|INTERRES
    41   19  144 1    
    42   20   21 2    
    43   20   22 1    
    44   22   23 1    
    45   22   24 1    
    46   22  145 1    
    47   23  146 1    
    48   23  147 1    
    49   23  148 1    
    50   24   25 am   BACKBONE|DICT|INTERRES
    51   24  149 1    
    52   25   26 2    
    53   25   27 1    
    54   27   28 1    
    55   27   29 1    
    56   27  150 1    
    57   28  151 1    
    58   28  152 1    
    59   28  153 1    
    60   29   30 am   BACKBONE|DICT|INTERRES
    61   29  154 1    
    62   30   31 2    
    63   30   32 1    
    64   32   33 1    
    65   32   34 1    
    66   32  155 1    
    67   33  156 1    
    68   33  157 1    
    69   33  158 1    
    70   34   35 am   BACKBONE|DICT|INTERRES
    71   34  159 1    
    72   35   36 2    
    73   35   37 1    
    74   37   38 1    
    75   37   39 1    
    76   37  160 1    
    77   38  161 1    
    78   38  162 1    
    79   38  163 1    
    80   39   40 am   BACKBONE|DICT|INTERRES
    81   39  164 1    
    82   40   41 2    
    83   40   42 1    
    84   42   43 1    
    85   42   44 1    
    86   42  165 1    
    87   43  166 1    
    88   43  167 1    
    89   43  168 1    
    90   44   45 am   BACKBONE|DICT|INTERRES
    91   44  169 1    
    92   45   46 2    
    93   45   47 1    
    94   47   48 1    
    95   47   49 1    
    96   47  170 1    
    97   48  171 1    
    98   48  172 1    
    99   48  173 1    
   100   49   50 am   BACKBONE|DICT|INTERRES
   101   49  174 1    
   102   50   51 2    
   103   50   52 1    
   104   52   53 1    
   105   52   54 1    
   106   52  175 1    
   107   53  176 1    
   108   53  177 1    
   109   53  178 1    
   110   54   55 am   BACKBONE|DICT|INTERRES
   111   54  179 1    
   112   55   56 2    
   113   55   57 1    
   114   57   58 1    
   115   57   59 1    
   116   57  180 1    
   117   58  181 1    
   118   58  182 1    
   119   58  183 1    
   120   59   60 am   BACKBONE|DICT|INTERRES
   121   59  184 1    
   122   60   61 2    
   123   60   62 1    
   124   62   63 1    
   125   62   64 1    
   126   62  185 1    
   127   63  186 1    
   128   63  187 1    
   129   63  188 1    
   130   64   65 am   BACKBONE|DICT|INTERRES
   131   64  189 1    
   132   65   66 2    
   133   67   68 2    
   134   67   69 am   BACKBONE|DICT|INTERRES
   135   69   70 1    
   136   69  190 1    
   137   70   71 1    
   138   70   72 1    
   139   70  191 1    
   140   71  192 1    
   141   71  193 1    
   142   71  194 1    
   143   72   73 2    
   144   72   74 am   BACKBONE|DICT|INTERRES
   145   74   75 1    
   146   74  195 1    
   147   75   76 1    
   148   75   77 1    
   149   75  196 1    
   150   76  197 1    
   151   76  198 1    
   152   76  199 1    
   153   77   78 2    
   154   77   79 am   BACKBONE|DICT|INTERRES
   155   79   80 1    
   156   79  200 1    
   157   80   81 1    
   158   80   82 1    
   159   80  201 1    
   160   81  202 1    
   161   81  203 1    
   162   81  204 1    
   163   82   83 2    
   164   82   84 am   BACKBONE|DICT|INTERRES
   165   84   85 1    
   166   84  205 1    
   167   85   86 1    
   168   85   87 1    
   169   85  206 1    
   170   86  207 1    
   171   86  208 1    
   172   86  209 1    
   173   87   88 2    
   174   87   89 am   BACKBONE|DICT|INTERRES
   175   89   90 1    
   176   89  210 1    
   177   90   91 1    
   178   90   92 1    
   179   90  211 1    
   180   91  212 1    
   181   91  213 1    
   182   91  214 1    
   183   92   93 2    
   184   92   94 am   BACKBONE|DICT|INTERRES
   185   94   95 1    
   186   94  215 1    
   187   95   96 1    
   188   95   97 1    
   189   95  216 1    
   190   96  217 1    
   191   96  218 1    
   192   96  219 1    
   193   97   98 2    
   194   97   99 am   BACKBONE|DICT|INTERRES
   195   99  100 1    
   196   99  220 1    
   197  100  101 1    
   198  100  102 1    
   199  100  221 1    
   200  101  222 1    
   201  101  223 1    
   202  101  224 1    
   203  102  103 2    
   204  102  104 am   BACKBONE|DICT|INTERRES
   205  104  105 1    
   206  104  225 1    
   207  105  106 1    
   208  105  107 1    
   209  105  226 1    
   210  106  227 1    
   211  106  228 1    
   212  106  229 1    
   213  107  108 2    
   214  107  109 am   BACKBONE|DICT|INTERRES
   215  109  110 1    
   216  109  230 1    
   217  110  111 1    
   218  110  112 1    
   219  110  231 1    
   220  111  232 1    
   221  111  233 1    
   222  111  234 1    
   223  112  113 2    
   224  112  114 am   BACKBONE|DICT|INTERRES
   225  114  115 1    
   226  114  235 1    
   227  115  116 1    
   228  115  117 1    
   229  115  236 1    
   230  116  237 1    
   231  116  238 1    
   232  116  239 1    
   233  117  118 2    
   234  117  119 am   BACKBONE|DICT|INTERRES
   235  119  120 1    
   236  119  240 1    
   237  120  121 1    
   238  120  124 1    
   239  120  241 1    
   240  121  122 am   BACKBONE|DICT|INTERRES
   241  121  123 2    
   242  122  242 1    
   243  122  243 1    
   244  124  125 1    
   245  124  244 1    
   246  124  245 1    
   247  125  126 1    
   248  126  246 1    
   249  126  247 1    
@<TRIPOS>SUBSTRUCTURE
     1 UNK         1 GROUP             0       ****    0 ROOT    
