@<TRIPOS>MOLECULE
3R540
247   249    1
SMALL
USER_CHARGES


@<TRIPOS>ATOM
      1 CA          5.1924  -16.2292  -47.1590 C.3       0 UNK        -0.1800 
      2 C           3.8098  -15.7359  -46.7619 C.2       0 UNK         0.5000 
      3 O           3.4536  -15.7874  -45.5850 O.2       0 UNK        -0.5000 
      4 N           3.0348  -15.2360  -47.7323 N.am      1 UNK        -0.5000 
      5 CA          1.6656  -14.7281  -47.5690 C.3       1 UNK         0.1400 
      6 C6          0.8692  -14.7671  -48.9015 C.3       23 UNK        -0.0398 
      7 S7          0.6725  -16.4660  -49.5350 S.3       23 UNK        -0.2404 
      8 C8          1.7893  -16.4855  -50.9631 C.3       23 UNK        -0.0205 
      9 C9          2.2330  -17.9074  -51.2565 C.ar      23 UNK        -0.0193 
     10 C10         1.5428  -18.6967  -52.1816 C.ar      23 UNK        -0.1150 
     11 C11         1.9727  -19.9970  -52.4604 C.ar      23 UNK        -0.0193 
     12 C12         3.0817  -20.5122  -51.7802 C.ar      23 UNK        -0.1150 
     13 C13         3.7747  -19.7394  -50.8415 C.ar      23 UNK        -0.0193 
     14 C14         3.3480  -18.4303  -50.5967 C.ar      23 UNK        -0.1150 
     15 C15         5.0111  -20.3281  -50.1614 C.3       23 UNK        -0.0205 
     16 S16         5.3961  -19.6934  -48.4862 S.3       23 UNK        -0.2404 
     17 C17         3.8882  -20.0502  -47.5194 C.3       23 UNK        -0.0398 
     18 CA          3.8531  -21.4885  -46.9365 C.3       11 UNK         0.1400 
     19 N           3.0688  -21.5604  -45.7012 N.am      11 UNK        -0.5000 
     20 C           3.1050  -22.5842  -44.8369 C.2       10 UNK         0.5000 
     21 O           3.8881  -23.5297  -44.9309 O.2       10 UNK        -0.5000 
     22 CA          2.0844  -22.5659  -43.6825 C.3       10 UNK         0.1400 
     23 CB          2.6617  -21.8342  -42.4617 C.3       10 UNK        -0.1800 
     24 N           0.8025  -21.9624  -44.0490 N.am      10 UNK        -0.5000 
     25 C          -0.0470  -22.4627  -44.9584 C.2       9 UNK         0.5000 
     26 O           0.1444  -23.5121  -45.5744 O.2       9 UNK        -0.5000 
     27 CA         -1.2948  -21.6181  -45.2707 C.3       9 UNK         0.1400 
     28 CB         -2.3722  -21.8197  -44.1945 C.3       9 UNK        -0.1800 
     29 N          -1.0048  -20.1913  -45.4047 N.am      9 UNK        -0.5000 
     30 C          -0.1436  -19.6555  -46.2804 C.2       8 UNK         0.5000 
     31 O           0.5236  -20.3082  -47.0802 O.2       8 UNK        -0.5000 
     32 CA          0.0309  -18.1320  -46.2265 C.3       8 UNK         0.1400 
     33 CB         -1.1899  -17.4511  -46.8443 C.3       8 UNK        -0.1800 
     34 N           0.2183  -17.6339  -44.8697 N.am      8 UNK        -0.5000 
     35 C           1.2387  -17.9665  -44.0693 C.2       7 UNK         0.5000 
     36 O           2.1742  -18.6940  -44.4069 O.2       7 UNK        -0.5000 
     37 CA          1.1484  -17.4519  -42.6223 C.3       7 UNK         0.1400 
     38 CB          1.4900  -15.9567  -42.5372 C.3       7 UNK        -0.1800 
     39 N          -0.1733  -17.6944  -42.0343 N.am      7 UNK        -0.5000 
     40 C          -0.6636  -18.9171  -41.7850 C.2       6 UNK         0.5000 
     41 O          -0.0579  -19.9598  -42.0337 O.2       6 UNK        -0.5000 
     42 CA         -2.0667  -19.0002  -41.1568 C.3       6 UNK         0.1400 
     43 CB         -1.9862  -18.7820  -39.6382 C.3       6 UNK        -0.1800 
     44 N          -3.0689  -18.0904  -41.7197 N.am      6 UNK        -0.5000 
     45 C          -3.4406  -18.0199  -43.0064 C.2       5 UNK         0.5000 
     46 O          -2.8478  -18.5972  -43.9167 O.2       5 UNK        -0.5000 
     47 CA         -4.7030  -17.1937  -43.3321 C.3       5 UNK         0.1400 
     48 CB         -5.4794  -16.7125  -42.0890 C.3       5 UNK        -0.1800 
     49 N          -4.3475  -16.0308  -44.1353 N.am      5 UNK        -0.5000 
     50 C          -4.3209  -15.9801  -45.4727 C.2       4 UNK         0.5000 
     51 O          -4.6841  -16.8986  -46.2091 O.2       4 UNK        -0.5000 
     52 CA         -3.8086  -14.6710  -46.1083 C.3       4 UNK         0.1400 
     53 CB         -4.9558  -13.9245  -46.8066 C.3       4 UNK        -0.1800 
     54 N          -3.1404  -13.7527  -45.1776 N.am      4 UNK        -0.5000 
     55 C          -1.9475  -13.9753  -44.6137 C.2       3 UNK         0.5000 
     56 O          -1.3148  -15.0279  -44.7312 O.2       3 UNK        -0.5000 
     57 CA         -1.3518  -12.8406  -43.7743 C.3       3 UNK         0.1400 
     58 CB         -1.5651  -13.0897  -42.2729 C.3       3 UNK        -0.1800 
     59 N           0.0690  -12.8309  -44.0778 N.am      3 UNK        -0.5000 
     60 C           0.8446  -11.7588  -44.2582 C.2       2 UNK         0.5000 
     61 O           0.4968  -10.6040  -44.0093 O.2       2 UNK        -0.5000 
     62 CA          2.2384  -12.0341  -44.8571 C.3       2 UNK         0.1400 
     63 CB          3.2790  -12.2161  -43.7419 C.3       2 UNK        -0.1800 
     64 N           2.2511  -13.2216  -45.7176 N.am      2 UNK        -0.5000 
     65 C           1.6420  -13.3298  -46.9064 C.2       1 UNK         0.5000 
     66 O           1.0794  -12.3860  -47.4636 O.2       1 UNK        -0.5000 
     67 C           3.3103  -22.4890  -47.9755 C.2       11 UNK         0.5000 
     68 O           4.0639  -23.3049  -48.5077 O.2       11 UNK        -0.5000 
     69 N           2.0050  -22.3804  -48.2449 N.am      12 UNK        -0.5000 
     70 CA          1.2911  -23.0783  -49.3056 C.3       12 UNK         0.1400 
     71 CB         -0.1178  -22.4754  -49.4010 C.3       12 UNK        -0.1800 
     72 C           1.1844  -24.5978  -49.1123 C.2       12 UNK         0.5000 
     73 O           1.1752  -25.3272  -50.1044 O.2       12 UNK        -0.5000 
     74 N           1.0389  -25.0313  -47.8502 N.am      13 UNK        -0.5000 
     75 CA          0.5447  -26.3510  -47.4381 C.3       13 UNK         0.1400 
     76 CB          1.5232  -27.4778  -47.8301 C.3       13 UNK        -0.1800 
     77 C          -0.8985  -26.5728  -47.9457 C.2       13 UNK         0.5000 
     78 O          -1.2391  -27.6489  -48.4406 O.2       13 UNK        -0.5000 
     79 N          -1.7050  -25.5122  -47.8341 N.am      14 UNK        -0.5000 
     80 CA         -3.0887  -25.4033  -48.2785 C.3       14 UNK         0.1400 
     81 CB         -3.1259  -24.8024  -49.6973 C.3       14 UNK        -0.1800 
     82 C          -3.8454  -24.5253  -47.2697 C.2       14 UNK         0.5000 
     83 O          -3.2616  -24.0888  -46.2769 O.2       14 UNK        -0.5000 
     84 N          -5.1349  -24.2838  -47.5264 N.am      15 UNK        -0.5000 
     85 CA         -6.0202  -23.5410  -46.6265 C.3       15 UNK         0.1400 
     86 CB         -7.4760  -23.8097  -47.0402 C.3       15 UNK        -0.1800 
     87 C          -5.7569  -22.0218  -46.5625 C.2       15 UNK         0.5000 
     88 O          -6.1693  -21.3928  -45.5870 O.2       15 UNK        -0.5000 
     89 N          -5.1224  -21.4505  -47.5946 N.am      16 UNK        -0.5000 
     90 CA         -4.9689  -20.0098  -47.7896 C.3       16 UNK         0.1400 
     91 CB         -6.3386  -19.3860  -48.1423 C.3       16 UNK        -0.1800 
     92 C          -3.9229  -19.7124  -48.8807 C.2       16 UNK         0.5000 
     93 O          -3.2974  -20.6328  -49.4127 O.2       16 UNK        -0.5000 
     94 N          -3.7670  -18.4159  -49.1758 N.am      17 UNK        -0.5000 
     95 CA         -2.8553  -17.8134  -50.1512 C.3       17 UNK         0.1400 
     96 CB         -2.9048  -16.2873  -49.9383 C.3       17 UNK        -0.1800 
     97 C          -3.1345  -18.1664  -51.6255 C.2       17 UNK         0.5000 
     98 O          -4.0372  -18.9485  -51.9345 O.2       17 UNK        -0.5000 
     99 N          -2.3365  -17.5598  -52.5171 N.am      18 UNK        -0.5000 
    100 CA        -2.4484  -17.6296  -53.9751 C.3       18 UNK         0.1400 
    101 CB        -1.3884  -16.7144  -54.6070 C.3       18 UNK        -0.1800 
    102 C         -3.8544  -17.2502  -54.4722 C.2       18 UNK         0.5000 
    103 O         -4.3694  -16.1976  -54.0915 O.2       18 UNK        -0.5000 
    104 N         -4.4534  -18.1411  -55.2709 N.am      19 UNK        -0.5000 
    105 CA        -5.8097  -18.1135  -55.8329 C.3       19 UNK         0.1400 
    106 CB        -6.0708  -16.8308  -56.6466 C.3       19 UNK        -0.1800 
    107 C         -6.9323  -18.3736  -54.8070 C.2       19 UNK         0.5000 
    108 O         -8.0036  -18.8323  -55.2059 O.2       19 UNK        -0.5000 
    109 N         -6.6804  -18.1181  -53.5160 N.am      20 UNK        -0.5000 
    110 CA        -7.5762  -18.4556  -52.4107 C.3       20 UNK         0.1400 
    111 CB        -7.1914  -17.6399  -51.1673 C.3       20 UNK        -0.1800 
    112 C         -7.5678  -19.9679  -52.1194 C.2       20 UNK         0.5000 
    113 O         -8.6280  -20.5384  -51.8596 O.2       20 UNK        -0.5000 
    114 N         -6.3865  -20.5924  -52.2140 N.am      21 UNK        -0.5000 
    115 CA        -6.2040  -22.0424  -52.1629 C.3       21 UNK         0.1400 
    116 CB        -6.2164  -22.5497  -50.7114 C.3       21 UNK        -0.1800 
    117 C         -4.9168  -22.4765  -52.8808 C.2       21 UNK         0.5000 
    118 O         -4.9342  -23.4980  -53.5688 O.2       21 UNK        -0.5000 
    119 N         -3.8281  -21.7125  -52.7150 N.am      22 UNK        -0.5000 
    120 CA        -2.5389  -21.9562  -53.3800 C.3       22 UNK         0.1400 
    121 C         -2.5651  -21.5935  -54.8935 C.2       22 UNK         0.5000 
    122 N         -1.7064  -22.2015  -55.6991 N.am      22 UNK        -0.7600 
    123 O         -3.3311  -20.7433  -55.3428 O.2       22 UNK        -0.5000 
    124 C124       -1.3760  -21.2541  -52.6275 C.3       23 UNK        -0.0398 
    125 S125        0.2158  -22.1245  -52.8427 S.3       23 UNK        -0.2404 
    126 C126        1.2863  -20.8278  -53.5379 C.3       23 UNK        -0.0205 
    127 H127        5.2807  -16.3610  -48.2376 H         1 UNK         0.0600 
    128 H128        5.3993  -17.1872  -46.6824 H         1 UNK         0.0600 
    129 H129        5.9514  -15.5173  -46.8352 H         1 UNK         0.0600 
    130 H130        3.4022  -15.1864  -48.6705 H         1 UNK         0.3000 
    131 H131        1.1502  -15.3880  -46.8686 H         1 UNK         0.0600 
    132 H132       -0.1366  -14.3693  -48.7540 H         1 UNK         0.0800 
    133 H133        1.3377  -14.1347  -49.6573 H         1 UNK         0.0800 
    134 H134        1.2854  -16.0505  -51.8275 H         1 UNK         0.0800 
    135 H135        2.6636  -15.8635  -50.7671 H         1 UNK         0.0800 
    136 H136        0.6845  -18.2926  -52.6970 H         1 UNK         0.1150 
    137 H137        3.4169  -21.5163  -51.9999 H         1 UNK         0.1150 
    138 H138        3.8807  -17.8105  -49.8904 H         1 UNK         0.1150 
    139 H139        4.9330  -21.4138  -50.1177 H         1 UNK         0.0800 
    140 H140        5.8699  -20.1207  -50.8005 H         1 UNK         0.0800 
    141 H141        2.9981  -19.8140  -48.1047 H         1 UNK         0.0800 
    142 H142        3.8836  -19.3293  -46.7002 H         1 UNK         0.0800 
    143 H143        4.8747  -21.7835  -46.6866 H         1 UNK         0.0600 
    144 H144        2.3969  -20.8197  -45.5440 H         1 UNK         0.3000 
    145 H145        1.8929  -23.6025  -43.3979 H         1 UNK         0.0600 
    146 H146        1.9868  -21.8999  -41.6081 H         1 UNK         0.0600 
    147 H147        3.6143  -22.2695  -42.1575 H         1 UNK         0.0600 
    148 H148        2.8335  -20.7777  -42.6708 H         1 UNK         0.0600 
    149 H149        0.5481  -21.1092  -43.5599 H         1 UNK         0.3000 
    150 H150       -1.6944  -21.9570  -46.2278 H         1 UNK         0.0600 
    151 H151       -2.5846  -22.8779  -44.0411 H         1 UNK         0.0600 
    152 H152       -3.3076  -21.3383  -44.4806 H         1 UNK         0.0600 
    153 H153       -2.0625  -21.4103  -43.2342 H         1 UNK         0.0600 
    154 H154       -1.5363  -19.5655  -44.8023 H         1 UNK         0.3000 
    155 H155        0.9159  -17.8727  -46.8111 H         1 UNK         0.0600 
    156 H156       -2.0867  -17.6172  -46.2513 H         1 UNK         0.0600 
    157 H157       -1.0434  -16.3783  -46.9530 H         1 UNK         0.0600 
    158 H158       -1.3773  -17.8578  -47.8319 H         1 UNK         0.0600 
    159 H159       -0.5019  -17.0140  -44.5182 H         1 UNK         0.3000 
    160 H160        1.8856  -17.9993  -42.0309 H         1 UNK         0.0600 
    161 H161        1.5012  -15.6113  -41.5035 H         1 UNK         0.0600 
    162 H162        0.7723  -15.3498  -43.0853 H         1 UNK         0.0600 
    163 H163        2.4768  -15.7583  -42.9575 H         1 UNK         0.0600 
    164 H164       -0.7429  -16.8891  -41.8226 H         1 UNK         0.3000 
    165 H165       -2.4326  -20.0145  -41.3250 H         1 UNK         0.0600 
    166 H166       -2.9476  -18.9710  -39.1601 H         1 UNK         0.0600 
    167 H167       -1.2615  -19.4589  -39.1833 H         1 UNK         0.0600 
    168 H168       -1.6830  -17.7634  -39.3929 H         1 UNK         0.0600 
    169 H169       -3.6095  -17.5657  -41.0480 H         1 UNK         0.3000 
    170 H170       -5.3665  -17.8462  -43.9039 H         1 UNK         0.0600 
    171 H171       -4.8946  -16.0235  -41.4781 H         1 UNK         0.0600 
    172 H172       -6.3924  -16.1938  -42.3822 H         1 UNK         0.0600 
    173 H173       -5.7812  -17.5516  -41.4605 H         1 UNK         0.0600 
    174 H174       -4.0025  -15.2269  -43.6337 H         1 UNK         0.3000 
    175 H175       -3.0802  -14.9539  -46.8692 H         1 UNK         0.0600 
    176 H176       -4.5898  -13.0455  -47.3375 H         1 UNK         0.0600 
    177 H177       -5.7142  -13.5974  -46.0943 H         1 UNK         0.0600 
    178 H178       -5.4489  -14.5621  -47.5419 H         1 UNK         0.0600 
    179 H179       -3.6018  -12.8686  -45.0170 H         1 UNK         0.3000 
    180 H180       -1.8091  -11.8924  -44.0650 H         1 UNK         0.0600 
    181 H181       -1.1416  -14.0437  -41.9565 H         1 UNK         0.0600 
    182 H182       -2.6273  -13.1019  -42.0262 H         1 UNK         0.0600 
    183 H183       -1.1008  -12.3047  -41.6758 H         1 UNK         0.0600 
    184 H184        0.4264  -13.7336  -44.3609 H         1 UNK         0.3000 
    185 H185        2.5222  -11.1687  -45.4595 H         1 UNK         0.0600 
    186 H186        3.0511  -13.0798  -43.1159 H         1 UNK         0.0600 
    187 H187        4.2784  -12.3553  -44.1544 H         1 UNK         0.0600 
    188 H188        3.3140  -11.3397  -43.0935 H         1 UNK         0.0600 
    189 H189        2.7237  -14.0491  -45.3622 H         1 UNK         0.3000 
    190 H190        1.4681  -21.6671  -47.7527 H         1 UNK         0.3000 
    191 H191        1.8154  -22.8941  -50.2453 H         1 UNK         0.0600 
    192 H192       -0.0767  -21.4173  -49.6612 H         1 UNK         0.0600 
    193 H193       -0.7049  -22.9810  -50.1667 H         1 UNK         0.0600 
    194 H194       -0.6634  -22.5656  -48.4611 H         1 UNK         0.0600 
    195 H195        1.0267  -24.3307  -47.1139 H         1 UNK         0.3000 
    196 H196        0.4879  -26.3287  -46.3489 H         1 UNK         0.0600 
    197 H197        1.2172  -28.4264  -47.3877 H         1 UNK         0.0600 
    198 H198        2.5316  -27.2640  -47.4757 H         1 UNK         0.0600 
    199 H199        1.5704  -27.6248  -48.9091 H         1 UNK         0.0600 
    200 H200       -1.3751  -24.7095  -47.3120 H         1 UNK         0.3000 
    201 H201       -3.5518  -26.3920  -48.2834 H         1 UNK         0.0600 
    202 H202       -2.4318  -25.3130  -50.3653 H         1 UNK         0.0600 
    203 H203       -2.8690  -23.7426  -49.6948 H         1 UNK         0.0600 
    204 H204       -4.1186  -24.8953  -50.1375 H         1 UNK         0.0600 
    205 H205       -5.5586  -24.6777  -48.3534 H         1 UNK         0.3000 
    206 H206       -5.8816  -23.9325  -45.6162 H         1 UNK         0.0600 
    207 H207       -7.7086  -24.8740  -47.0003 H         1 UNK         0.0600 
    208 H208       -8.1732  -23.3022  -46.3721 H         1 UNK         0.0600 
    209 H209       -7.6787  -23.4582  -48.0523 H         1 UNK         0.0600 
    210 H210       -4.7283  -22.0230  -48.3283 H         1 UNK         0.3000 
    211 H211       -4.5987  -19.5733  -46.8594 H         1 UNK         0.0600 
    212 H212       -6.2740  -18.3033  -48.2511 H         1 UNK         0.0600 
    213 H213       -6.7300  -19.7932  -49.0749 H         1 UNK         0.0600 
    214 H214       -7.0791  -19.5704  -47.3647 H         1 UNK         0.0600 
    215 H215       -4.3348  -17.7600  -48.6585 H         1 UNK         0.3000 
    216 H216       -1.8491  -18.1782  -49.9430 H         1 UNK         0.0600 
    217 H217       -2.1769  -15.7617  -50.5566 H         1 UNK         0.0600 
    218 H218       -2.6800  -16.0251  -48.9062 H         1 UNK         0.0600 
    219 H219       -3.8895  -15.8828  -50.1767 H         1 UNK         0.0600 
    220 H220       -1.6457  -16.9135  -52.1667 H         1 UNK         0.3000 
    221 H221       -2.2291  -18.6516  -54.2779 H         1 UNK         0.0600 
    222 H222       -1.5190  -15.6760  -54.2996 H         1 UNK         0.0600 
    223 H223       -0.3797  -17.0214  -54.3334 H         1 UNK         0.0600 
    224 H224       -1.4487  -16.7435  -55.6958 H         1 UNK         0.0600 
    225 H225       -3.9636  -19.0206  -55.4337 H         1 UNK         0.3000 
    226 H226       -5.8422  -18.9511  -56.5314 H         1 UNK         0.0600 
    227 H227       -5.2880  -16.6658  -57.3868 H         1 UNK         0.0600 
    228 H228       -7.0169  -16.9010  -57.1845 H         1 UNK         0.0600 
    229 H229       -6.1274  -15.9465  -56.0118 H         1 UNK         0.0600 
    230 H230       -5.7789  -17.7282  -53.2736 H         1 UNK         0.3000 
    231 H231       -8.5932  -18.1747  -52.6929 H         1 UNK         0.0600 
    232 H232       -6.1864  -17.8765  -50.8205 H         1 UNK         0.0600 
    233 H233       -7.8794  -17.8392  -50.3450 H         1 UNK         0.0600 
    234 H234       -7.2304  -16.5697  -51.3707 H         1 UNK         0.0600 
    235 H235       -5.5595  -20.0319  -52.3987 H         1 UNK         0.3000 
    236 H236       -7.0373  -22.5066  -52.6952 H         1 UNK         0.0600 
    237 H237       -7.0982  -22.2086  -50.1695 H         1 UNK         0.0600 
    238 H238       -6.2188  -23.6395  -50.6838 H         1 UNK         0.0600 
    239 H239       -5.3343  -22.2106  -50.1734 H         1 UNK         0.0600 
    240 H240       -3.8875  -20.8654  -52.1592 H         1 UNK         0.3000 
    241 H241       -2.3693  -23.0332  -53.3154 H         1 UNK         0.0600 
    242 H242       -1.0492  -22.8812  -55.3486 H         1 UNK         0.3800 
    243 H243       -1.7075  -21.9716  -56.6804 H         1 UNK         0.3800 
    244 H244       -1.2784  -20.2104  -52.9196 H         1 UNK         0.0800 
    245 H245       -1.5857  -21.2339  -51.5581 H         1 UNK         0.0800 
    246 H246        2.0510  -21.3073  -54.1505 H         1 UNK         0.0800 
    247 H247        0.7157  -20.1944  -54.2190 H         1 UNK         0.0800 
@<TRIPOS>BOND
     1    1    2 1    
     2    1  127 1    
     3    1  128 1    
     4    1  129 1    
     5    2    3 2    
     6    2    4 am   BACKBONE|DICT|INTERRES
     7    4    5 1    
     8    4  130 1    
     9    5    6 1    
    10    5   65 1    
    11    5  131 1    
    12    6    7 1    
    13    6  132 1    
    14    6  133 1    
    15    7    8 1    
    16    8    9 1    
    17    8  134 1    
    18    8  135 1    
    19    9   10 ar   
    20    9   14 ar   
    21   10   11 ar   
    22   10  136 1    
    23   11   12 ar   
    24   11  126 1    
    25   12   13 ar   
    26   12  137 1    
    27   13   14 ar   
    28   13   15 1    
    29   14  138 1    
    30   15   16 1    
    31   15  139 1    
    32   15  140 1    
    33   16   17 1    
    34   17   18 1    
    35   17  141 1    
    36   17  142 1    
    37   18   19 1    
    38   18   67 1    
    39   18  143 1    
    40   19   20 am   BACKBONE|DICT|INTERRES
    41   19  144 1    
    42   20   21 2    
    43   20   22 1    
    44   22   23 1    
    45   22   24 1    
    46   22  145 1    
    47   23  146 1    
    48   23  147 1    
    49   23  148 1    
    50   24   25 am   BACKBONE|DICT|INTERRES
    51   24  149 1    
    52   25   26 2    
    53   25   27 1    
    54   27   28 1    
    55   27   29 1    
    56   27  150 1    
    57   28  151 1    
    58   28  152 1    
    59   28  153 1    
    60   29   30 am   BACKBONE|DICT|INTERRES
    61   29  154 1    
    62   30   31 2    
    63   30   32 1    
    64   32   33 1    
    65   32   34 1    
    66   32  155 1    
    67   33  156 1    
    68   33  157 1    
    69   33  158 1    
    70   34   35 am   BACKBONE|DICT|INTERRES
    71   34  159 1    
    72   35   36 2    
    73   35   37 1    
    74   37   38 1    
    75   37   39 1    
    76   37  160 1    
    77   38  161 1    
    78   38  162 1    
    79   38  163 1    
    80   39   40 am   BACKBONE|DICT|INTERRES
    81   39  164 1    
    82   40   41 2    
    83   40   42 1    
    84   42   43 1    
    85   42   44 1    
    86   42  165 1    
    87   43  166 1    
    88   43  167 1    
    89   43  168 1    
    90   44   45 am   BACKBONE|DICT|INTERRES
    91   44  169 1    
    92   45   46 2    
    93   45   47 1    
    94   47   48 1    
    95   47   49 1    
    96   47  170 1    
    97   48  171 1    
    98   48  172 1    
    99   48  173 1    
   100   49   50 am   BACKBONE|DICT|INTERRES
   101   49  174 1    
   102   50   51 2    
   103   50   52 1    
   104   52   53 1    
   105   52   54 1    
   106   52  175 1    
   107   53  176 1    
   108   53  177 1    
   109   53  178 1    
   110   54   55 am   BACKBONE|DICT|INTERRES
   111   54  179 1    
   112   55   56 2    
   113   55   57 1    
   114   57   58 1    
   115   57   59 1    
   116   57  180 1    
   117   58  181 1    
   118   58  182 1    
   119   58  183 1    
   120   59   60 am   BACKBONE|DICT|INTERRES
   121   59  184 1    
   122   60   61 2    
   123   60   62 1    
   124   62   63 1    
   125   62   64 1    
   126   62  185 1    
   127   63  186 1    
   128   63  187 1    
   129   63  188 1    
   130   64   65 am   BACKBONE|DICT|INTERRES
   131   64  189 1    
   132   65   66 2    
   133   67   68 2    
   134   67   69 am   BACKBONE|DICT|INTERRES
   135   69   70 1    
   136   69  190 1    
   137   70   71 1    
   138   70   72 1    
   139   70  191 1    
   140   71  192 1    
   141   71  193 1    
   142   71  194 1    
   143   72   73 2    
   144   72   74 am   BACKBONE|DICT|INTERRES
   145   74   75 1    
   146   74  195 1    
   147   75   76 1    
   148   75   77 1    
   149   75  196 1    
   150   76  197 1    
   151   76  198 1    
   152   76  199 1    
   153   77   78 2    
   154   77   79 am   BACKBONE|DICT|INTERRES
   155   79   80 1    
   156   79  200 1    
   157   80   81 1    
   158   80   82 1    
   159   80  201 1    
   160   81  202 1    
   161   81  203 1    
   162   81  204 1    
   163   82   83 2    
   164   82   84 am   BACKBONE|DICT|INTERRES
   165   84   85 1    
   166   84  205 1    
   167   85   86 1    
   168   85   87 1    
   169   85  206 1    
   170   86  207 1    
   171   86  208 1    
   172   86  209 1    
   173   87   88 2    
   174   87   89 am   BACKBONE|DICT|INTERRES
   175   89   90 1    
   176   89  210 1    
   177   90   91 1    
   178   90   92 1    
   179   90  211 1    
   180   91  212 1    
   181   91  213 1    
   182   91  214 1    
   183   92   93 2    
   184   92   94 am   BACKBONE|DICT|INTERRES
   185   94   95 1    
   186   94  215 1    
   187   95   96 1    
   188   95   97 1    
   189   95  216 1    
   190   96  217 1    
   191   96  218 1    
   192   96  219 1    
   193   97   98 2    
   194   97   99 am   BACKBONE|DICT|INTERRES
   195   99  100 1    
   196   99  220 1    
   197  100  101 1    
   198  100  102 1    
   199  100  221 1    
   200  101  222 1    
   201  101  223 1    
   202  101  224 1    
   203  102  103 2    
   204  102  104 am   BACKBONE|DICT|INTERRES
   205  104  105 1    
   206  104  225 1    
   207  105  106 1    
   208  105  107 1    
   209  105  226 1    
   210  106  227 1    
   211  106  228 1    
   212  106  229 1    
   213  107  108 2    
   214  107  109 am   BACKBONE|DICT|INTERRES
   215  109  110 1    
   216  109  230 1    
   217  110  111 1    
   218  110  112 1    
   219  110  231 1    
   220  111  232 1    
   221  111  233 1    
   222  111  234 1    
   223  112  113 2    
   224  112  114 am   BACKBONE|DICT|INTERRES
   225  114  115 1    
   226  114  235 1    
   227  115  116 1    
   228  115  117 1    
   229  115  236 1    
   230  116  237 1    
   231  116  238 1    
   232  116  239 1    
   233  117  118 2    
   234  117  119 am   BACKBONE|DICT|INTERRES
   235  119  120 1    
   236  119  240 1    
   237  120  121 1    
   238  120  124 1    
   239  120  241 1    
   240  121  122 am   BACKBONE|DICT|INTERRES
   241  121  123 2    
   242  122  242 1    
   243  122  243 1    
   244  124  125 1    
   245  124  244 1    
   246  124  245 1    
   247  125  126 1    
   248  126  246 1    
   249  126  247 1    
@<TRIPOS>SUBSTRUCTURE
     1 UNK         1 GROUP             0       ****    0 ROOT    
