@<TRIPOS>MOLECULE
3R540
247   249    1
SMALL
USER_CHARGES


@<TRIPOS>ATOM
      1 CA         -0.9672   -9.7927  -47.7554 C.3       0 UNK        -0.1800 
      2 C           0.0059  -10.9554  -47.6302 C.2       0 UNK         0.5000 
      3 O           0.3890  -11.3145  -46.5186 O.2       0 UNK        -0.5000 
      4 N           0.3940  -11.5582  -48.7617 N.am      1 UNK        -0.5000 
      5 CA          1.3281  -12.6901  -48.8517 C.3       1 UNK         0.1400 
      6 C6          1.6728  -12.9857  -50.3313 C.3       23 UNK        -0.0398 
      7 S7          3.0672  -14.1426  -50.5531 S.3       23 UNK        -0.2404 
      8 C8          2.4410  -15.2236  -51.8786 C.3       23 UNK        -0.0205 
      9 C9          1.2733  -16.0904  -51.4275 C.ar      23 UNK        -0.0193 
     10 C10        -0.0259  -15.8130  -51.8619 C.ar      23 UNK        -0.1150 
     11 C11        -1.0944  -16.6291  -51.4784 C.ar      23 UNK        -0.0193 
     12 C12        -0.8583  -17.7263  -50.6435 C.ar      23 UNK        -0.1150 
     13 C13         0.4397  -18.0220  -50.2167 C.ar      23 UNK        -0.0193 
     14 C14         1.4985  -17.1973  -50.6065 C.ar      23 UNK        -0.1150 
     15 C15         0.7193  -19.2579  -49.3792 C.3       23 UNK        -0.0205 
     16 S16         0.7596  -18.8796  -47.6011 S.3       23 UNK        -0.2404 
     17 C17        -0.9012  -19.4132  -47.0725 C.3       23 UNK        -0.0398 
     18 CA         -0.9913  -20.9458  -46.8642 C.3       11 UNK         0.1400 
     19 N          -0.0210  -21.4696  -45.8957 N.am      11 UNK        -0.5000 
     20 C           0.2119  -22.7747  -45.6908 C.2       10 UNK         0.5000 
     21 O          -0.3471  -23.6736  -46.3170 O.2       10 UNK        -0.5000 
     22 CA          1.1889  -23.1456  -44.5637 C.3       10 UNK         0.1400 
     23 CB          2.6471  -23.0617  -45.0398 C.3       10 UNK        -0.1800 
     24 N           0.9956  -22.3046  -43.3845 N.am      10 UNK        -0.5000 
     25 C          -0.0673  -22.3827  -42.5717 C.2       9 UNK         0.5000 
     26 O          -0.9727  -23.2060  -42.7066 O.2       9 UNK        -0.5000 
     27 CA         -0.1555  -21.3332  -41.4491 C.3       9 UNK         0.1400 
     28 CB          0.6870  -21.7579  -40.2374 C.3       9 UNK        -0.1800 
     29 N           0.2648  -20.0043  -41.8941 N.am      9 UNK        -0.5000 
     30 C          -0.3959  -19.2736  -42.8037 C.2       8 UNK         0.5000 
     31 O          -1.4456  -19.6328  -43.3344 O.2       8 UNK        -0.5000 
     32 CA          0.2397  -17.9380  -43.2268 C.3       8 UNK         0.1400 
     33 CB         -0.2325  -16.8172  -42.2905 C.3       8 UNK        -0.1800 
     34 N           1.7036  -17.9494  -43.2771 N.am      8 UNK        -0.5000 
     35 C           2.4472  -18.8184  -43.9776 C.2       7 UNK         0.5000 
     36 O           1.9753  -19.7409  -44.6397 O.2       7 UNK        -0.5000 
     37 CA          3.9754  -18.6722  -43.8872 C.3       7 UNK         0.1400 
     38 CB          4.4845  -17.6908  -44.9517 C.3       7 UNK        -0.1800 
     39 N           4.4454  -18.2407  -42.5712 N.am      7 UNK        -0.5000 
     40 C           4.2695  -18.8936  -41.4158 C.2       6 UNK         0.5000 
     41 O           3.6671  -19.9640  -41.3251 O.2       6 UNK        -0.5000 
     42 CA          4.8309  -18.2335  -40.1389 C.3       6 UNK         0.1400 
     43 CB          6.3177  -18.5829  -39.9373 C.3       6 UNK        -0.1800 
     44 N           4.5948  -16.7841  -40.0505 N.am      6 UNK        -0.5000 
     45 C           5.0982  -15.7982  -40.8065 C.2       5 UNK         0.5000 
     46 O           5.9286  -15.9621  -41.7035 O.2       5 UNK        -0.5000 
     47 CA          4.5402  -14.3885  -40.5368 C.3       5 UNK         0.1400 
     48 CB          5.5913  -13.5163  -39.8336 C.3       5 UNK        -0.1800 
     49 N           4.0893  -13.7106  -41.7558 N.am      5 UNK        -0.5000 
     50 C           3.1922  -14.1882  -42.6299 C.2       4 UNK         0.5000 
     51 O           2.6710  -15.3030  -42.5433 O.2       4 UNK        -0.5000 
     52 CA          2.8259  -13.2594  -43.8040 C.3       4 UNK         0.1400 
     53 CB          3.7344  -13.5201  -45.0142 C.3       4 UNK        -0.1800 
     54 N           1.4304  -13.4134  -44.2160 N.am      4 UNK        -0.5000 
     55 C           0.3691  -13.0670  -43.4721 C.2       3 UNK         0.5000 
     56 O           0.4667  -12.5394  -42.3626 O.2       3 UNK        -0.5000 
     57 CA         -1.0347  -13.3429  -44.0499 C.3       3 UNK         0.1400 
     58 CB         -1.9296  -12.0937  -43.9674 C.3       3 UNK        -0.1800 
     59 N          -0.9768  -13.7785  -45.4450 N.am      3 UNK        -0.5000 
     60 C          -1.3010  -14.9968  -45.8990 C.2       2 UNK         0.5000 
     61 O          -1.7099  -15.9042  -45.1764 O.2       2 UNK        -0.5000 
     62 CA         -1.1788  -15.2519  -47.4168 C.3       2 UNK         0.1400 
     63 CB         -2.5698  -15.4611  -48.0327 C.3       2 UNK        -0.1800 
     64 N          -0.4985  -14.1795  -48.1472 N.am      2 UNK        -0.5000 
     65 C           0.8193  -13.9403  -48.0944 C.2       1 UNK         0.5000 
     66 O           1.6010  -14.6088  -47.4181 O.2       1 UNK        -0.5000 
     67 C          -2.4306  -21.3716  -46.5167 C.2       11 UNK         0.5000 
     68 O          -3.1611  -21.7967  -47.4111 O.2       11 UNK        -0.5000 
     69 N          -2.7934  -21.3032  -45.2273 N.am      12 UNK        -0.5000 
     70 CA         -4.0739  -21.7704  -44.6967 C.3       12 UNK         0.1400 
     71 CB         -4.2112  -21.3537  -43.2248 C.3       12 UNK        -0.1800 
     72 C          -4.2629  -23.2892  -44.8537 C.2       12 UNK         0.5000 
     73 O          -5.3356  -23.7186  -45.2778 O.2       12 UNK        -0.5000 
     74 N          -3.2135  -24.0708  -44.5566 N.am      13 UNK        -0.5000 
     75 CA         -3.1889  -25.5263  -44.7330 C.3       13 UNK         0.1400 
     76 CB         -1.9135  -26.1024  -44.1002 C.3       13 UNK        -0.1800 
     77 C          -3.3088  -25.9560  -46.2083 C.2       13 UNK         0.5000 
     78 O          -3.9848  -26.9423  -46.5022 O.2       13 UNK        -0.5000 
     79 N          -2.6828  -25.1871  -47.1090 N.am      14 UNK        -0.5000 
     80 CA         -2.7693  -25.3500  -48.5609 C.3       14 UNK         0.1400 
     81 CB         -1.5914  -24.6087  -49.2139 C.3       14 UNK        -0.1800 
     82 C          -4.1044  -24.8628  -49.1610 C.2       14 UNK         0.5000 
     83 O          -4.3625  -25.1469  -50.3279 O.2       14 UNK        -0.5000 
     84 N          -4.9088  -24.1311  -48.3749 N.am      15 UNK        -0.5000 
     85 CA         -6.1819  -23.4876  -48.7251 C.3       15 UNK         0.1400 
     86 CB         -7.2279  -24.5179  -49.1997 C.3       15 UNK        -0.1800 
     87 C          -6.0394  -22.2954  -49.6967 C.2       15 UNK         0.5000 
     88 O          -7.0376  -21.8693  -50.2806 O.2       15 UNK        -0.5000 
     89 N          -4.8162  -21.7569  -49.8170 N.am      16 UNK        -0.5000 
     90 CA         -4.4118  -20.5663  -50.5687 C.3       16 UNK         0.1400 
     91 CB         -4.6286  -19.3163  -49.6879 C.3       16 UNK        -0.1800 
     92 C          -5.0523  -20.4680  -51.9719 C.2       16 UNK         0.5000 
     93 O          -4.8010  -21.3263  -52.8211 O.2       16 UNK        -0.5000 
     94 N          -5.8707  -19.4311  -52.1886 N.am      17 UNK        -0.5000 
     95 CA         -6.5112  -19.1032  -53.4599 C.3       17 UNK         0.1400 
     96 CB         -7.1014  -17.6883  -53.3650 C.3       17 UNK        -0.1800 
     97 C          -7.5870  -20.1088  -53.9091 C.2       17 UNK         0.5000 
     98 O          -7.8664  -20.1749  -55.1061 O.2       17 UNK        -0.5000 
     99 N          -8.1578  -20.8863  -52.9758 N.am      18 UNK        -0.5000 
    100 CA        -9.1621  -21.9113  -53.2796 C.3       18 UNK         0.1400 
    101 CB        -9.8862  -22.3344  -51.9926 C.3       18 UNK        -0.1800 
    102 C         -8.5522  -23.1337  -53.9901 C.2       18 UNK         0.5000 
    103 O         -9.2154  -23.7419  -54.8308 O.2       18 UNK        -0.5000 
    104 N         -7.2929  -23.4479  -53.6604 N.am      19 UNK        -0.5000 
    105 CA        -6.4970  -24.4920  -54.3078 C.3       19 UNK         0.1400 
    106 CB        -5.6042  -25.1433  -53.2447 C.3       19 UNK        -0.1800 
    107 C         -5.6255  -23.9417  -55.4530 C.2       19 UNK         0.5000 
    108 O         -5.0264  -24.7329  -56.1821 O.2       19 UNK        -0.5000 
    109 N         -5.5430  -22.6068  -55.5652 N.am      20 UNK        -0.5000 
    110 CA        -4.6372  -21.8359  -56.4228 C.3       20 UNK         0.1400 
    111 CB        -4.9539  -22.0578  -57.9163 C.3       20 UNK        -0.1800 
    112 C         -3.1552  -22.0809  -56.0632 C.2       20 UNK         0.5000 
    113 O         -2.3045  -22.1824  -56.9485 O.2       20 UNK        -0.5000 
    114 N         -2.8793  -22.1754  -54.7549 N.am      21 UNK        -0.5000 
    115 CA        -1.5512  -22.4120  -54.1855 C.3       21 UNK         0.1400 
    116 CB        -1.7228  -23.0206  -52.7834 C.3       21 UNK        -0.1800 
    117 C         -0.6822  -21.1391  -54.1233 C.2       21 UNK         0.5000 
    118 O          0.5192  -21.2427  -53.8727 O.2       21 UNK        -0.5000 
    119 N         -1.3037  -19.9711  -54.3268 N.am      22 UNK        -0.5000 
    120 CA        -0.6813  -18.6402  -54.3200 C.3       22 UNK         0.1400 
    121 C          0.4296  -18.4708  -55.3926 C.2       22 UNK         0.5000 
    122 N          1.5452  -17.8438  -55.0448 N.am      22 UNK        -0.7600 
    123 O          0.2679  -18.8589  -56.5474 O.2       22 UNK        -0.5000 
    124 C124       -1.7457  -17.5230  -54.4770 C.3       23 UNK        -0.0398 
    125 S125       -3.0459  -17.6042  -53.1978 S.3       23 UNK        -0.2404 
    126 C126       -2.4950  -16.3461  -52.0035 C.3       23 UNK        -0.0205 
    127 H127       -1.2346   -9.5966  -48.7939 H         1 UNK         0.0600 
    128 H128       -1.8815  -10.0092  -47.2029 H         1 UNK         0.0600 
    129 H129       -0.5236   -8.8875  -47.3408 H         1 UNK         0.0600 
    130 H130        0.0390  -11.2120  -49.6419 H         1 UNK         0.3000 
    131 H131        2.2474  -12.3733  -48.3539 H         1 UNK         0.0600 
    132 H132        0.7898  -13.3461  -50.8586 H         1 UNK         0.0800 
    133 H133        1.9556  -12.0589  -50.8324 H         1 UNK         0.0800 
    134 H134        3.2543  -15.8680  -52.2156 H         1 UNK         0.0800 
    135 H135        2.1623  -14.6137  -52.7395 H         1 UNK         0.0800 
    136 H136       -0.2034  -14.9699  -52.5147 H         1 UNK         0.1150 
    137 H137       -1.6795  -18.3675  -50.3574 H         1 UNK         0.1150 
    138 H138        2.5034  -17.4230  -50.2780 H         1 UNK         0.1150 
    139 H139        1.6859  -19.6764  -49.6635 H         1 UNK         0.0800 
    140 H140       -0.0142  -20.0355  -49.5946 H         1 UNK         0.0800 
    141 H141       -1.6267  -19.0763  -47.8151 H         1 UNK         0.0800 
    142 H142       -1.1462  -18.8872  -46.1484 H         1 UNK         0.0800 
    143 H143       -0.7573  -21.4193  -47.8195 H         1 UNK         0.0600 
    144 H144        0.5316  -20.7882  -45.3817 H         1 UNK         0.3000 
    145 H145        0.9912  -24.1808  -44.2775 H         1 UNK         0.0600 
    146 H146        3.3382  -23.3447  -44.2458 H         1 UNK         0.0600 
    147 H147        2.8190  -23.7386  -45.8774 H         1 UNK         0.0600 
    148 H148        2.9124  -22.0588  -45.3738 H         1 UNK         0.0600 
    149 H149        1.6506  -21.5448  -43.2580 H         1 UNK         0.3000 
    150 H150       -1.1991  -21.2703  -41.1334 H         1 UNK         0.0600 
    151 H151        1.7467  -21.8260  -40.4865 H         1 UNK         0.0600 
    152 H152        0.3731  -22.7351  -39.8681 H         1 UNK         0.0600 
    153 H153        0.5807  -21.0501  -39.4152 H         1 UNK         0.0600 
    154 H154        1.1464  -19.6591  -41.5403 H         1 UNK         0.3000 
    155 H155       -0.1089  -17.7195  -44.2364 H         1 UNK         0.0600 
    156 H156       -1.3215  -16.7847  -42.2351 H         1 UNK         0.0600 
    157 H157        0.0978  -15.8456  -42.6504 H         1 UNK         0.0600 
    158 H158        0.1498  -16.9484  -41.2777 H         1 UNK         0.0600 
    159 H159        2.1735  -17.1762  -42.8140 H         1 UNK         0.3000 
    160 H160        4.4106  -19.6531  -44.0885 H         1 UNK         0.0600 
    161 H161        4.1244  -16.6801  -44.7618 H         1 UNK         0.0600 
    162 H162        4.1451  -17.9803  -45.9475 H         1 UNK         0.0600 
    163 H163        5.5739  -17.6604  -44.9731 H         1 UNK         0.0600 
    164 H164        4.9552  -17.3626  -42.5305 H         1 UNK         0.3000 
    165 H165        4.2819  -18.6683  -39.3021 H         1 UNK         0.0600 
    166 H166        6.6996  -18.1602  -39.0080 H         1 UNK         0.0600 
    167 H167        6.9404  -18.2167  -40.7538 H         1 UNK         0.0600 
    168 H168        6.4571  -19.6633  -39.8845 H         1 UNK         0.0600 
    169 H169        3.8986  -16.5243  -39.3654 H         1 UNK         0.3000 
    170 H170        3.6730  -14.4743  -39.8789 H         1 UNK         0.0600 
    171 H171        5.9330  -13.9848  -38.9097 H         1 UNK         0.0600 
    172 H172        6.4673  -13.3566  -40.4638 H         1 UNK         0.0600 
    173 H173        5.1839  -12.5401  -39.5699 H         1 UNK         0.0600 
    174 H174        4.4907  -12.8003  -41.9258 H         1 UNK         0.3000 
    175 H175        2.9676  -12.2248  -43.4846 H         1 UNK         0.0600 
    176 H176        3.5793  -14.5176  -45.4249 H         1 UNK         0.0600 
    177 H177        3.5413  -12.8014  -45.8110 H         1 UNK         0.0600 
    178 H178        4.7875  -13.4335  -44.7442 H         1 UNK         0.0600 
    179 H179        1.2719  -13.8623  -45.1073 H         1 UNK         0.3000 
    180 H180       -1.4848  -14.1175  -43.4265 H         1 UNK         0.0600 
    181 H181       -1.5062  -11.2571  -44.5241 H         1 UNK         0.0600 
    182 H182       -2.0586  -11.7689  -42.9343 H         1 UNK         0.0600 
    183 H183       -2.9232  -12.2943  -44.3684 H         1 UNK         0.0600 
    184 H184       -0.6165  -13.0889  -46.0949 H         1 UNK         0.3000 
    185 H185       -0.6057  -16.1716  -47.5493 H         1 UNK         0.0600 
    186 H186       -2.4969  -15.6698  -49.0973 H         1 UNK         0.0600 
    187 H187       -3.0802  -16.3079  -47.5720 H         1 UNK         0.0600 
    188 H188       -3.2039  -14.5830  -47.9047 H         1 UNK         0.0600 
    189 H189       -1.0812  -13.5642  -48.6955 H         1 UNK         0.3000 
    190 H190       -2.1541  -20.8866  -44.5548 H         1 UNK         0.3000 
    191 H191       -4.8668  -21.2778  -45.2633 H         1 UNK         0.0600 
    192 H192       -5.1614  -21.6911  -42.8090 H         1 UNK         0.0600 
    193 H193       -4.1772  -20.2693  -43.1187 H         1 UNK         0.0600 
    194 H194       -3.4144  -21.7743  -42.6105 H         1 UNK         0.0600 
    195 H195       -2.3763  -23.6464  -44.1716 H         1 UNK         0.3000 
    196 H196       -4.0470  -25.9396  -44.1990 H         1 UNK         0.0600 
    197 H197       -1.0147  -25.7062  -44.5730 H         1 UNK         0.0600 
    198 H198       -1.8620  -25.8707  -43.0363 H         1 UNK         0.0600 
    199 H199       -1.8847  -27.1883  -44.1981 H         1 UNK         0.0600 
    200 H200       -2.0779  -24.4418  -46.7752 H         1 UNK         0.3000 
    201 H201       -2.6746  -26.4122  -48.7955 H         1 UNK         0.0600 
    202 H202       -1.6369  -23.5357  -49.0251 H         1 UNK         0.0600 
    203 H203       -1.5890  -24.7528  -50.2948 H         1 UNK         0.0600 
    204 H204       -0.6365  -24.9749  -48.8369 H         1 UNK         0.0600 
    205 H205       -4.5874  -23.9455  -47.4333 H         1 UNK         0.3000 
    206 H206       -6.5529  -23.0593  -47.7932 H         1 UNK         0.0600 
    207 H207       -7.2959  -25.3585  -48.5092 H         1 UNK         0.0600 
    208 H208       -8.2192  -24.0676  -49.2590 H         1 UNK         0.0600 
    209 H209       -6.9922  -24.9111  -50.1884 H         1 UNK         0.0600 
    210 H210       -4.0963  -22.1503  -49.2214 H         1 UNK         0.3000 
    211 H211       -3.3387  -20.6599  -50.7381 H         1 UNK         0.0600 
    212 H212       -4.2869  -18.4097  -50.1887 H         1 UNK         0.0600 
    213 H213       -4.0644  -19.3952  -48.7586 H         1 UNK         0.0600 
    214 H214       -5.6776  -19.1826  -49.4207 H         1 UNK         0.0600 
    215 H215       -6.0395  -18.7917  -51.4265 H         1 UNK         0.3000 
    216 H216       -5.7360  -19.0954  -54.2290 H         1 UNK         0.0600 
    217 H217       -7.8673  -17.6232  -52.5911 H         1 UNK         0.0600 
    218 H218       -7.5610  -17.3913  -54.3086 H         1 UNK         0.0600 
    219 H219       -6.3285  -16.9538  -53.1373 H         1 UNK         0.0600 
    220 H220       -7.8399  -20.8283  -52.0144 H         1 UNK         0.3000 
    221 H221       -9.9038  -21.4722  -53.9504 H         1 UNK         0.0600 
    222 H222       -9.2210  -22.8573  -51.3058 H         1 UNK         0.0600 
    223 H223      -10.7127  -23.0091  -52.2184 H         1 UNK         0.0600 
    224 H224      -10.3023  -21.4734  -51.4695 H         1 UNK         0.0600 
    225 H225       -6.8246  -22.8937  -52.9553 H         1 UNK         0.3000 
    226 H226       -7.1505  -25.2609  -54.7250 H         1 UNK         0.0600 
    227 H227       -4.9143  -24.4184  -52.8103 H         1 UNK         0.0600 
    228 H228       -6.1982  -25.5703  -52.4370 H         1 UNK         0.0600 
    229 H229       -5.0068  -25.9512  -53.6689 H         1 UNK         0.0600 
    230 H230       -6.0790  -22.0629  -54.9049 H         1 UNK         0.3000 
    231 H231       -4.8323  -20.7858  -56.2007 H         1 UNK         0.0600 
    232 H232       -6.0080  -21.8758  -58.1258 H         1 UNK         0.0600 
    233 H233       -4.7173  -23.0721  -58.2380 H         1 UNK         0.0600 
    234 H234       -4.3769  -21.3756  -58.5416 H         1 UNK         0.0600 
    235 H235       -3.6355  -22.0420  -54.0867 H         1 UNK         0.3000 
    236 H236       -1.0257  -23.1377  -54.8095 H         1 UNK         0.0600 
    237 H237       -2.2993  -23.9453  -52.8214 H         1 UNK         0.0600 
    238 H238       -0.7560  -23.2590  -52.3384 H         1 UNK         0.0600 
    239 H239       -2.2350  -22.3371  -52.1066 H         1 UNK         0.0600 
    240 H240       -2.2936  -19.9921  -54.5157 H         1 UNK         0.3000 
    241 H241       -0.2106  -18.5306  -53.3424 H         1 UNK         0.0600 
    242 H242        2.2681  -17.7126  -55.7353 H         1 UNK         0.3800 
    243 H243        1.6948  -17.5193  -54.1026 H         1 UNK         0.3800 
    244 H244       -2.2311  -17.5981  -55.4516 H         1 UNK         0.0800 
    245 H245       -1.2796  -16.5367  -54.4503 H         1 UNK         0.0800 
    246 H246       -3.2021  -16.3248  -51.1748 H         1 UNK         0.0800 
    247 H247       -2.5443  -15.3621  -52.4723 H         1 UNK         0.0800 
@<TRIPOS>BOND
     1    1    2 1    
     2    1  127 1    
     3    1  128 1    
     4    1  129 1    
     5    2    3 2    
     6    2    4 am   BACKBONE|DICT|INTERRES
     7    4    5 1    
     8    4  130 1    
     9    5    6 1    
    10    5   65 1    
    11    5  131 1    
    12    6    7 1    
    13    6  132 1    
    14    6  133 1    
    15    7    8 1    
    16    8    9 1    
    17    8  134 1    
    18    8  135 1    
    19    9   10 ar   
    20    9   14 ar   
    21   10   11 ar   
    22   10  136 1    
    23   11   12 ar   
    24   11  126 1    
    25   12   13 ar   
    26   12  137 1    
    27   13   14 ar   
    28   13   15 1    
    29   14  138 1    
    30   15   16 1    
    31   15  139 1    
    32   15  140 1    
    33   16   17 1    
    34   17   18 1    
    35   17  141 1    
    36   17  142 1    
    37   18   19 1    
    38   18   67 1    
    39   18  143 1    
    40   19   20 am   BACKBONE|DICT|INTERRES
    41   19  144 1    
    42   20   21 2    
    43   20   22 1    
    44   22   23 1    
    45   22   24 1    
    46   22  145 1    
    47   23  146 1    
    48   23  147 1    
    49   23  148 1    
    50   24   25 am   BACKBONE|DICT|INTERRES
    51   24  149 1    
    52   25   26 2    
    53   25   27 1    
    54   27   28 1    
    55   27   29 1    
    56   27  150 1    
    57   28  151 1    
    58   28  152 1    
    59   28  153 1    
    60   29   30 am   BACKBONE|DICT|INTERRES
    61   29  154 1    
    62   30   31 2    
    63   30   32 1    
    64   32   33 1    
    65   32   34 1    
    66   32  155 1    
    67   33  156 1    
    68   33  157 1    
    69   33  158 1    
    70   34   35 am   BACKBONE|DICT|INTERRES
    71   34  159 1    
    72   35   36 2    
    73   35   37 1    
    74   37   38 1    
    75   37   39 1    
    76   37  160 1    
    77   38  161 1    
    78   38  162 1    
    79   38  163 1    
    80   39   40 am   BACKBONE|DICT|INTERRES
    81   39  164 1    
    82   40   41 2    
    83   40   42 1    
    84   42   43 1    
    85   42   44 1    
    86   42  165 1    
    87   43  166 1    
    88   43  167 1    
    89   43  168 1    
    90   44   45 am   BACKBONE|DICT|INTERRES
    91   44  169 1    
    92   45   46 2    
    93   45   47 1    
    94   47   48 1    
    95   47   49 1    
    96   47  170 1    
    97   48  171 1    
    98   48  172 1    
    99   48  173 1    
   100   49   50 am   BACKBONE|DICT|INTERRES
   101   49  174 1    
   102   50   51 2    
   103   50   52 1    
   104   52   53 1    
   105   52   54 1    
   106   52  175 1    
   107   53  176 1    
   108   53  177 1    
   109   53  178 1    
   110   54   55 am   BACKBONE|DICT|INTERRES
   111   54  179 1    
   112   55   56 2    
   113   55   57 1    
   114   57   58 1    
   115   57   59 1    
   116   57  180 1    
   117   58  181 1    
   118   58  182 1    
   119   58  183 1    
   120   59   60 am   BACKBONE|DICT|INTERRES
   121   59  184 1    
   122   60   61 2    
   123   60   62 1    
   124   62   63 1    
   125   62   64 1    
   126   62  185 1    
   127   63  186 1    
   128   63  187 1    
   129   63  188 1    
   130   64   65 am   BACKBONE|DICT|INTERRES
   131   64  189 1    
   132   65   66 2    
   133   67   68 2    
   134   67   69 am   BACKBONE|DICT|INTERRES
   135   69   70 1    
   136   69  190 1    
   137   70   71 1    
   138   70   72 1    
   139   70  191 1    
   140   71  192 1    
   141   71  193 1    
   142   71  194 1    
   143   72   73 2    
   144   72   74 am   BACKBONE|DICT|INTERRES
   145   74   75 1    
   146   74  195 1    
   147   75   76 1    
   148   75   77 1    
   149   75  196 1    
   150   76  197 1    
   151   76  198 1    
   152   76  199 1    
   153   77   78 2    
   154   77   79 am   BACKBONE|DICT|INTERRES
   155   79   80 1    
   156   79  200 1    
   157   80   81 1    
   158   80   82 1    
   159   80  201 1    
   160   81  202 1    
   161   81  203 1    
   162   81  204 1    
   163   82   83 2    
   164   82   84 am   BACKBONE|DICT|INTERRES
   165   84   85 1    
   166   84  205 1    
   167   85   86 1    
   168   85   87 1    
   169   85  206 1    
   170   86  207 1    
   171   86  208 1    
   172   86  209 1    
   173   87   88 2    
   174   87   89 am   BACKBONE|DICT|INTERRES
   175   89   90 1    
   176   89  210 1    
   177   90   91 1    
   178   90   92 1    
   179   90  211 1    
   180   91  212 1    
   181   91  213 1    
   182   91  214 1    
   183   92   93 2    
   184   92   94 am   BACKBONE|DICT|INTERRES
   185   94   95 1    
   186   94  215 1    
   187   95   96 1    
   188   95   97 1    
   189   95  216 1    
   190   96  217 1    
   191   96  218 1    
   192   96  219 1    
   193   97   98 2    
   194   97   99 am   BACKBONE|DICT|INTERRES
   195   99  100 1    
   196   99  220 1    
   197  100  101 1    
   198  100  102 1    
   199  100  221 1    
   200  101  222 1    
   201  101  223 1    
   202  101  224 1    
   203  102  103 2    
   204  102  104 am   BACKBONE|DICT|INTERRES
   205  104  105 1    
   206  104  225 1    
   207  105  106 1    
   208  105  107 1    
   209  105  226 1    
   210  106  227 1    
   211  106  228 1    
   212  106  229 1    
   213  107  108 2    
   214  107  109 am   BACKBONE|DICT|INTERRES
   215  109  110 1    
   216  109  230 1    
   217  110  111 1    
   218  110  112 1    
   219  110  231 1    
   220  111  232 1    
   221  111  233 1    
   222  111  234 1    
   223  112  113 2    
   224  112  114 am   BACKBONE|DICT|INTERRES
   225  114  115 1    
   226  114  235 1    
   227  115  116 1    
   228  115  117 1    
   229  115  236 1    
   230  116  237 1    
   231  116  238 1    
   232  116  239 1    
   233  117  118 2    
   234  117  119 am   BACKBONE|DICT|INTERRES
   235  119  120 1    
   236  119  240 1    
   237  120  121 1    
   238  120  124 1    
   239  120  241 1    
   240  121  122 am   BACKBONE|DICT|INTERRES
   241  121  123 2    
   242  122  242 1    
   243  122  243 1    
   244  124  125 1    
   245  124  244 1    
   246  124  245 1    
   247  125  126 1    
   248  126  246 1    
   249  126  247 1    
@<TRIPOS>SUBSTRUCTURE
     1 UNK         1 GROUP             0       ****    0 ROOT    
