@<TRIPOS>MOLECULE
3R540
247   249    1
SMALL
USER_CHARGES


@<TRIPOS>ATOM
      1 CA         -2.7681  -17.4271  -45.4619 C.3       0 UNK        -0.1800 
      2 C          -2.7600  -16.7515  -46.8247 C.2       0 UNK         0.5000 
      3 O          -3.6539  -15.9592  -47.1219 O.2       0 UNK        -0.5000 
      4 N          -1.7575  -17.0629  -47.6535 N.am      1 UNK        -0.5000 
      5 CA         -1.5630  -16.4995  -48.9927 C.3       1 UNK         0.1400 
      6 C6         -0.6207  -17.3977  -49.8322 C.3       23 UNK        -0.0398 
      7 S7         -0.8608  -17.1936  -51.6287 S.3       23 UNK        -0.2404 
      8 C8          0.6274  -16.2636  -52.1196 C.3       23 UNK        -0.0205 
      9 C9          1.7999  -17.1960  -52.3780 C.ar      23 UNK        -0.0193 
     10 C10         1.9829  -17.7576  -53.6447 C.ar      23 UNK        -0.1150 
     11 C11         3.0326  -18.6504  -53.8780 C.ar      23 UNK        -0.0193 
     12 C12         3.8950  -18.9856  -52.8312 C.ar      23 UNK        -0.1150 
     13 C13         3.7261  -18.4330  -51.5585 C.ar      23 UNK        -0.0193 
     14 C14         2.6917  -17.5123  -51.3501 C.ar      23 UNK        -0.1150 
     15 C15         4.6746  -18.8557  -50.4364 C.3       23 UNK        -0.0205 
     16 S16         3.9307  -18.8912  -48.7676 S.3       23 UNK        -0.2404 
     17 C17         2.4298  -19.9034  -49.0302 C.3       23 UNK        -0.0398 
     18 CA          2.0681  -20.8170  -47.8276 C.3       11 UNK         0.1400 
     19 N           2.0834  -20.1212  -46.5331 N.am      11 UNK        -0.5000 
     20 C           1.2683  -19.1300  -46.1490 C.2       10 UNK         0.5000 
     21 O           0.3668  -18.6664  -46.8492 O.2       10 UNK        -0.5000 
     22 CA          1.4900  -18.5871  -44.7257 C.3       10 UNK         0.1400 
     23 CB          1.3584  -17.0571  -44.6967 C.3       10 UNK        -0.1800 
     24 N           0.5734  -19.1696  -43.7402 N.am      10 UNK        -0.5000 
     25 C           0.4763  -20.4746  -43.4347 C.2       9 UNK         0.5000 
     26 O           1.1284  -21.3534  -44.0007 O.2       9 UNK        -0.5000 
     27 CA         -0.4844  -20.8926  -42.3027 C.3       9 UNK         0.1400 
     28 CB          0.2916  -21.5231  -41.1349 C.3       9 UNK        -0.1800 
     29 N          -1.2939  -19.7871  -41.7911 N.am      9 UNK        -0.5000 
     30 C          -2.4940  -19.4408  -42.2783 C.2       8 UNK         0.5000 
     31 O          -3.0513  -20.0390  -43.1981 O.2       8 UNK        -0.5000 
     32 CA         -3.2025  -18.2251  -41.6436 C.3       8 UNK         0.1400 
     33 CB         -4.3203  -18.6905  -40.6978 C.3       8 UNK        -0.1800 
     34 N          -2.3172  -17.3149  -40.9131 N.am      8 UNK        -0.5000 
     35 C          -1.3105  -16.6171  -41.4541 C.2       7 UNK         0.5000 
     36 O          -1.0087  -16.6835  -42.6443 O.2       7 UNK        -0.5000 
     37 CA         -0.4678  -15.7307  -40.5157 C.3       7 UNK         0.1400 
     38 CB         -1.0184  -15.6226  -39.0759 C.3       7 UNK        -0.1800 
     39 N           0.9339  -16.1540  -40.4894 N.am      7 UNK        -0.5000 
     40 C           1.4112  -17.3706  -40.1793 C.2       6 UNK         0.5000 
     41 O           0.6927  -18.3291  -39.8910 O.2       6 UNK        -0.5000 
     42 CA          2.9439  -17.5655  -40.1939 C.3       6 UNK         0.1400 
     43 CB          3.3696  -18.4283  -41.3915 C.3       6 UNK        -0.1800 
     44 N           3.6989  -16.3119  -40.2371 N.am      6 UNK        -0.5000 
     45 C           3.8186  -15.4399  -39.2263 C.2       5 UNK         0.5000 
     46 O           3.3893  -15.6479  -38.0912 O.2       5 UNK        -0.5000 
     47 CA          4.5071  -14.0944  -39.5455 C.3       5 UNK         0.1400 
     48 CB          5.9629  -14.1077  -39.0546 C.3       5 UNK        -0.1800 
     49 N           4.4879  -13.7216  -40.9674 N.am      5 UNK        -0.5000 
     50 C           3.3846  -13.5146  -41.6996 C.2       4 UNK         0.5000 
     51 O           2.2412  -13.6440  -41.2544 O.2       4 UNK        -0.5000 
     52 CA          3.6065  -13.1685  -43.1843 C.3       4 UNK         0.1400 
     53 CB          4.1497  -14.3860  -43.9506 C.3       4 UNK        -0.1800 
     54 N           2.3607  -12.7425  -43.8179 N.am      4 UNK        -0.5000 
     55 C           1.8227  -11.5222  -43.7226 C.2       3 UNK         0.5000 
     56 O           2.3875  -10.5750  -43.1712 O.2       3 UNK        -0.5000 
     57 CA          0.4298  -11.3349  -44.3671 C.3       3 UNK         0.1400 
     58 CB         -0.0473   -9.8712  -44.3367 C.3       3 UNK        -0.1800 
     59 N           0.3775  -11.8156  -45.7517 N.am      3 UNK        -0.5000 
     60 C           0.2649  -13.0952  -46.1260 C.2       2 UNK         0.5000 
     61 O           0.2165  -14.0361  -45.3304 O.2       2 UNK        -0.5000 
     62 CA          0.2450  -13.3693  -47.6346 C.3       2 UNK         0.1400 
     63 CB          1.6668  -13.3308  -48.2216 C.3       2 UNK        -0.1800 
     64 N          -0.3352  -14.6861  -47.8690 N.am      2 UNK        -0.5000 
     65 C          -1.0511  -15.0413  -48.9417 C.2       1 UNK         0.5000 
     66 O          -1.3121  -14.2704  -49.8664 O.2       1 UNK        -0.5000 
     67 C           0.7372  -21.5740  -48.0591 C.2       11 UNK         0.5000 
     68 O           0.2993  -21.7252  -49.2008 O.2       11 UNK        -0.5000 
     69 N           0.1006  -22.0295  -46.9698 N.am      12 UNK        -0.5000 
     70 CA         -1.2436  -22.6096  -46.9471 C.3       12 UNK         0.1400 
     71 CB         -1.8357  -22.4333  -45.5399 C.3       12 UNK        -0.1800 
     72 C          -1.3087  -24.0723  -47.4396 C.2       12 UNK         0.5000 
     73 O          -2.0294  -24.8855  -46.8579 O.2       12 UNK        -0.5000 
     74 N          -0.5924  -24.3795  -48.5280 N.am      13 UNK        -0.5000 
     75 CA         -0.5988  -25.6655  -49.2246 C.3       13 UNK         0.1400 
     76 CB          0.4849  -25.6499  -50.3132 C.3       13 UNK        -0.1800 
     77 C          -1.9895  -25.9343  -49.8228 C.2       13 UNK         0.5000 
     78 O          -2.3906  -25.2356  -50.7560 O.2       13 UNK        -0.5000 
     79 N          -2.7291  -26.8706  -49.2116 N.am      14 UNK        -0.5000 
     80 CA         -4.1453  -27.1674  -49.4644 C.3       14 UNK         0.1400 
     81 CB         -4.3277  -27.8149  -50.8535 C.3       14 UNK        -0.1800 
     82 C          -5.0457  -25.9297  -49.2525 C.2       14 UNK         0.5000 
     83 O          -5.9242  -25.6571  -50.0710 O.2       14 UNK        -0.5000 
     84 N          -4.7633  -25.1684  -48.1822 N.am      15 UNK        -0.5000 
     85 CA         -5.3674  -23.8732  -47.8411 C.3       15 UNK         0.1400 
     86 CB         -6.8639  -24.0289  -47.4982 C.3       15 UNK        -0.1800 
     87 C          -5.0999  -22.8054  -48.9236 C.2       15 UNK         0.5000 
     88 O          -5.9985  -22.0441  -49.2844 O.2       15 UNK        -0.5000 
     89 N          -3.8645  -22.8120  -49.4477 N.am      16 UNK        -0.5000 
     90 CA         -3.3676  -22.0156  -50.5737 C.3       16 UNK         0.1400 
     91 CB         -3.3104  -20.5159  -50.2142 C.3       16 UNK        -0.1800 
     92 C          -4.1796  -22.3153  -51.8478 C.2       16 UNK         0.5000 
     93 O          -4.7340  -21.4022  -52.4607 O.2       16 UNK        -0.5000 
     94 N          -4.2679  -23.6138  -52.1750 N.am      17 UNK        -0.5000 
     95 CA         -5.0528  -24.2153  -53.2576 C.3       17 UNK         0.1400 
     96 CB         -4.4087  -23.9005  -54.6230 C.3       17 UNK        -0.1800 
     97 C          -6.5466  -23.8343  -53.1885 C.2       17 UNK         0.5000 
     98 O          -7.1191  -23.3946  -54.1848 O.2       17 UNK        -0.5000 
     99 N          -7.1372  -23.9703  -51.9925 N.am      18 UNK        -0.5000 
    100 CA        -8.4970  -23.5556  -51.6280 C.3       18 UNK         0.1400 
    101 CB        -9.5416  -24.4693  -52.3012 C.3       18 UNK        -0.1800 
    102 C         -8.7414  -22.0525  -51.8896 C.2       18 UNK         0.5000 
    103 O         -9.7469  -21.6774  -52.4956 O.2       18 UNK        -0.5000 
    104 N         -7.7844  -21.2289  -51.4406 N.am      19 UNK        -0.5000 
    105 CA        -7.7057  -19.7726  -51.5830 C.3       19 UNK         0.1400 
    106 CB        -8.8701  -19.0818  -50.8427 C.3       19 UNK        -0.1800 
    107 C         -7.5375  -19.2685  -53.0353 C.2       19 UNK         0.5000 
    108 O         -7.7786  -18.0879  -53.2937 O.2       19 UNK        -0.5000 
    109 N         -7.0873  -20.1362  -53.9541 N.am      20 UNK        -0.5000 
    110 CA        -6.7144  -19.7692  -55.3261 C.3       20 UNK         0.1400 
    111 CB        -6.8505  -20.9938  -56.2428 C.3       20 UNK        -0.1800 
    112 C         -5.2946  -19.1689  -55.4260 C.2       20 UNK         0.5000 
    113 O         -4.9420  -18.6604  -56.4909 O.2       20 UNK        -0.5000 
    114 N         -4.5360  -19.2315  -54.3215 N.am      21 UNK        -0.5000 
    115 CA        -3.1509  -18.8138  -54.0911 C.3       21 UNK         0.1400 
    116 CB        -2.7830  -17.4861  -54.7866 C.3       21 UNK        -0.1800 
    117 C         -2.1499  -19.9330  -54.4200 C.2       21 UNK         0.5000 
    118 O         -2.4217  -20.7979  -55.2553 O.2       21 UNK        -0.5000 
    119 N         -0.9997  -19.8920  -53.7367 N.am      22 UNK        -0.5000 
    120 CA         0.1674  -20.7837  -53.8765 C.3       22 UNK         0.1400 
    121 C         -0.0377  -22.2610  -53.4246 C.2       22 UNK         0.5000 
    122 N         -1.2338  -22.8218  -53.5196 N.am      22 UNK        -0.7600 
    123 O          0.8998  -22.9004  -52.9581 O.2       22 UNK        -0.5000 
    124 C124        0.7919  -20.6932  -55.2975 C.3       23 UNK        -0.0398 
    125 S125        2.5949  -20.9737  -55.3244 S.3       23 UNK        -0.2404 
    126 C126        3.2326  -19.2692  -55.2532 C.3       23 UNK        -0.0205 
    127 H127       -3.6503  -18.0586  -45.3583 H         1 UNK         0.0600 
    128 H128       -2.7916  -16.6738  -44.6751 H         1 UNK         0.0600 
    129 H129       -1.8858  -18.0490  -45.3086 H         1 UNK         0.0600 
    130 H130       -1.0329  -17.7105  -47.3406 H         1 UNK         0.3000 
    131 H131       -2.5411  -16.4841  -49.4788 H         1 UNK         0.0600 
    132 H132        0.4207  -17.2345  -49.5560 H         1 UNK         0.0800 
    133 H133       -0.8204  -18.4485  -49.6155 H         1 UNK         0.0800 
    134 H134        0.4024  -15.6982  -53.0251 H         1 UNK         0.0800 
    135 H135        0.8806  -15.5244  -51.3581 H         1 UNK         0.0800 
    136 H136        1.2983  -17.5113  -54.4442 H         1 UNK         0.1150 
    137 H137        4.6953  -19.6906  -53.0094 H         1 UNK         0.1150 
    138 H138        2.5616  -17.0607  -50.3778 H         1 UNK         0.1150 
    139 H139        5.0781  -19.8481  -50.6442 H         1 UNK         0.0800 
    140 H140        5.5250  -18.1731  -50.4249 H         1 UNK         0.0800 
    141 H141        2.5687  -20.5113  -49.9262 H         1 UNK         0.0800 
    142 H142        1.6055  -19.2269  -49.2515 H         1 UNK         0.0800 
    143 H143        2.8381  -21.5868  -47.7610 H         1 UNK         0.0600 
    144 H144        2.7567  -20.4680  -45.8644 H         1 UNK         0.3000 
    145 H145        2.5075  -18.8385  -44.4215 H         1 UNK         0.0600 
    146 H146        2.0535  -16.5888  -45.3944 H         1 UNK         0.0600 
    147 H147        0.3539  -16.7364  -44.9744 H         1 UNK         0.0600 
    148 H148        1.5665  -16.6575  -43.7045 H         1 UNK         0.0600 
    149 H149       -0.0304  -18.5129  -43.2591 H         1 UNK         0.3000 
    150 H150       -1.1422  -21.6636  -42.7077 H         1 UNK         0.0600 
    151 H151        0.8506  -22.3999  -41.4642 H         1 UNK         0.0600 
    152 H152       -0.3836  -21.8494  -40.3438 H         1 UNK         0.0600 
    153 H153        1.0064  -20.8266  -40.6983 H         1 UNK         0.0600 
    154 H154       -0.8827  -19.2345  -41.0464 H         1 UNK         0.3000 
    155 H155       -3.6594  -17.6588  -42.4575 H         1 UNK         0.0600 
    156 H156       -5.0231  -19.3456  -41.2144 H         1 UNK         0.0600 
    157 H157       -4.8907  -17.8448  -40.3132 H         1 UNK         0.0600 
    158 H158       -3.9213  -19.2435  -39.8465 H         1 UNK         0.0600 
    159 H159       -2.4773  -17.2317  -39.9198 H         1 UNK         0.3000 
    160 H160       -0.4795  -14.7308  -40.9517 H         1 UNK         0.0600 
    161 H161       -1.0188  -16.5830  -38.5594 H         1 UNK         0.0600 
    162 H162       -2.0383  -15.2361  -39.0703 H         1 UNK         0.0600 
    163 H163       -0.4147  -14.9344  -38.4839 H         1 UNK         0.0600 
    164 H164        1.5937  -15.4245  -40.7403 H         1 UNK         0.3000 
    165 H165        3.2088  -18.0973  -39.2778 H         1 UNK         0.0600 
    166 H166        4.4288  -18.6803  -41.3374 H         1 UNK         0.0600 
    167 H167        2.8162  -19.3672  -41.4232 H         1 UNK         0.0600 
    168 H168        3.1976  -17.9111  -42.3345 H         1 UNK         0.0600 
    169 H169        4.0989  -16.0576  -41.1275 H         1 UNK         0.3000 
    170 H170        3.9681  -13.3203  -38.9955 H         1 UNK         0.0600 
    171 H171        6.0159  -14.3514  -37.9925 H         1 UNK         0.0600 
    172 H172        6.5611  -14.8455  -39.5907 H         1 UNK         0.0600 
    173 H173        6.4332  -13.1329  -39.1854 H         1 UNK         0.0600 
    174 H174        5.3903  -13.6083  -41.4068 H         1 UNK         0.3000 
    175 H175        4.3359  -12.3584  -43.2474 H         1 UNK         0.0600 
    176 H176        3.4954  -15.2508  -43.8473 H         1 UNK         0.0600 
    177 H177        4.2522  -14.1697  -45.0143 H         1 UNK         0.0600 
    178 H178        5.1353  -14.6764  -43.5855 H         1 UNK         0.0600 
    179 H179        1.7944  -13.4656  -44.2494 H         1 UNK         0.3000 
    180 H180       -0.2725  -11.9200  -43.7692 H         1 UNK         0.0600 
    181 H181        0.6142   -9.2201  -44.9093 H         1 UNK         0.0600 
    182 H182       -0.0818   -9.4905  -43.3151 H         1 UNK         0.0600 
    183 H183       -1.0520   -9.7754  -44.7489 H         1 UNK         0.0600 
    184 H184        0.4581  -11.1066  -46.4663 H         1 UNK         0.3000 
    185 H185       -0.3704  -12.6024  -48.1097 H         1 UNK         0.0600 
    186 H186        1.6551  -13.5143  -49.2962 H         1 UNK         0.0600 
    187 H187        2.3104  -14.0818  -47.7615 H         1 UNK         0.0600 
    188 H188        2.1324  -12.3572  -48.0644 H         1 UNK         0.0600 
    189 H189       -0.2293  -15.3370  -47.1010 H         1 UNK         0.3000 
    190 H190        0.5385  -21.8822  -46.0677 H         1 UNK         0.3000 
    191 H191       -1.8662  -22.0269  -47.6277 H         1 UNK         0.0600 
    192 H192       -2.8696  -22.7769  -45.4953 H         1 UNK         0.0600 
    193 H193       -1.2689  -22.9930  -44.7952 H         1 UNK         0.0600 
    194 H194       -1.8375  -21.3832  -45.2481 H         1 UNK         0.0600 
    195 H195       -0.0882  -23.6220  -48.9786 H         1 UNK         0.3000 
    196 H196       -0.3545  -26.4510  -48.5067 H         1 UNK         0.0600 
    197 H197        0.5023  -26.5928  -50.8608 H         1 UNK         0.0600 
    198 H198        1.4753  -25.5048  -49.8816 H         1 UNK         0.0600 
    199 H199        0.3172  -24.8519  -51.0379 H         1 UNK         0.0600 
    200 H200       -2.3207  -27.3578  -48.4256 H         1 UNK         0.3000 
    201 H201       -4.4513  -27.8990  -48.7153 H         1 UNK         0.0600 
    202 H202       -3.6996  -28.6991  -50.9603 H         1 UNK         0.0600 
    203 H203       -4.0757  -27.1270  -51.6607 H         1 UNK         0.0600 
    204 H204       -5.3603  -28.1313  -51.0048 H         1 UNK         0.0600 
    205 H205       -3.9890  -25.4514  -47.5911 H         1 UNK         0.3000 
    206 H206       -4.8600  -23.5254  -46.9404 H         1 UNK         0.0600 
    207 H207       -7.0137  -24.7797  -46.7225 H         1 UNK         0.0600 
    208 H208       -7.2775  -23.0912  -47.1253 H         1 UNK         0.0600 
    209 H209       -7.4549  -24.3216  -48.3660 H         1 UNK         0.0600 
    210 H210       -3.2499  -23.5559  -49.1541 H         1 UNK         0.3000 
    211 H211       -2.3455  -22.3463  -50.7665 H         1 UNK         0.0600 
    212 H212       -4.3032  -20.0919  -50.0621 H         1 UNK         0.0600 
    213 H213       -2.8290  -19.9470  -51.0093 H         1 UNK         0.0600 
    214 H214       -2.7314  -20.3494  -49.3060 H         1 UNK         0.0600 
    215 H215       -3.7448  -24.2729  -51.6024 H         1 UNK         0.3000 
    216 H216       -5.0091  -25.2953  -53.1119 H         1 UNK         0.0600 
    217 H217       -4.9737  -24.3510  -55.4398 H         1 UNK         0.0600 
    218 H218       -3.3959  -24.2976  -54.6791 H         1 UNK         0.0600 
    219 H219       -4.3589  -22.8276  -54.8093 H         1 UNK         0.0600 
    220 H220       -6.5972  -24.3991  -51.2431 H         1 UNK         0.3000 
    221 H221       -8.5813  -23.6964  -50.5496 H         1 UNK         0.0600 
    222 H222       -9.5402  -24.3575  -53.3859 H         1 UNK         0.0600 
    223 H223       -9.3522  -25.5179  -52.0718 H         1 UNK         0.0600 
    224 H224      -10.5474  -24.2368  -51.9496 H         1 UNK         0.0600 
    225 H225       -7.0122  -21.6416  -50.9236 H         1 UNK         0.3000 
    226 H226       -6.7852  -19.4876  -51.0714 H         1 UNK         0.0600 
    227 H227       -8.9527  -19.4408  -49.8168 H         1 UNK         0.0600 
    228 H228       -8.7195  -18.0028  -50.7946 H         1 UNK         0.0600 
    229 H229       -9.8256  -19.2550  -51.3382 H         1 UNK         0.0600 
    230 H230       -6.8965  -21.0900  -53.6713 H         1 UNK         0.3000 
    231 H231       -7.4125  -19.0108  -55.6864 H         1 UNK         0.0600 
    232 H232       -6.1086  -21.7557  -56.0067 H         1 UNK         0.0600 
    233 H233       -6.7078  -20.7158  -57.2876 H         1 UNK         0.0600 
    234 H234       -7.8389  -21.4458  -56.1583 H         1 UNK         0.0600 
    235 H235       -4.9119  -19.7989  -53.5670 H         1 UNK         0.3000 
    236 H236       -3.0983  -18.6413  -53.0161 H         1 UNK         0.0600 
    237 H237       -3.5179  -16.7096  -54.5751 H         1 UNK         0.0600 
    238 H238       -1.8161  -17.1196  -54.4422 H         1 UNK         0.0600 
    239 H239       -2.7057  -17.5982  -55.8680 H         1 UNK         0.0600 
    240 H240       -0.8819  -19.1548  -53.0537 H         1 UNK         0.3000 
    241 H241        0.8862  -20.3729  -53.1670 H         1 UNK         0.0600 
    242 H242       -1.3640  -23.7737  -53.2176 H         1 UNK         0.3800 
    243 H243       -1.9710  -22.3231  -54.0033 H         1 UNK         0.3800 
    244 H244        0.3141  -21.4020  -55.9762 H         1 UNK         0.0800 
    245 H245        0.6018  -19.7111  -55.7321 H         1 UNK         0.0800 
    246 H246        2.7600  -18.6618  -56.0266 H         1 UNK         0.0800 
    247 H247        4.2975  -19.2832  -55.4896 H         1 UNK         0.0800 
@<TRIPOS>BOND
     1    1    2 1    
     2    1  127 1    
     3    1  128 1    
     4    1  129 1    
     5    2    3 2    
     6    2    4 am   BACKBONE|DICT|INTERRES
     7    4    5 1    
     8    4  130 1    
     9    5    6 1    
    10    5   65 1    
    11    5  131 1    
    12    6    7 1    
    13    6  132 1    
    14    6  133 1    
    15    7    8 1    
    16    8    9 1    
    17    8  134 1    
    18    8  135 1    
    19    9   10 ar   
    20    9   14 ar   
    21   10   11 ar   
    22   10  136 1    
    23   11   12 ar   
    24   11  126 1    
    25   12   13 ar   
    26   12  137 1    
    27   13   14 ar   
    28   13   15 1    
    29   14  138 1    
    30   15   16 1    
    31   15  139 1    
    32   15  140 1    
    33   16   17 1    
    34   17   18 1    
    35   17  141 1    
    36   17  142 1    
    37   18   19 1    
    38   18   67 1    
    39   18  143 1    
    40   19   20 am   BACKBONE|DICT|INTERRES
    41   19  144 1    
    42   20   21 2    
    43   20   22 1    
    44   22   23 1    
    45   22   24 1    
    46   22  145 1    
    47   23  146 1    
    48   23  147 1    
    49   23  148 1    
    50   24   25 am   BACKBONE|DICT|INTERRES
    51   24  149 1    
    52   25   26 2    
    53   25   27 1    
    54   27   28 1    
    55   27   29 1    
    56   27  150 1    
    57   28  151 1    
    58   28  152 1    
    59   28  153 1    
    60   29   30 am   BACKBONE|DICT|INTERRES
    61   29  154 1    
    62   30   31 2    
    63   30   32 1    
    64   32   33 1    
    65   32   34 1    
    66   32  155 1    
    67   33  156 1    
    68   33  157 1    
    69   33  158 1    
    70   34   35 am   BACKBONE|DICT|INTERRES
    71   34  159 1    
    72   35   36 2    
    73   35   37 1    
    74   37   38 1    
    75   37   39 1    
    76   37  160 1    
    77   38  161 1    
    78   38  162 1    
    79   38  163 1    
    80   39   40 am   BACKBONE|DICT|INTERRES
    81   39  164 1    
    82   40   41 2    
    83   40   42 1    
    84   42   43 1    
    85   42   44 1    
    86   42  165 1    
    87   43  166 1    
    88   43  167 1    
    89   43  168 1    
    90   44   45 am   BACKBONE|DICT|INTERRES
    91   44  169 1    
    92   45   46 2    
    93   45   47 1    
    94   47   48 1    
    95   47   49 1    
    96   47  170 1    
    97   48  171 1    
    98   48  172 1    
    99   48  173 1    
   100   49   50 am   BACKBONE|DICT|INTERRES
   101   49  174 1    
   102   50   51 2    
   103   50   52 1    
   104   52   53 1    
   105   52   54 1    
   106   52  175 1    
   107   53  176 1    
   108   53  177 1    
   109   53  178 1    
   110   54   55 am   BACKBONE|DICT|INTERRES
   111   54  179 1    
   112   55   56 2    
   113   55   57 1    
   114   57   58 1    
   115   57   59 1    
   116   57  180 1    
   117   58  181 1    
   118   58  182 1    
   119   58  183 1    
   120   59   60 am   BACKBONE|DICT|INTERRES
   121   59  184 1    
   122   60   61 2    
   123   60   62 1    
   124   62   63 1    
   125   62   64 1    
   126   62  185 1    
   127   63  186 1    
   128   63  187 1    
   129   63  188 1    
   130   64   65 am   BACKBONE|DICT|INTERRES
   131   64  189 1    
   132   65   66 2    
   133   67   68 2    
   134   67   69 am   BACKBONE|DICT|INTERRES
   135   69   70 1    
   136   69  190 1    
   137   70   71 1    
   138   70   72 1    
   139   70  191 1    
   140   71  192 1    
   141   71  193 1    
   142   71  194 1    
   143   72   73 2    
   144   72   74 am   BACKBONE|DICT|INTERRES
   145   74   75 1    
   146   74  195 1    
   147   75   76 1    
   148   75   77 1    
   149   75  196 1    
   150   76  197 1    
   151   76  198 1    
   152   76  199 1    
   153   77   78 2    
   154   77   79 am   BACKBONE|DICT|INTERRES
   155   79   80 1    
   156   79  200 1    
   157   80   81 1    
   158   80   82 1    
   159   80  201 1    
   160   81  202 1    
   161   81  203 1    
   162   81  204 1    
   163   82   83 2    
   164   82   84 am   BACKBONE|DICT|INTERRES
   165   84   85 1    
   166   84  205 1    
   167   85   86 1    
   168   85   87 1    
   169   85  206 1    
   170   86  207 1    
   171   86  208 1    
   172   86  209 1    
   173   87   88 2    
   174   87   89 am   BACKBONE|DICT|INTERRES
   175   89   90 1    
   176   89  210 1    
   177   90   91 1    
   178   90   92 1    
   179   90  211 1    
   180   91  212 1    
   181   91  213 1    
   182   91  214 1    
   183   92   93 2    
   184   92   94 am   BACKBONE|DICT|INTERRES
   185   94   95 1    
   186   94  215 1    
   187   95   96 1    
   188   95   97 1    
   189   95  216 1    
   190   96  217 1    
   191   96  218 1    
   192   96  219 1    
   193   97   98 2    
   194   97   99 am   BACKBONE|DICT|INTERRES
   195   99  100 1    
   196   99  220 1    
   197  100  101 1    
   198  100  102 1    
   199  100  221 1    
   200  101  222 1    
   201  101  223 1    
   202  101  224 1    
   203  102  103 2    
   204  102  104 am   BACKBONE|DICT|INTERRES
   205  104  105 1    
   206  104  225 1    
   207  105  106 1    
   208  105  107 1    
   209  105  226 1    
   210  106  227 1    
   211  106  228 1    
   212  106  229 1    
   213  107  108 2    
   214  107  109 am   BACKBONE|DICT|INTERRES
   215  109  110 1    
   216  109  230 1    
   217  110  111 1    
   218  110  112 1    
   219  110  231 1    
   220  111  232 1    
   221  111  233 1    
   222  111  234 1    
   223  112  113 2    
   224  112  114 am   BACKBONE|DICT|INTERRES
   225  114  115 1    
   226  114  235 1    
   227  115  116 1    
   228  115  117 1    
   229  115  236 1    
   230  116  237 1    
   231  116  238 1    
   232  116  239 1    
   233  117  118 2    
   234  117  119 am   BACKBONE|DICT|INTERRES
   235  119  120 1    
   236  119  240 1    
   237  120  121 1    
   238  120  124 1    
   239  120  241 1    
   240  121  122 am   BACKBONE|DICT|INTERRES
   241  121  123 2    
   242  122  242 1    
   243  122  243 1    
   244  124  125 1    
   245  124  244 1    
   246  124  245 1    
   247  125  126 1    
   248  126  246 1    
   249  126  247 1    
@<TRIPOS>SUBSTRUCTURE
     1 UNK         1 GROUP             0       ****    0 ROOT    
