@<TRIPOS>MOLECULE
3R540
247   249    1
SMALL
USER_CHARGES


@<TRIPOS>ATOM
      1 CA          1.1142  -13.6509  -40.3872 C.3       0 UNK        -0.1800 
      2 C           0.6824  -12.8602  -41.6137 C.2       0 UNK         0.5000 
      3 O           0.7217  -11.6292  -41.5987 O.2       0 UNK        -0.5000 
      4 N           0.2808  -13.5602  -42.6819 N.am      1 UNK        -0.5000 
      5 CA         -0.1969  -13.0040  -43.9554 C.3       1 UNK         0.1400 
      6 C6         -1.1056  -14.0067  -44.7145 C.3       23 UNK        -0.0398 
      7 S7         -2.5671  -14.4771  -43.7267 S.3       23 UNK        -0.2404 
      8 C8         -3.9240  -14.2959  -44.9283 C.3       23 UNK        -0.0205 
      9 C9         -3.9641  -15.4580  -45.9090 C.ar      23 UNK        -0.0193 
     10 C10        -3.6320  -15.2711  -47.2537 C.ar      23 UNK        -0.1150 
     11 C11        -3.6706  -16.3448  -48.1509 C.ar      23 UNK        -0.0193 
     12 C12        -4.0186  -17.6174  -47.6843 C.ar      23 UNK        -0.1150 
     13 C13        -4.3425  -17.8178  -46.3395 C.ar      23 UNK        -0.0193 
     14 C14        -4.3325  -16.7299  -45.4631 C.ar      23 UNK        -0.1150 
     15 C15        -4.6496  -19.2114  -45.8119 C.3       23 UNK        -0.0205 
     16 S16        -3.2130  -19.8365  -44.8951 S.3       23 UNK        -0.2404 
     17 C17        -3.7311  -21.4896  -44.3328 C.3       23 UNK        -0.0398 
     18 CA         -3.1443  -22.6286  -45.2015 C.3       11 UNK         0.1400 
     19 N          -1.7054  -22.4705  -45.4630 N.am      11 UNK        -0.5000 
     20 C          -0.9671  -23.2384  -46.2769 C.2       10 UNK         0.5000 
     21 O          -1.4059  -24.2382  -46.8480 O.2       10 UNK        -0.5000 
     22 CA          0.4925  -22.8225  -46.5144 C.3       10 UNK         0.1400 
     23 CB          0.6165  -22.0936  -47.8616 C.3       10 UNK        -0.1800 
     24 N           1.0194  -21.9670  -45.4497 N.am      10 UNK        -0.5000 
     25 C           1.5240  -22.4241  -44.2946 C.2       9 UNK         0.5000 
     26 O           1.5575  -23.6186  -43.9970 O.2       9 UNK        -0.5000 
     27 CA          2.0984  -21.3885  -43.3059 C.3       9 UNK         0.1400 
     28 CB          3.6199  -21.2703  -43.4818 C.3       9 UNK        -0.1800 
     29 N           1.5061  -20.0581  -43.4416 N.am      9 UNK        -0.5000 
     30 C           0.2681  -19.7333  -43.0455 C.2       8 UNK         0.5000 
     31 O          -0.4935  -20.5184  -42.4801 O.2       8 UNK        -0.5000 
     32 CA         -0.2075  -18.2977  -43.3542 C.3       8 UNK         0.1400 
     33 CB          0.0785  -17.3702  -42.1634 C.3       8 UNK        -0.1800 
     34 N           0.3650  -17.7027  -44.5672 N.am      8 UNK        -0.5000 
     35 C           0.3619  -18.2362  -45.7986 C.2       7 UNK         0.5000 
     36 O          -0.0805  -19.3534  -46.0576 O.2       7 UNK        -0.5000 
     37 CA          0.9815  -17.4021  -46.9362 C.3       7 UNK         0.1400 
     38 CB         -0.1293  -16.8451  -47.8349 C.3       7 UNK        -0.1800 
     39 N           1.8402  -16.2987  -46.4923 N.am      7 UNK        -0.5000 
     40 C           3.0023  -16.4388  -45.8385 C.2       6 UNK         0.5000 
     41 O           3.4612  -17.5266  -45.4852 O.2       6 UNK        -0.5000 
     42 CA          3.7468  -15.1291  -45.5175 C.3       6 UNK         0.1400 
     43 CB          5.1461  -15.3454  -44.9044 C.3       6 UNK        -0.1800 
     44 N           3.7959  -14.2249  -46.6719 N.am      6 UNK        -0.5000 
     45 C           4.4559  -14.4087  -47.8257 C.2       5 UNK         0.5000 
     46 O           5.1366  -15.4035  -48.0809 O.2       5 UNK        -0.5000 
     47 CA          4.3415  -13.2631  -48.8530 C.3       5 UNK         0.1400 
     48 CB          4.8869  -13.6315  -50.2495 C.3       5 UNK        -0.1800 
     49 N           2.9876  -12.7052  -48.9387 N.am      5 UNK        -0.5000 
     50 C           1.8772  -13.3188  -49.3794 C.2       4 UNK         0.5000 
     51 O           1.8616  -14.4766  -49.7961 O.2       4 UNK        -0.5000 
     52 CA          0.5631  -12.5082  -49.3444 C.3       4 UNK         0.1400 
     53 CB         -0.6362  -13.3759  -48.9282 C.3       4 UNK        -0.1800 
     54 N           0.6573  -11.3783  -48.4217 N.am      4 UNK        -0.5000 
     55 C           0.8181  -10.0941  -48.7673 C.2       3 UNK         0.5000 
     56 O           0.8394   -9.6952  -49.9318 O.2       3 UNK        -0.5000 
     57 CA          1.0160   -9.0834  -47.6174 C.3       3 UNK         0.1400 
     58 CB         -0.2987   -8.3466  -47.3199 C.3       3 UNK        -0.1800 
     59 N           1.5084   -9.6917  -46.3774 N.am      3 UNK        -0.5000 
     60 C           2.7055  -10.2753  -46.2241 C.2       2 UNK         0.5000 
     61 O           3.5557  -10.3357  -47.1121 O.2       2 UNK        -0.5000 
     62 CA          2.9645  -10.9756  -44.8778 C.3       2 UNK         0.1400 
     63 CB          3.6032  -10.0031  -43.8764 C.3       2 UNK        -0.1800 
     64 N           1.7613  -11.5611  -44.2790 N.am      2 UNK        -0.5000 
     65 C           0.9871  -12.5122  -44.8182 C.2       1 UNK         0.5000 
     66 O           1.2000  -13.0059  -45.9284 O.2       1 UNK        -0.5000 
     67 C          -3.4912  -24.0044  -44.5952 C.2       11 UNK         0.5000 
     68 O          -4.5361  -24.5673  -44.9220 O.2       11 UNK        -0.5000 
     69 N          -2.5739  -24.5466  -43.7808 N.am      12 UNK        -0.5000 
     70 CA         -2.6447  -25.8839  -43.1863 C.3       12 UNK         0.1400 
     71 CB         -1.5234  -26.0179  -42.1447 C.3       12 UNK        -0.1800 
     72 C          -2.5602  -27.0297  -44.2170 C.2       12 UNK         0.5000 
     73 O          -3.0279  -28.1321  -43.9316 O.2       12 UNK        -0.5000 
     74 N          -1.9942  -26.7467  -45.3975 N.am      13 UNK        -0.5000 
     75 CA         -1.8986  -27.6509  -46.5428 C.3       13 UNK         0.1400 
     76 CB         -0.4640  -27.5885  -47.0994 C.3       13 UNK        -0.1800 
     77 C          -2.9499  -27.2943  -47.6138 C.2       13 UNK         0.5000 
     78 O          -2.7041  -27.5038  -48.8022 O.2       13 UNK        -0.5000 
     79 N          -4.0901  -26.7293  -47.1848 N.am      14 UNK        -0.5000 
     80 CA         -5.2102  -26.2572  -48.0076 C.3       14 UNK         0.1400 
     81 CB         -5.9157  -27.4386  -48.7065 C.3       14 UNK        -0.1800 
     82 C          -4.7855  -25.1433  -48.9855 C.2       14 UNK         0.5000 
     83 O          -5.1473  -25.1762  -50.1622 O.2       14 UNK        -0.5000 
     84 N          -3.9803  -24.1999  -48.4757 N.am      15 UNK        -0.5000 
     85 CA         -3.3373  -23.1012  -49.2047 C.3       15 UNK         0.1400 
     86 CB         -4.3840  -22.1015  -49.7303 C.3       15 UNK        -0.1800 
     87 C          -2.3847  -23.6346  -50.2923 C.2       15 UNK         0.5000 
     88 O          -2.4504  -23.2016  -51.4431 O.2       15 UNK        -0.5000 
     89 N          -1.5498  -24.6084  -49.8962 N.am      16 UNK        -0.5000 
     90 CA         -0.6364  -25.3944  -50.7341 C.3       16 UNK         0.1400 
     91 CB          0.5388  -24.5214  -51.2231 C.3       16 UNK        -0.1800 
     92 C          -1.3748  -26.1044  -51.8884 C.2       16 UNK         0.5000 
     93 O          -0.9978  -25.9518  -53.0498 O.2       16 UNK        -0.5000 
     94 N          -2.4559  -26.8218  -51.5488 N.am      17 UNK        -0.5000 
     95 CA         -3.4102  -27.4598  -52.4660 C.3       17 UNK         0.1400 
     96 CB         -2.7685  -28.6855  -53.1477 C.3       17 UNK        -0.1800 
     97 C          -4.0195  -26.4545  -53.4704 C.2       17 UNK         0.5000 
     98 O          -4.0893  -26.7270  -54.6700 O.2       17 UNK        -0.5000 
     99 N          -4.4086  -25.2878  -52.9405 N.am      18 UNK        -0.5000 
    100 CA        -4.9405  -24.1018  -53.6143 C.3       18 UNK         0.1400 
    101 CB        -6.2774  -24.4168  -54.3153 C.3       18 UNK        -0.1800 
    102 C         -3.9513  -23.3636  -54.5446 C.2       18 UNK         0.5000 
    103 O         -4.3693  -22.4253  -55.2251 O.2       18 UNK        -0.5000 
    104 N         -2.6640  -23.7423  -54.5553 N.am      19 UNK        -0.5000 
    105 CA        -1.6267  -23.0756  -55.3503 C.3       19 UNK         0.1400 
    106 CB        -0.3969  -23.9868  -55.4720 C.3       19 UNK        -0.1800 
    107 C         -1.2181  -21.7025  -54.7820 C.2       19 UNK         0.5000 
    108 O         -0.7496  -20.8531  -55.5407 O.2       19 UNK        -0.5000 
    109 N         -1.4086  -21.5064  -53.4721 N.am      20 UNK        -0.5000 
    110 CA        -1.1238  -20.2754  -52.7383 C.3       20 UNK         0.1400 
    111 CB        -0.0617  -20.5739  -51.6626 C.3       20 UNK        -0.1800 
    112 C         -2.4186  -19.6951  -52.1374 C.2       20 UNK         0.5000 
    113 O         -2.3770  -19.0990  -51.0614 O.2       20 UNK        -0.5000 
    114 N         -3.5536  -19.9002  -52.8215 N.am      21 UNK        -0.5000 
    115 CA        -4.8703  -19.3982  -52.4276 C.3       21 UNK         0.1400 
    116 CB        -5.9478  -20.1115  -53.2584 C.3       21 UNK        -0.1800 
    117 C         -4.9977  -17.8707  -52.5795 C.2       21 UNK         0.5000 
    118 O         -4.3665  -17.2782  -53.4582 O.2       21 UNK        -0.5000 
    119 N         -5.8499  -17.2830  -51.7355 N.am      22 UNK        -0.5000 
    120 CA        -6.2442  -15.8690  -51.7401 C.3       22 UNK         0.1400 
    121 C         -7.7813  -15.7678  -51.9222 C.2       22 UNK         0.5000 
    122 N         -8.2627  -14.7647  -52.6431 N.am      22 UNK        -0.7600 
    123 O         -8.5454  -16.5705  -51.3891 O.2       22 UNK        -0.5000 
    124 C124       -5.8102  -15.1571  -50.4312 C.3       23 UNK        -0.0398 
    125 S125       -4.0409  -14.7143  -50.4208 S.3       23 UNK        -0.2404 
    126 C126       -3.2843  -16.1626  -49.6140 C.3       23 UNK        -0.0205 
    127 H127        0.4943  -13.3830  -39.5317 H         1 UNK         0.0600 
    128 H128        2.1520  -13.4249  -40.1420 H         1 UNK         0.0600 
    129 H129        1.0284  -14.7261  -40.5457 H         1 UNK         0.0600 
    130 H130        0.2647  -14.5662  -42.6198 H         1 UNK         0.3000 
    131 H131       -0.8032  -12.1222  -43.7366 H         1 UNK         0.0600 
    132 H132       -0.5593  -14.9139  -44.9742 H         1 UNK         0.0800 
    133 H133       -1.4402  -13.5724  -45.6578 H         1 UNK         0.0800 
    134 H134       -4.8693  -14.2611  -44.3852 H         1 UNK         0.0800 
    135 H135       -3.8371  -13.3407  -45.4484 H         1 UNK         0.0800 
    136 H136       -3.3399  -14.2913  -47.6037 H         1 UNK         0.1150 
    137 H137       -4.0122  -18.4584  -48.3639 H         1 UNK         0.1150 
    138 H138       -4.5729  -16.8815  -44.4201 H         1 UNK         0.1150 
    139 H139       -5.5218  -19.1775  -45.1574 H         1 UNK         0.0800 
    140 H140       -4.8884  -19.8937  -46.6293 H         1 UNK         0.0800 
    141 H141       -4.8212  -21.5411  -44.3128 H         1 UNK         0.0800 
    142 H142       -3.4006  -21.5916  -43.2973 H         1 UNK         0.0800 
    143 H143       -3.6423  -22.5748  -46.1704 H         1 UNK         0.0600 
    144 H144       -1.2755  -21.6450  -45.0670 H         1 UNK         0.3000 
    145 H145        1.0898  -23.7351  -46.5695 H         1 UNK         0.0600 
    146 H146        0.0034  -21.1929  -47.8972 H         1 UNK         0.0600 
    147 H147        1.6484  -21.8069  -48.0643 H         1 UNK         0.0600 
    148 H148        0.2905  -22.7332  -48.6805 H         1 UNK         0.0600 
    149 H149        0.9384  -20.9659  -45.5992 H         1 UNK         0.3000 
    150 H150        1.9001  -21.7531  -42.2957 H         1 UNK         0.0600 
    151 H151        4.1043  -22.2410  -43.3673 H         1 UNK         0.0600 
    152 H152        4.0525  -20.6027  -42.7364 H         1 UNK         0.0600 
    153 H153        3.8819  -20.8860  -44.4686 H         1 UNK         0.0600 
    154 H154        2.0614  -19.3563  -43.9114 H         1 UNK         0.3000 
    155 H155       -1.2878  -18.3326  -43.4902 H         1 UNK         0.0600 
    156 H156       -0.3105  -17.7927  -41.2359 H         1 UNK         0.0600 
    157 H157       -0.4022  -16.4019  -42.2974 H         1 UNK         0.0600 
    158 H158        1.1481  -17.2063  -42.0264 H         1 UNK         0.0600 
    159 H159        0.7887  -16.7954  -44.4626 H         1 UNK         0.3000 
    160 H160        1.5944  -18.0801  -47.5336 H         1 UNK         0.0600 
    161 H161       -0.7615  -16.1378  -47.2979 H         1 UNK         0.0600 
    162 H162       -0.7740  -17.6455  -48.2016 H         1 UNK         0.0600 
    163 H163        0.2827  -16.3414  -48.7082 H         1 UNK         0.0600 
    164 H164        1.5516  -15.3663  -46.7558 H         1 UNK         0.3000 
    165 H165        3.1474  -14.6238  -44.7598 H         1 UNK         0.0600 
    166 H166        5.8013  -15.9108  -45.5673 H         1 UNK         0.0600 
    167 H167        5.6305  -14.3944  -44.6834 H         1 UNK         0.0600 
    168 H168        5.0777  -15.8996  -43.9676 H         1 UNK         0.0600 
    169 H169        3.1849  -13.4205  -46.6081 H         1 UNK         0.3000 
    170 H170        4.9693  -12.4586  -48.4674 H         1 UNK         0.0600 
    171 H171        4.3611  -14.4830  -50.6820 H         1 UNK         0.0600 
    172 H172        4.7972  -12.7941  -50.9414 H         1 UNK         0.0600 
    173 H173        5.9437  -13.8956  -50.1971 H         1 UNK         0.0600 
    174 H174        2.8984  -11.7571  -48.5934 H         1 UNK         0.3000 
    175 H175        0.3830  -12.1537  -50.3611 H         1 UNK         0.0600 
    176 H176       -0.4922  -13.8137  -47.9412 H         1 UNK         0.0600 
    177 H177       -1.5573  -12.7934  -48.9059 H         1 UNK         0.0600 
    178 H178       -0.7900  -14.1912  -49.6346 H         1 UNK         0.0600 
    179 H179        0.6954  -11.6271  -47.4408 H         1 UNK         0.3000 
    180 H180        1.7543   -8.3504  -47.9492 H         1 UNK         0.0600 
    181 H181       -0.6821   -7.8539  -48.2145 H         1 UNK         0.0600 
    182 H182       -0.1569   -7.5757  -46.5623 H         1 UNK         0.0600 
    183 H183       -1.0714   -9.0299  -46.9650 H         1 UNK         0.0600 
    184 H184        0.8738   -9.6947  -45.5923 H         1 UNK         0.3000 
    185 H185        3.6722  -11.7865  -45.0593 H         1 UNK         0.0600 
    186 H186        3.8706  -10.5114  -42.9497 H         1 UNK         0.0600 
    187 H187        4.5169   -9.5667  -44.2823 H         1 UNK         0.0600 
    188 H188        2.9292   -9.1828  -43.6261 H         1 UNK         0.0600 
    189 H189        1.5250  -11.2556  -43.3389 H         1 UNK         0.3000 
    190 H190       -1.7354  -24.0161  -43.5913 H         1 UNK         0.3000 
    191 H191       -3.6045  -25.9747  -42.6736 H         1 UNK         0.0600 
    192 H192       -0.5377  -25.9075  -42.5993 H         1 UNK         0.0600 
    193 H193       -1.6188  -25.2646  -41.3625 H         1 UNK         0.0600 
    194 H194       -1.5541  -26.9942  -41.6590 H         1 UNK         0.0600 
    195 H195       -1.6806  -25.7988  -45.5734 H         1 UNK         0.3000 
    196 H196       -2.0951  -28.6791  -46.2335 H         1 UNK         0.0600 
    197 H197        0.2666  -27.8373  -46.3297 H         1 UNK         0.0600 
    198 H198       -0.2211  -26.5967  -47.4816 H         1 UNK         0.0600 
    199 H199       -0.3262  -28.2989  -47.9155 H         1 UNK         0.0600 
    200 H200       -4.1825  -26.5557  -46.1926 H         1 UNK         0.3000 
    201 H201       -5.9271  -25.8033  -47.3218 H         1 UNK         0.0600 
    202 H202       -6.8168  -27.1045  -49.2221 H         1 UNK         0.0600 
    203 H203       -6.2180  -28.1984  -47.9859 H         1 UNK         0.0600 
    204 H204       -5.2750  -27.9162  -49.4480 H         1 UNK         0.0600 
    205 H205       -3.6768  -24.3228  -47.5201 H         1 UNK         0.3000 
    206 H206       -2.7161  -22.5601  -48.4921 H         1 UNK         0.0600 
    207 H207       -5.0589  -21.7813  -48.9368 H         1 UNK         0.0600 
    208 H208       -4.9858  -22.5179  -50.5379 H         1 UNK         0.0600 
    209 H209       -3.8899  -21.2102  -50.1108 H         1 UNK         0.0600 
    210 H210       -1.5878  -24.8773  -48.9203 H         1 UNK         0.3000 
    211 H211       -0.2263  -26.1817  -50.1001 H         1 UNK         0.0600 
    212 H212        1.0941  -24.0994  -50.3868 H         1 UNK         0.0600 
    213 H213        1.2448  -25.1105  -51.8095 H         1 UNK         0.0600 
    214 H214        0.2003  -23.6984  -51.8530 H         1 UNK         0.0600 
    215 H215       -2.6641  -26.9254  -50.5572 H         1 UNK         0.3000 
    216 H216       -4.2364  -27.8170  -51.8497 H         1 UNK         0.0600 
    217 H217       -3.5017  -29.2283  -53.7451 H         1 UNK         0.0600 
    218 H218       -1.9523  -28.3992  -53.8118 H         1 UNK         0.0600 
    219 H219       -2.3716  -29.3825  -52.4097 H         1 UNK         0.0600 
    220 H220       -4.3449  -25.1955  -51.9299 H         1 UNK         0.3000 
    221 H221       -5.1558  -23.4006  -52.8084 H         1 UNK         0.0600 
    222 H222       -6.1390  -25.0671  -55.1793 H         1 UNK         0.0600 
    223 H223       -6.9741  -24.9050  -53.6338 H         1 UNK         0.0600 
    224 H224       -6.7591  -23.5044  -54.6689 H         1 UNK         0.0600 
    225 H225       -2.3635  -24.5027  -53.9563 H         1 UNK         0.3000 
    226 H226       -2.0216  -22.9139  -56.3556 H         1 UNK         0.0600 
    227 H227       -0.6705  -24.9798  -55.8293 H         1 UNK         0.0600 
    228 H228        0.3239  -23.5726  -56.1779 H         1 UNK         0.0600 
    229 H229        0.1153  -24.1002  -54.5162 H         1 UNK         0.0600 
    230 H230       -1.8236  -22.2522  -52.9150 H         1 UNK         0.3000 
    231 H231       -0.7226  -19.5123  -53.4076 H         1 UNK         0.0600 
    232 H232        0.2352  -19.6645  -51.1387 H         1 UNK         0.0600 
    233 H233        0.8383  -21.0007  -52.1052 H         1 UNK         0.0600 
    234 H234       -0.4322  -21.2766  -50.9158 H         1 UNK         0.0600 
    235 H235       -3.5010  -20.3881  -53.7041 H         1 UNK         0.3000 
    236 H236       -5.0299  -19.6463  -51.3770 H         1 UNK         0.0600 
    237 H237       -5.9422  -21.1843  -53.0723 H         1 UNK         0.0600 
    238 H238       -6.9452  -19.7480  -53.0076 H         1 UNK         0.0600 
    239 H239       -5.8003  -19.9550  -54.3278 H         1 UNK         0.0600 
    240 H240       -6.3818  -17.8585  -51.0976 H         1 UNK         0.3000 
    241 H241       -5.7827  -15.3574  -52.5874 H         1 UNK         0.0600 
    242 H242       -9.2610  -14.6804  -52.7591 H         1 UNK         0.3800 
    243 H243       -7.6568  -14.0881  -53.0823 H         1 UNK         0.3800 
    244 H244       -6.3541  -14.2188  -50.3064 H         1 UNK         0.0800 
    245 H245       -6.0554  -15.7593  -49.5549 H         1 UNK         0.0800 
    246 H246       -2.2007  -16.0798  -49.6843 H         1 UNK         0.0800 
    247 H247       -3.5555  -17.0470  -50.1850 H         1 UNK         0.0800 
@<TRIPOS>BOND
     1    1    2 1    
     2    1  127 1    
     3    1  128 1    
     4    1  129 1    
     5    2    3 2    
     6    2    4 am   BACKBONE|DICT|INTERRES
     7    4    5 1    
     8    4  130 1    
     9    5    6 1    
    10    5   65 1    
    11    5  131 1    
    12    6    7 1    
    13    6  132 1    
    14    6  133 1    
    15    7    8 1    
    16    8    9 1    
    17    8  134 1    
    18    8  135 1    
    19    9   10 ar   
    20    9   14 ar   
    21   10   11 ar   
    22   10  136 1    
    23   11   12 ar   
    24   11  126 1    
    25   12   13 ar   
    26   12  137 1    
    27   13   14 ar   
    28   13   15 1    
    29   14  138 1    
    30   15   16 1    
    31   15  139 1    
    32   15  140 1    
    33   16   17 1    
    34   17   18 1    
    35   17  141 1    
    36   17  142 1    
    37   18   19 1    
    38   18   67 1    
    39   18  143 1    
    40   19   20 am   BACKBONE|DICT|INTERRES
    41   19  144 1    
    42   20   21 2    
    43   20   22 1    
    44   22   23 1    
    45   22   24 1    
    46   22  145 1    
    47   23  146 1    
    48   23  147 1    
    49   23  148 1    
    50   24   25 am   BACKBONE|DICT|INTERRES
    51   24  149 1    
    52   25   26 2    
    53   25   27 1    
    54   27   28 1    
    55   27   29 1    
    56   27  150 1    
    57   28  151 1    
    58   28  152 1    
    59   28  153 1    
    60   29   30 am   BACKBONE|DICT|INTERRES
    61   29  154 1    
    62   30   31 2    
    63   30   32 1    
    64   32   33 1    
    65   32   34 1    
    66   32  155 1    
    67   33  156 1    
    68   33  157 1    
    69   33  158 1    
    70   34   35 am   BACKBONE|DICT|INTERRES
    71   34  159 1    
    72   35   36 2    
    73   35   37 1    
    74   37   38 1    
    75   37   39 1    
    76   37  160 1    
    77   38  161 1    
    78   38  162 1    
    79   38  163 1    
    80   39   40 am   BACKBONE|DICT|INTERRES
    81   39  164 1    
    82   40   41 2    
    83   40   42 1    
    84   42   43 1    
    85   42   44 1    
    86   42  165 1    
    87   43  166 1    
    88   43  167 1    
    89   43  168 1    
    90   44   45 am   BACKBONE|DICT|INTERRES
    91   44  169 1    
    92   45   46 2    
    93   45   47 1    
    94   47   48 1    
    95   47   49 1    
    96   47  170 1    
    97   48  171 1    
    98   48  172 1    
    99   48  173 1    
   100   49   50 am   BACKBONE|DICT|INTERRES
   101   49  174 1    
   102   50   51 2    
   103   50   52 1    
   104   52   53 1    
   105   52   54 1    
   106   52  175 1    
   107   53  176 1    
   108   53  177 1    
   109   53  178 1    
   110   54   55 am   BACKBONE|DICT|INTERRES
   111   54  179 1    
   112   55   56 2    
   113   55   57 1    
   114   57   58 1    
   115   57   59 1    
   116   57  180 1    
   117   58  181 1    
   118   58  182 1    
   119   58  183 1    
   120   59   60 am   BACKBONE|DICT|INTERRES
   121   59  184 1    
   122   60   61 2    
   123   60   62 1    
   124   62   63 1    
   125   62   64 1    
   126   62  185 1    
   127   63  186 1    
   128   63  187 1    
   129   63  188 1    
   130   64   65 am   BACKBONE|DICT|INTERRES
   131   64  189 1    
   132   65   66 2    
   133   67   68 2    
   134   67   69 am   BACKBONE|DICT|INTERRES
   135   69   70 1    
   136   69  190 1    
   137   70   71 1    
   138   70   72 1    
   139   70  191 1    
   140   71  192 1    
   141   71  193 1    
   142   71  194 1    
   143   72   73 2    
   144   72   74 am   BACKBONE|DICT|INTERRES
   145   74   75 1    
   146   74  195 1    
   147   75   76 1    
   148   75   77 1    
   149   75  196 1    
   150   76  197 1    
   151   76  198 1    
   152   76  199 1    
   153   77   78 2    
   154   77   79 am   BACKBONE|DICT|INTERRES
   155   79   80 1    
   156   79  200 1    
   157   80   81 1    
   158   80   82 1    
   159   80  201 1    
   160   81  202 1    
   161   81  203 1    
   162   81  204 1    
   163   82   83 2    
   164   82   84 am   BACKBONE|DICT|INTERRES
   165   84   85 1    
   166   84  205 1    
   167   85   86 1    
   168   85   87 1    
   169   85  206 1    
   170   86  207 1    
   171   86  208 1    
   172   86  209 1    
   173   87   88 2    
   174   87   89 am   BACKBONE|DICT|INTERRES
   175   89   90 1    
   176   89  210 1    
   177   90   91 1    
   178   90   92 1    
   179   90  211 1    
   180   91  212 1    
   181   91  213 1    
   182   91  214 1    
   183   92   93 2    
   184   92   94 am   BACKBONE|DICT|INTERRES
   185   94   95 1    
   186   94  215 1    
   187   95   96 1    
   188   95   97 1    
   189   95  216 1    
   190   96  217 1    
   191   96  218 1    
   192   96  219 1    
   193   97   98 2    
   194   97   99 am   BACKBONE|DICT|INTERRES
   195   99  100 1    
   196   99  220 1    
   197  100  101 1    
   198  100  102 1    
   199  100  221 1    
   200  101  222 1    
   201  101  223 1    
   202  101  224 1    
   203  102  103 2    
   204  102  104 am   BACKBONE|DICT|INTERRES
   205  104  105 1    
   206  104  225 1    
   207  105  106 1    
   208  105  107 1    
   209  105  226 1    
   210  106  227 1    
   211  106  228 1    
   212  106  229 1    
   213  107  108 2    
   214  107  109 am   BACKBONE|DICT|INTERRES
   215  109  110 1    
   216  109  230 1    
   217  110  111 1    
   218  110  112 1    
   219  110  231 1    
   220  111  232 1    
   221  111  233 1    
   222  111  234 1    
   223  112  113 2    
   224  112  114 am   BACKBONE|DICT|INTERRES
   225  114  115 1    
   226  114  235 1    
   227  115  116 1    
   228  115  117 1    
   229  115  236 1    
   230  116  237 1    
   231  116  238 1    
   232  116  239 1    
   233  117  118 2    
   234  117  119 am   BACKBONE|DICT|INTERRES
   235  119  120 1    
   236  119  240 1    
   237  120  121 1    
   238  120  124 1    
   239  120  241 1    
   240  121  122 am   BACKBONE|DICT|INTERRES
   241  121  123 2    
   242  122  242 1    
   243  122  243 1    
   244  124  125 1    
   245  124  244 1    
   246  124  245 1    
   247  125  126 1    
   248  126  246 1    
   249  126  247 1    
@<TRIPOS>SUBSTRUCTURE
     1 UNK         1 GROUP             0       ****    0 ROOT    
