@<TRIPOS>MOLECULE
3R540
247   249    1
SMALL
USER_CHARGES


@<TRIPOS>ATOM
      1 CA          1.9386   -9.5059  -51.5121 C.3       0 UNK        -0.1800 
      2 C           2.8197  -10.0251  -50.3847 C.2       0 UNK         0.5000 
      3 O           3.9943   -9.6642  -50.3096 O.2       0 UNK        -0.5000 
      4 N           2.2576  -10.8696  -49.5103 N.am      1 UNK        -0.5000 
      5 CA          2.9484  -11.4765  -48.3641 C.3       1 UNK         0.1400 
      6 C6          2.1551  -12.6671  -47.7775 C.3       23 UNK        -0.0398 
      7 S7          1.9127  -14.0301  -48.9607 S.3       23 UNK        -0.2404 
      8 C8          1.0286  -15.2131  -47.8986 C.3       23 UNK        -0.0205 
      9 C9          0.7346  -16.5082  -48.6370 C.ar      23 UNK        -0.0193 
     10 C10        -0.4228  -16.6279  -49.4124 C.ar      23 UNK        -0.1150 
     11 C11        -0.7145  -17.8246  -50.0736 C.ar      23 UNK        -0.0193 
     12 C12         0.1733  -18.8994  -49.9711 C.ar      23 UNK        -0.1150 
     13 C13         1.3373  -18.7905  -49.2031 C.ar      23 UNK        -0.0193 
     14 C14         1.6102  -17.5932  -48.5349 C.ar      23 UNK        -0.1150 
     15 C15         2.3086  -19.9595  -49.1087 C.3       23 UNK        -0.0205 
     16 S16         1.9916  -21.0070  -47.6532 S.3       23 UNK        -0.2404 
     17 C17         0.3687  -21.7115  -48.0870 C.3       23 UNK        -0.0398 
     18 CA         -0.0324  -22.9105  -47.1968 C.3       11 UNK         0.1400 
     19 N          -0.2600  -22.5273  -45.8000 N.am      11 UNK        -0.5000 
     20 C          -0.5609  -23.3734  -44.8043 C.2       10 UNK         0.5000 
     21 O          -0.6439  -24.5928  -44.9402 O.2       10 UNK        -0.5000 
     22 CA         -0.8873  -22.7506  -43.4375 C.3       10 UNK         0.1400 
     23 CB          0.3886  -22.3175  -42.6989 C.3       10 UNK        -0.1800 
     24 N          -1.8058  -21.6198  -43.5601 N.am      10 UNK        -0.5000 
     25 C          -3.0849  -21.7244  -43.9477 C.2       9 UNK         0.5000 
     26 O          -3.6337  -22.7916  -44.2209 O.2       9 UNK        -0.5000 
     27 CA         -3.8763  -20.4117  -44.0817 C.3       9 UNK         0.1400 
     28 CB         -4.4440  -19.9792  -42.7218 C.3       9 UNK        -0.1800 
     29 N          -3.0747  -19.3232  -44.6383 N.am      9 UNK        -0.5000 
     30 C          -2.5946  -19.3000  -45.8893 C.2       8 UNK         0.5000 
     31 O          -2.7716  -20.1991  -46.7119 O.2       8 UNK        -0.5000 
     32 CA         -1.7198  -18.0875  -46.2526 C.3       8 UNK         0.1400 
     33 CB         -2.5944  -16.8437  -46.4750 C.3       8 UNK        -0.1800 
     34 N          -0.6968  -17.7778  -45.2487 N.am      8 UNK        -0.5000 
     35 C           0.2156  -18.6426  -44.7775 C.2       7 UNK         0.5000 
     36 O           0.2592  -19.8269  -45.1014 O.2       7 UNK        -0.5000 
     37 CA          1.2482  -18.1243  -43.7603 C.3       7 UNK         0.1400 
     38 CB          2.6029  -17.9099  -44.4523 C.3       7 UNK        -0.1800 
     39 N           0.8423  -16.8905  -43.0861 N.am      7 UNK        -0.5000 
     40 C          -0.1523  -16.8050  -42.1882 C.2       6 UNK         0.5000 
     41 O          -0.8092  -17.7768  -41.8121 O.2       6 UNK        -0.5000 
     42 CA         -0.4953  -15.4044  -41.6332 C.3       6 UNK         0.1400 
     43 CB          0.1496  -15.2025  -40.2538 C.3       6 UNK        -0.1800 
     44 N          -0.0924  -14.3012  -42.5091 N.am      6 UNK        -0.5000 
     45 C          -0.5418  -14.1051  -43.7563 C.2       5 UNK         0.5000 
     46 O          -1.4169  -14.7954  -44.2764 O.2       5 UNK        -0.5000 
     47 CA          0.1388  -13.0033  -44.5921 C.3       5 UNK         0.1400 
     48 CB         -0.7366  -11.7440  -44.6443 C.3       5 UNK        -0.1800 
     49 N           1.5003  -12.6418  -44.1712 N.am      5 UNK        -0.5000 
     50 C           2.5354  -13.4930  -44.0717 C.2       4 UNK         0.5000 
     51 O           2.4286  -14.6975  -44.2983 O.2       4 UNK        -0.5000 
     52 CA          3.9123  -12.9340  -43.6599 C.3       4 UNK         0.1400 
     53 CB          5.0144  -13.4088  -44.6225 C.3       4 UNK        -0.1800 
     54 N           3.9414  -11.4725  -43.5819 N.am      4 UNK        -0.5000 
     55 C           3.6278  -10.7597  -42.4904 C.2       3 UNK         0.5000 
     56 O           3.2765  -11.2699  -41.4262 O.2       3 UNK        -0.5000 
     57 CA          3.6987   -9.2218  -42.5995 C.3       3 UNK         0.1400 
     58 CB          5.0104   -8.7016  -41.9920 C.3       3 UNK        -0.1800 
     59 N           3.5775   -8.7141  -43.9684 N.am      3 UNK        -0.5000 
     60 C           2.4844   -8.8232  -44.7346 C.2       2 UNK         0.5000 
     61 O           1.4441   -9.3601  -44.3536 O.2       2 UNK        -0.5000 
     62 CA          2.5674   -8.2874  -46.1800 C.3       2 UNK         0.1400 
     63 CB          3.8124   -7.4164  -46.4624 C.3       2 UNK        -0.1800 
     64 N           2.4738   -9.3729  -47.1620 N.am      2 UNK        -0.5000 
     65 C           3.2619  -10.4573  -47.2454 C.2       1 UNK         0.5000 
     66 O           4.1996  -10.6801  -46.4781 O.2       1 UNK        -0.5000 
     67 C          -1.2640  -23.6144  -47.7949 C.2       11 UNK         0.5000 
     68 O          -1.1267  -24.7051  -48.3515 O.2       11 UNK        -0.5000 
     69 N          -2.4427  -22.9934  -47.6379 N.am      12 UNK        -0.5000 
     70 CA         -3.7263  -23.5128  -48.1070 C.3       12 UNK         0.1400 
     71 CB         -4.8274  -22.4778  -47.8307 C.3       12 UNK        -0.1800 
     72 C          -4.0902  -24.8764  -47.4929 C.2       12 UNK         0.5000 
     73 O          -4.5802  -25.7462  -48.2111 O.2       12 UNK        -0.5000 
     74 N          -3.8218  -25.0502  -46.1921 N.am      13 UNK        -0.5000 
     75 CA         -4.0362  -26.3046  -45.4744 C.3       13 UNK         0.1400 
     76 CB         -3.9764  -26.0472  -43.9607 C.3       13 UNK        -0.1800 
     77 C          -3.0368  -27.4042  -45.8774 C.2       13 UNK         0.5000 
     78 O          -3.4511  -28.5415  -46.1049 O.2       13 UNK        -0.5000 
     79 N          -1.7433  -27.0586  -45.9319 N.am      14 UNK        -0.5000 
     80 CA         -0.6523  -28.0078  -46.1467 C.3       14 UNK         0.1400 
     81 CB          0.6750  -27.3842  -45.6870 C.3       14 UNK        -0.1800 
     82 C          -0.5396  -28.4955  -47.5991 C.2       14 UNK         0.5000 
     83 O          -0.4305  -29.7022  -47.8225 O.2       14 UNK        -0.5000 
     84 N          -0.5317  -27.5582  -48.5559 N.am      15 UNK        -0.5000 
     85 CA         -0.2615  -27.8515  -49.9651 C.3       15 UNK         0.1400 
     86 CB          0.5023  -26.6721  -50.5835 C.3       15 UNK        -0.1800 
     87 C          -1.5319  -28.1523  -50.7762 C.2       15 UNK         0.5000 
     88 O          -1.4206  -28.7332  -51.8568 O.2       15 UNK        -0.5000 
     89 N          -2.7021  -27.7377  -50.2668 N.am      16 UNK        -0.5000 
     90 CA         -4.0458  -27.8387  -50.8545 C.3       16 UNK         0.1400 
     91 CB         -4.4555  -29.3036  -51.1025 C.3       16 UNK        -0.1800 
     92 C          -4.2334  -26.9731  -52.1153 C.2       16 UNK         0.5000 
     93 O          -5.1068  -26.1068  -52.1355 O.2       16 UNK        -0.5000 
     94 N          -3.3921  -27.1911  -53.1335 N.am      17 UNK        -0.5000 
     95 CA         -3.3888  -26.4719  -54.4099 C.3       17 UNK         0.1400 
     96 CB         -2.4101  -27.1641  -55.3698 C.3       17 UNK        -0.1800 
     97 C          -3.0410  -24.9777  -54.2706 C.2       17 UNK         0.5000 
     98 O          -3.5021  -24.1681  -55.0754 O.2       17 UNK        -0.5000 
     99 N          -2.2692  -24.6321  -53.2298 N.am      18 UNK        -0.5000 
    100 CA        -1.8793  -23.2621  -52.8889 C.3       18 UNK         0.1400 
    101 CB        -0.7827  -23.2995  -51.8150 C.3       18 UNK        -0.1800 
    102 C         -3.0484  -22.3749  -52.4194 C.2       18 UNK         0.5000 
    103 O         -2.8811  -21.1588  -52.3719 O.2       18 UNK        -0.5000 
    104 N         -4.2014  -22.9769  -52.0878 N.am      19 UNK        -0.5000 
    105 CA        -5.4223  -22.2734  -51.6919 C.3       19 UNK         0.1400 
    106 CB        -6.4149  -23.2870  -51.1032 C.3       19 UNK        -0.1800 
    107 C         -6.0873  -21.4931  -52.8449 C.2       19 UNK         0.5000 
    108 O         -6.8690  -20.5803  -52.5737 O.2       19 UNK        -0.5000 
    109 N         -5.7806  -21.8597  -54.0992 N.am      20 UNK        -0.5000 
    110 CA        -6.3031  -21.2469  -55.3210 C.3       20 UNK         0.1400 
    111 CB        -5.7511  -22.0048  -56.5387 C.3       20 UNK        -0.1800 
    112 C         -5.9749  -19.7431  -55.4021 C.2       20 UNK         0.5000 
    113 O         -4.8067  -19.3807  -55.5531 O.2       20 UNK        -0.5000 
    114 N         -7.0168  -18.9100  -55.2630 N.am      21 UNK        -0.5000 
    115 CA        -6.9915  -17.4408  -55.2216 C.3       21 UNK         0.1400 
    116 CB        -6.5126  -16.8607  -56.5693 C.3       21 UNK        -0.1800 
    117 C         -6.2241  -16.8510  -54.0145 C.2       21 UNK         0.5000 
    118 O         -5.8412  -15.6801  -54.0491 O.2       21 UNK        -0.5000 
    119 N         -6.0194  -17.6576  -52.9664 N.am      22 UNK        -0.5000 
    120 CA        -5.3628  -17.2643  -51.7146 C.3       22 UNK         0.1400 
    121 C         -6.3287  -16.4879  -50.7767 C.2       22 UNK         0.5000 
    122 N         -5.8393  -15.4855  -50.0600 N.am      22 UNK        -0.7600 
    123 O         -7.5129  -16.8013  -50.6735 O.2       22 UNK        -0.5000 
    124 C124       -4.7541  -18.5104  -51.0284 C.3       23 UNK        -0.0398 
    125 S125       -3.4453  -18.1333  -49.8194 S.3       23 UNK        -0.2404 
    126 C126       -1.9882  -17.9569  -50.8946 C.3       23 UNK        -0.0205 
    127 H127        2.3626   -9.7825  -52.4773 H         1 UNK         0.0600 
    128 H128        1.8725   -8.4188  -51.4663 H         1 UNK         0.0600 
    129 H129        0.9278   -9.9108  -51.4565 H         1 UNK         0.0600 
    130 H130        1.2969  -11.1523  -49.6429 H         1 UNK         0.3000 
    131 H131        3.9090  -11.8571  -48.7184 H         1 UNK         0.0600 
    132 H132        1.1784  -12.3322  -47.4257 H         1 UNK         0.0800 
    133 H133        2.6780  -13.0807  -46.9152 H         1 UNK         0.0800 
    134 H134        1.6187  -15.4166  -47.0032 H         1 UNK         0.0800 
    135 H135        0.0936  -14.7665  -47.5589 H         1 UNK         0.0800 
    136 H136       -1.1062  -15.7940  -49.4898 H         1 UNK         0.1150 
    137 H137       -0.0454  -19.8241  -50.4863 H         1 UNK         0.1150 
    138 H138        2.5062  -17.5061  -47.9364 H         1 UNK         0.1150 
    139 H139        2.2630  -20.5669  -50.0140 H         1 UNK         0.0800 
    140 H140        3.3303  -19.5814  -49.0511 H         1 UNK         0.0800 
    141 H141        0.4103  -22.0138  -49.1351 H         1 UNK         0.0800 
    142 H142       -0.3807  -20.9207  -48.0196 H         1 UNK         0.0800 
    143 H143        0.7865  -23.6330  -47.2061 H         1 UNK         0.0600 
    144 H144       -0.1744  -21.5344  -45.5876 H         1 UNK         0.3000 
    145 H145       -1.3794  -23.5161  -42.8335 H         1 UNK         0.0600 
    146 H146        0.1557  -21.9084  -41.7157 H         1 UNK         0.0600 
    147 H147        1.0545  -23.1679  -42.5477 H         1 UNK         0.0600 
    148 H148        0.9467  -21.5629  -43.2524 H         1 UNK         0.0600 
    149 H149       -1.4172  -20.6992  -43.4175 H         1 UNK         0.3000 
    150 H150       -4.7130  -20.5958  -44.7588 H         1 UNK         0.0600 
    151 H151       -5.0564  -20.7694  -42.2854 H         1 UNK         0.0600 
    152 H152       -5.0762  -19.0967  -42.8213 H         1 UNK         0.0600 
    153 H153       -3.6513  -19.7458  -42.0096 H         1 UNK         0.0600 
    154 H154       -2.8485  -18.5573  -44.0203 H         1 UNK         0.3000 
    155 H155       -1.2061  -18.3264  -47.1849 H         1 UNK         0.0600 
    156 H156       -3.3985  -17.0431  -47.1819 H         1 UNK         0.0600 
    157 H157       -2.0094  -16.0147  -46.8720 H         1 UNK         0.0600 
    158 H158       -3.0616  -16.5101  -45.5481 H         1 UNK         0.0600 
    159 H159       -0.6875  -16.8279  -44.8995 H         1 UNK         0.3000 
    160 H160        1.3752  -18.8976  -42.9998 H         1 UNK         0.0600 
    161 H161        2.5298  -17.1828  -45.2616 H         1 UNK         0.0600 
    162 H162        2.9697  -18.8413  -44.8861 H         1 UNK         0.0600 
    163 H163        3.3576  -17.5571  -43.7493 H         1 UNK         0.0600 
    164 H164        1.3327  -16.0467  -43.3684 H         1 UNK         0.3000 
    165 H165       -1.5799  -15.3576  -41.5164 H         1 UNK         0.0600 
    166 H166       -0.1530  -14.2533  -39.8111 H         1 UNK         0.0600 
    167 H167       -0.1497  -15.9917  -39.5626 H         1 UNK         0.0600 
    168 H168        1.2386  -15.2142  -40.3140 H         1 UNK         0.0600 
    169 H169        0.6339  -13.6907  -42.1646 H         1 UNK         0.3000 
    170 H170        0.2107  -13.4004  -45.6039 H         1 UNK         0.0600 
    171 H171       -1.7643  -11.9879  -44.9171 H         1 UNK         0.0600 
    172 H172       -0.7632  -11.2332  -43.6811 H         1 UNK         0.0600 
    173 H173       -0.3669  -11.0403  -45.3900 H         1 UNK         0.0600 
    174 H174        1.6616  -11.6620  -43.9754 H         1 UNK         0.3000 
    175 H175        4.1382  -13.3501  -42.6761 H         1 UNK         0.0600 
    176 H176        4.8205  -13.0998  -45.6490 H         1 UNK         0.0600 
    177 H177        5.9883  -13.0145  -44.3322 H         1 UNK         0.0600 
    178 H178        5.0943  -14.4967  -44.6208 H         1 UNK         0.0600 
    179 H179        4.1821  -10.9846  -44.4392 H         1 UNK         0.3000 
    180 H180        2.8684   -8.8164  -42.0175 H         1 UNK         0.0600 
    181 H181        5.8792   -9.0573  -42.5473 H         1 UNK         0.0600 
    182 H182        5.1223   -9.0340  -40.9590 H         1 UNK         0.0600 
    183 H183        5.0380   -7.6118  -41.9853 H         1 UNK         0.0600 
    184 H184        4.4016   -8.2884  -44.3672 H         1 UNK         0.3000 
    185 H185        1.6866   -7.6596  -46.3220 H         1 UNK         0.0600 
    186 H186        3.8684   -6.5727  -45.7733 H         1 UNK         0.0600 
    187 H187        4.7422   -7.9802  -46.3790 H         1 UNK         0.0600 
    188 H188        3.7727   -7.0025  -47.4701 H         1 UNK         0.0600 
    189 H189        1.7175   -9.2947  -47.8267 H         1 UNK         0.3000 
    190 H190       -2.4681  -22.0868  -47.1782 H         1 UNK         0.3000 
    191 H191       -3.6492  -23.6494  -49.1875 H         1 UNK         0.0600 
    192 H192       -4.6377  -21.5488  -48.3691 H         1 UNK         0.0600 
    193 H193       -5.8047  -22.8443  -48.1454 H         1 UNK         0.0600 
    194 H194       -4.8952  -22.2399  -46.7688 H         1 UNK         0.0600 
    195 H195       -3.4595  -24.2713  -45.6522 H         1 UNK         0.3000 
    196 H196       -5.0395  -26.6647  -45.7120 H         1 UNK         0.0600 
    197 H197       -4.1320  -26.9695  -43.3996 H         1 UNK         0.0600 
    198 H198       -4.7497  -25.3440  -43.6511 H         1 UNK         0.0600 
    199 H199       -3.0122  -25.6362  -43.6591 H         1 UNK         0.0600 
    200 H200       -1.4732  -26.1037  -45.7071 H         1 UNK         0.3000 
    201 H201       -0.8375  -28.8825  -45.5193 H         1 UNK         0.0600 
    202 H202        0.6395  -27.1182  -44.6304 H         1 UNK         0.0600 
    203 H203        0.9134  -26.4813  -46.2508 H         1 UNK         0.0600 
    204 H204        1.5026  -28.0823  -45.8186 H         1 UNK         0.0600 
    205 H205       -0.6642  -26.5803  -48.3088 H         1 UNK         0.3000 
    206 H206        0.3828  -28.7303  -50.0394 H         1 UNK         0.0600 
    207 H207        1.4396  -26.4899  -50.0576 H         1 UNK         0.0600 
    208 H208        0.7472  -26.8644  -51.6289 H         1 UNK         0.0600 
    209 H209       -0.0841  -25.7570  -50.5459 H         1 UNK         0.0600 
    210 H210       -2.6671  -27.2530  -49.3801 H         1 UNK         0.3000 
    211 H211       -4.7324  -27.4469  -50.1047 H         1 UNK         0.0600 
    212 H212       -3.8405  -29.7845  -51.8632 H         1 UNK         0.0600 
    213 H213       -5.4911  -29.3629  -51.4395 H         1 UNK         0.0600 
    214 H214       -4.3777  -29.8920  -50.1882 H         1 UNK         0.0600 
    215 H215       -2.6698  -27.8934  -52.9943 H         1 UNK         0.3000 
    216 H216       -4.3927  -26.5371  -54.8344 H         1 UNK         0.0600 
    217 H217       -2.3953  -26.6663  -56.3403 H         1 UNK         0.0600 
    218 H218       -2.6951  -28.2021  -55.5421 H         1 UNK         0.0600 
    219 H219       -1.3915  -27.1562  -54.9795 H         1 UNK         0.0600 
    220 H220       -1.9450  -25.3643  -52.6165 H         1 UNK         0.3000 
    221 H221       -1.4625  -22.7998  -53.7861 H         1 UNK         0.0600 
    222 H222       -1.1578  -23.7193  -50.8823 H         1 UNK         0.0600 
    223 H223        0.0732  -23.8909  -52.1402 H         1 UNK         0.0600 
    224 H224       -0.4164  -22.2957  -51.5962 H         1 UNK         0.0600 
    225 H225       -4.2690  -23.9842  -52.1637 H         1 UNK         0.3000 
    226 H226       -5.1594  -21.5585  -50.9102 H         1 UNK         0.0600 
    227 H227       -5.9561  -23.8922  -50.3217 H         1 UNK         0.0600 
    228 H228       -7.2742  -22.7797  -50.6631 H         1 UNK         0.0600 
    229 H229       -6.7928  -23.9672  -51.8675 H         1 UNK         0.0600 
    230 H230       -5.1003  -22.5970  -54.2285 H         1 UNK         0.3000 
    231 H231       -7.3878  -21.3718  -55.3140 H         1 UNK         0.0600 
    232 H232       -6.0437  -23.0547  -56.5164 H         1 UNK         0.0600 
    233 H233       -4.6617  -21.9638  -56.5786 H         1 UNK         0.0600 
    234 H234       -6.1309  -21.5799  -57.4687 H         1 UNK         0.0600 
    235 H235       -7.9266  -19.3213  -55.1046 H         1 UNK         0.3000 
    236 H236       -8.0287  -17.1309  -55.0868 H         1 UNK         0.0600 
    237 H237       -6.6514  -15.7795  -56.6024 H         1 UNK         0.0600 
    238 H238       -5.4544  -17.0577  -56.7429 H         1 UNK         0.0600 
    239 H239       -7.0742  -17.2826  -57.4027 H         1 UNK         0.0600 
    240 H240       -6.4061  -18.5948  -52.9893 H         1 UNK         0.3000 
    241 H241       -4.5412  -16.5959  -51.9797 H         1 UNK         0.0600 
    242 H242       -4.8660  -15.2285  -50.1111 H         1 UNK         0.3800 
    243 H243       -6.4533  -14.9800  -49.4407 H         1 UNK         0.3800 
    244 H244       -4.3216  -19.1666  -51.7819 H         1 UNK         0.0800 
    245 H245       -5.5291  -19.0977  -50.5330 H         1 UNK         0.0800 
    246 H246       -1.9196  -18.8166  -51.5621 H         1 UNK         0.0800 
    247 H247       -2.1065  -17.0790  -51.5310 H         1 UNK         0.0800 
@<TRIPOS>BOND
     1    1    2 1    
     2    1  127 1    
     3    1  128 1    
     4    1  129 1    
     5    2    3 2    
     6    2    4 am   BACKBONE|DICT|INTERRES
     7    4    5 1    
     8    4  130 1    
     9    5    6 1    
    10    5   65 1    
    11    5  131 1    
    12    6    7 1    
    13    6  132 1    
    14    6  133 1    
    15    7    8 1    
    16    8    9 1    
    17    8  134 1    
    18    8  135 1    
    19    9   10 ar   
    20    9   14 ar   
    21   10   11 ar   
    22   10  136 1    
    23   11   12 ar   
    24   11  126 1    
    25   12   13 ar   
    26   12  137 1    
    27   13   14 ar   
    28   13   15 1    
    29   14  138 1    
    30   15   16 1    
    31   15  139 1    
    32   15  140 1    
    33   16   17 1    
    34   17   18 1    
    35   17  141 1    
    36   17  142 1    
    37   18   19 1    
    38   18   67 1    
    39   18  143 1    
    40   19   20 am   BACKBONE|DICT|INTERRES
    41   19  144 1    
    42   20   21 2    
    43   20   22 1    
    44   22   23 1    
    45   22   24 1    
    46   22  145 1    
    47   23  146 1    
    48   23  147 1    
    49   23  148 1    
    50   24   25 am   BACKBONE|DICT|INTERRES
    51   24  149 1    
    52   25   26 2    
    53   25   27 1    
    54   27   28 1    
    55   27   29 1    
    56   27  150 1    
    57   28  151 1    
    58   28  152 1    
    59   28  153 1    
    60   29   30 am   BACKBONE|DICT|INTERRES
    61   29  154 1    
    62   30   31 2    
    63   30   32 1    
    64   32   33 1    
    65   32   34 1    
    66   32  155 1    
    67   33  156 1    
    68   33  157 1    
    69   33  158 1    
    70   34   35 am   BACKBONE|DICT|INTERRES
    71   34  159 1    
    72   35   36 2    
    73   35   37 1    
    74   37   38 1    
    75   37   39 1    
    76   37  160 1    
    77   38  161 1    
    78   38  162 1    
    79   38  163 1    
    80   39   40 am   BACKBONE|DICT|INTERRES
    81   39  164 1    
    82   40   41 2    
    83   40   42 1    
    84   42   43 1    
    85   42   44 1    
    86   42  165 1    
    87   43  166 1    
    88   43  167 1    
    89   43  168 1    
    90   44   45 am   BACKBONE|DICT|INTERRES
    91   44  169 1    
    92   45   46 2    
    93   45   47 1    
    94   47   48 1    
    95   47   49 1    
    96   47  170 1    
    97   48  171 1    
    98   48  172 1    
    99   48  173 1    
   100   49   50 am   BACKBONE|DICT|INTERRES
   101   49  174 1    
   102   50   51 2    
   103   50   52 1    
   104   52   53 1    
   105   52   54 1    
   106   52  175 1    
   107   53  176 1    
   108   53  177 1    
   109   53  178 1    
   110   54   55 am   BACKBONE|DICT|INTERRES
   111   54  179 1    
   112   55   56 2    
   113   55   57 1    
   114   57   58 1    
   115   57   59 1    
   116   57  180 1    
   117   58  181 1    
   118   58  182 1    
   119   58  183 1    
   120   59   60 am   BACKBONE|DICT|INTERRES
   121   59  184 1    
   122   60   61 2    
   123   60   62 1    
   124   62   63 1    
   125   62   64 1    
   126   62  185 1    
   127   63  186 1    
   128   63  187 1    
   129   63  188 1    
   130   64   65 am   BACKBONE|DICT|INTERRES
   131   64  189 1    
   132   65   66 2    
   133   67   68 2    
   134   67   69 am   BACKBONE|DICT|INTERRES
   135   69   70 1    
   136   69  190 1    
   137   70   71 1    
   138   70   72 1    
   139   70  191 1    
   140   71  192 1    
   141   71  193 1    
   142   71  194 1    
   143   72   73 2    
   144   72   74 am   BACKBONE|DICT|INTERRES
   145   74   75 1    
   146   74  195 1    
   147   75   76 1    
   148   75   77 1    
   149   75  196 1    
   150   76  197 1    
   151   76  198 1    
   152   76  199 1    
   153   77   78 2    
   154   77   79 am   BACKBONE|DICT|INTERRES
   155   79   80 1    
   156   79  200 1    
   157   80   81 1    
   158   80   82 1    
   159   80  201 1    
   160   81  202 1    
   161   81  203 1    
   162   81  204 1    
   163   82   83 2    
   164   82   84 am   BACKBONE|DICT|INTERRES
   165   84   85 1    
   166   84  205 1    
   167   85   86 1    
   168   85   87 1    
   169   85  206 1    
   170   86  207 1    
   171   86  208 1    
   172   86  209 1    
   173   87   88 2    
   174   87   89 am   BACKBONE|DICT|INTERRES
   175   89   90 1    
   176   89  210 1    
   177   90   91 1    
   178   90   92 1    
   179   90  211 1    
   180   91  212 1    
   181   91  213 1    
   182   91  214 1    
   183   92   93 2    
   184   92   94 am   BACKBONE|DICT|INTERRES
   185   94   95 1    
   186   94  215 1    
   187   95   96 1    
   188   95   97 1    
   189   95  216 1    
   190   96  217 1    
   191   96  218 1    
   192   96  219 1    
   193   97   98 2    
   194   97   99 am   BACKBONE|DICT|INTERRES
   195   99  100 1    
   196   99  220 1    
   197  100  101 1    
   198  100  102 1    
   199  100  221 1    
   200  101  222 1    
   201  101  223 1    
   202  101  224 1    
   203  102  103 2    
   204  102  104 am   BACKBONE|DICT|INTERRES
   205  104  105 1    
   206  104  225 1    
   207  105  106 1    
   208  105  107 1    
   209  105  226 1    
   210  106  227 1    
   211  106  228 1    
   212  106  229 1    
   213  107  108 2    
   214  107  109 am   BACKBONE|DICT|INTERRES
   215  109  110 1    
   216  109  230 1    
   217  110  111 1    
   218  110  112 1    
   219  110  231 1    
   220  111  232 1    
   221  111  233 1    
   222  111  234 1    
   223  112  113 2    
   224  112  114 am   BACKBONE|DICT|INTERRES
   225  114  115 1    
   226  114  235 1    
   227  115  116 1    
   228  115  117 1    
   229  115  236 1    
   230  116  237 1    
   231  116  238 1    
   232  116  239 1    
   233  117  118 2    
   234  117  119 am   BACKBONE|DICT|INTERRES
   235  119  120 1    
   236  119  240 1    
   237  120  121 1    
   238  120  124 1    
   239  120  241 1    
   240  121  122 am   BACKBONE|DICT|INTERRES
   241  121  123 2    
   242  122  242 1    
   243  122  243 1    
   244  124  125 1    
   245  124  244 1    
   246  124  245 1    
   247  125  126 1    
   248  126  246 1    
   249  126  247 1    
@<TRIPOS>SUBSTRUCTURE
     1 UNK         1 GROUP             0       ****    0 ROOT    
