@<TRIPOS>MOLECULE
3R540
247   249    1
SMALL
USER_CHARGES


@<TRIPOS>ATOM
      1 CA          2.7055  -14.7241  -47.8112 C.3       0 UNK        -0.1800 
      2 C           1.6530  -14.2449  -46.8245 C.2       0 UNK         0.5000 
      3 O           1.9512  -14.0778  -45.6443 O.2       0 UNK        -0.5000 
      4 N           0.4248  -13.9976  -47.2989 N.am      1 UNK        -0.5000 
      5 CA         -0.7234  -13.5841  -46.4764 C.3       1 UNK         0.1400 
      6 C6         -2.0691  -13.7153  -47.2314 C.3       23 UNK        -0.0398 
      7 S7         -2.3937  -15.4336  -47.7658 S.3       23 UNK        -0.2404 
      8 C8         -2.2828  -15.3092  -49.5799 C.3       23 UNK        -0.0205 
      9 C9         -1.4934  -16.4708  -50.1614 C.ar      23 UNK        -0.0193 
     10 C10        -2.1468  -17.5829  -50.7022 C.ar      23 UNK        -0.1150 
     11 C11        -1.4105  -18.6400  -51.2468 C.ar      23 UNK        -0.0193 
     12 C12        -0.0147  -18.5786  -51.2406 C.ar      23 UNK        -0.1150 
     13 C13         0.6494  -17.4793  -50.6933 C.ar      23 UNK        -0.0193 
     14 C14        -0.0971  -16.4256  -50.1634 C.ar      23 UNK        -0.1150 
     15 C15         2.1704  -17.4175  -50.6790 C.3       23 UNK        -0.0205 
     16 S16         2.9498  -18.8723  -49.9066 S.3       23 UNK        -0.2404 
     17 C17         2.2002  -18.9229  -48.2398 C.3       23 UNK        -0.0398 
     18 CA          1.7098  -20.3516  -47.8892 C.3       11 UNK         0.1400 
     19 N           1.8680  -20.6663  -46.4668 N.am      11 UNK        -0.5000 
     20 C           1.9417  -21.9177  -45.9909 C.2       10 UNK         0.5000 
     21 O           1.8853  -22.9208  -46.7020 O.2       10 UNK        -0.5000 
     22 CA          2.0938  -22.0859  -44.4695 C.3       10 UNK         0.1400 
     23 CB          3.5514  -21.8616  -44.0397 C.3       10 UNK        -0.1800 
     24 N           1.2092  -21.2020  -43.7127 N.am      10 UNK        -0.5000 
     25 C          -0.1281  -21.2989  -43.7090 C.2       9 UNK         0.5000 
     26 O          -0.7534  -22.1763  -44.3048 O.2       9 UNK        -0.5000 
     27 CA         -0.9036  -20.2261  -42.9236 C.3       9 UNK         0.1400 
     28 CB         -1.0147  -20.6198  -41.4433 C.3       9 UNK        -0.1800 
     29 N          -0.3214  -18.8870  -43.0317 N.am      9 UNK        -0.5000 
     30 C          -0.1905  -18.2041  -44.1786 C.2       8 UNK         0.5000 
     31 O          -0.5260  -18.6376  -45.2783 O.2       8 UNK        -0.5000 
     32 CA          0.4906  -16.8307  -44.0954 C.3       8 UNK         0.1400 
     33 CB         -0.4043  -15.8093  -43.3771 C.3       8 UNK        -0.1800 
     34 N           1.7868  -16.9049  -43.4297 N.am      8 UNK        -0.5000 
     35 C           2.8224  -17.6529  -43.8337 C.2       7 UNK         0.5000 
     36 O           2.8255  -18.3360  -44.8590 O.2       7 UNK        -0.5000 
     37 CA          4.0388  -17.6862  -42.8940 C.3       7 UNK         0.1400 
     38 CB          4.9291  -16.4509  -43.1007 C.3       7 UNK        -0.1800 
     39 N           3.6398  -17.7760  -41.4882 N.am      7 UNK        -0.5000 
     40 C           3.0565  -18.8469  -40.9309 C.2       6 UNK         0.5000 
     41 O           2.8155  -19.8896  -41.5382 O.2       6 UNK        -0.5000 
     42 CA          2.6403  -18.7153  -39.4547 C.3       6 UNK         0.1400 
     43 CB          3.8503  -18.9054  -38.5276 C.3       6 UNK        -0.1800 
     44 N           2.0007  -17.4315  -39.1642 N.am      6 UNK        -0.5000 
     45 C           0.8071  -17.0591  -39.6465 C.2       5 UNK         0.5000 
     46 O           0.1071  -17.7718  -40.3649 O.2       5 UNK        -0.5000 
     47 CA          0.3314  -15.6345  -39.3029 C.3       5 UNK         0.1400 
     48 CB         -0.3951  -15.6233  -37.9496 C.3       5 UNK        -0.1800 
     49 N           1.3954  -14.6243  -39.2906 N.am      5 UNK        -0.5000 
     50 C           2.2128  -14.3519  -40.3165 C.2       4 UNK         0.5000 
     51 O           2.2374  -15.0017  -41.3633 O.2       4 UNK        -0.5000 
     52 CA          3.1987  -13.1852  -40.1177 C.3       4 UNK         0.1400 
     53 CB          4.4543  -13.6759  -39.3800 C.3       4 UNK        -0.1800 
     54 N           3.6094  -12.5816  -41.3871 N.am      4 UNK        -0.5000 
     55 C           2.7941  -11.9617  -42.2516 C.2       3 UNK         0.5000 
     56 O           1.6029  -11.7390  -42.0182 O.2       3 UNK        -0.5000 
     57 CA          3.4317  -11.5000  -43.5803 C.3       3 UNK         0.1400 
     58 CB          4.4612  -12.5093  -44.1276 C.3       3 UNK        -0.1800 
     59 N           2.4144  -11.2654  -44.6058 N.am      3 UNK        -0.5000 
     60 C           1.7793  -10.1014  -44.8069 C.2       2 UNK         0.5000 
     61 O           2.0188   -9.0788  -44.1620 O.2       2 UNK        -0.5000 
     62 CA          0.7187  -10.0410  -45.9279 C.3       2 UNK         0.1400 
     63 CB          1.2314   -9.1980  -47.1069 C.3       2 UNK        -0.1800 
     64 N           0.3350  -11.3588  -46.4349 N.am      2 UNK        -0.5000 
     65 C          -0.5619  -12.1737  -45.8629 C.2       1 UNK         0.5000 
     66 O          -1.2363  -11.8607  -44.8816 O.2       1 UNK        -0.5000 
     67 C           0.2739  -20.6356  -48.3810 C.2       11 UNK         0.5000 
     68 O           0.1021  -21.2399  -49.4401 O.2       11 UNK        -0.5000 
     69 N          -0.7341  -20.2675  -47.5761 N.am      12 UNK        -0.5000 
     70 CA         -2.1611  -20.4605  -47.8563 C.3       12 UNK         0.1400 
     71 CB         -2.9853  -19.4871  -46.9992 C.3       12 UNK        -0.1800 
     72 C          -2.6604  -21.9119  -47.6863 C.2       12 UNK         0.5000 
     73 O          -3.8672  -22.1458  -47.7736 O.2       12 UNK        -0.5000 
     74 N          -1.7456  -22.8710  -47.4830 N.am      13 UNK        -0.5000 
     75 CA         -2.0079  -24.3072  -47.3475 C.3       13 UNK         0.1400 
     76 CB         -0.6912  -25.0251  -47.0196 C.3       13 UNK        -0.1800 
     77 C          -2.6907  -24.9565  -48.5708 C.2       13 UNK         0.5000 
     78 O          -3.2559  -26.0426  -48.4372 O.2       13 UNK        -0.5000 
     79 N          -2.6838  -24.2692  -49.7224 N.am      14 UNK        -0.5000 
     80 CA         -3.4268  -24.5824  -50.9471 C.3       14 UNK         0.1400 
     81 CB         -2.8393  -23.7367  -52.0924 C.3       14 UNK        -0.1800 
     82 C          -4.9554  -24.3739  -50.8024 C.2       14 UNK         0.5000 
     83 O          -5.5727  -23.7298  -51.6540 O.2       14 UNK        -0.5000 
     84 N          -5.5360  -24.9053  -49.7182 N.am      15 UNK        -0.5000 
     85 CA         -6.9487  -24.8516  -49.3297 C.3       15 UNK         0.1400 
     86 CB         -7.7928  -25.7244  -50.2822 C.3       15 UNK        -0.1800 
     87 C          -7.4878  -23.4110  -49.2029 C.2       15 UNK         0.5000 
     88 O          -8.5771  -23.1196  -49.6951 O.2       15 UNK        -0.5000 
     89 N          -6.6962  -22.5165  -48.5895 N.am      16 UNK        -0.5000 
     90 CA         -6.9504  -21.0726  -48.4744 C.3       16 UNK         0.1400 
     91 CB         -8.1759  -20.7888  -47.5802 C.3       16 UNK        -0.1800 
     92 C          -7.0263  -20.3846  -49.8553 C.2       16 UNK         0.5000 
     93 O          -7.8569  -19.5010  -50.0692 O.2       16 UNK        -0.5000 
     94 N          -6.1577  -20.8462  -50.7664 N.am      17 UNK        -0.5000 
     95 CA         -6.0163  -20.4838  -52.1797 C.3       17 UNK         0.1400 
     96 CB         -5.8774  -18.9601  -52.3768 C.3       17 UNK        -0.1800 
     97 C          -7.0853  -21.0901  -53.1100 C.2       17 UNK         0.5000 
     98 O          -6.9991  -20.8765  -54.3200 O.2       17 UNK        -0.5000 
     99 N          -8.0420  -21.8667  -52.5773 N.am      18 UNK        -0.5000 
    100 CA        -9.1060  -22.5054  -53.3587 C.3       18 UNK         0.1400 
    101 CB       -10.1987  -23.0386  -52.4212 C.3       18 UNK        -0.1800 
    102 C         -8.6039  -23.6260  -54.2896 C.2       18 UNK         0.5000 
    103 O         -9.2549  -23.8980  -55.2993 O.2       18 UNK        -0.5000 
    104 N         -7.4585  -24.2430  -53.9603 N.am      19 UNK        -0.5000 
    105 CA        -6.8080  -25.2490  -54.8050 C.3       19 UNK         0.1400 
    106 CB        -5.9071  -26.1408  -53.9361 C.3       19 UNK        -0.1800 
    107 C         -5.9935  -24.6230  -55.9554 C.2       19 UNK         0.5000 
    108 O         -5.6227  -25.3417  -56.8835 O.2       19 UNK        -0.5000 
    109 N         -5.7100  -23.3122  -55.8631 N.am      20 UNK        -0.5000 
    110 CA        -4.9334  -22.4905  -56.8021 C.3       20 UNK         0.1400 
    111 CB        -5.6648  -22.3710  -58.1549 C.3       20 UNK        -0.1800 
    112 C         -3.4598  -22.9318  -56.9602 C.2       20 UNK         0.5000 
    113 O         -2.8178  -22.5897  -57.9539 O.2       20 UNK        -0.5000 
    114 N         -2.9402  -23.6628  -55.9655 N.am      21 UNK        -0.5000 
    115 CA        -1.5850  -24.2196  -55.9258 C.3       21 UNK         0.1400 
    116 CB        -1.6508  -25.6167  -55.2819 C.3       21 UNK        -0.1800 
    117 C         -0.5813  -23.2963  -55.2008 C.2       21 UNK         0.5000 
    118 O          0.4790  -23.7625  -54.7815 O.2       21 UNK        -0.5000 
    119 N         -0.9397  -22.0158  -55.0442 N.am      22 UNK        -0.5000 
    120 CA        -0.1400  -20.9538  -54.4171 C.3       22 UNK         0.1400 
    121 C          1.2421  -20.7391  -55.0971 C.2       22 UNK         0.5000 
    122 N          2.3054  -20.5654  -54.3235 N.am      22 UNK        -0.7600 
    123 O          1.3487  -20.6826  -56.3202 O.2       22 UNK        -0.5000 
    124 C124       -0.9194  -19.6135  -54.3850 C.3       23 UNK        -0.0398 
    125 S125       -2.5475  -19.7167  -53.5632 S.3       23 UNK        -0.2404 
    126 C126       -2.1112  -19.8714  -51.8010 C.3       23 UNK        -0.0205 
    127 H127        2.8334  -15.8032  -47.7257 H         1 UNK         0.0600 
    128 H128        2.4315  -14.4834  -48.8380 H         1 UNK         0.0600 
    129 H129        3.6635  -14.2490  -47.5994 H         1 UNK         0.0600 
    130 H130        0.2282  -14.1405  -48.2775 H         1 UNK         0.3000 
    131 H131       -0.7653  -14.2705  -45.6318 H         1 UNK         0.0600 
    132 H132       -2.8955  -13.4235  -46.5806 H         1 UNK         0.0800 
    133 H133       -2.1053  -13.0329  -48.0816 H         1 UNK         0.0800 
    134 H134       -1.8070  -14.3749  -49.8793 H         1 UNK         0.0800 
    135 H135       -3.2906  -15.2837  -49.9970 H         1 UNK         0.0800 
    136 H136       -3.2260  -17.6262  -50.6943 H         1 UNK         0.1150 
    137 H137        0.5593  -19.4010  -51.6423 H         1 UNK         0.1150 
    138 H138        0.4087  -15.5673  -49.7492 H         1 UNK         0.1150 
    139 H139        2.5250  -17.3363  -51.7072 H         1 UNK         0.0800 
    140 H140        2.5206  -16.5226  -50.1651 H         1 UNK         0.0800 
    141 H141        1.4046  -18.1836  -48.1324 H         1 UNK         0.0800 
    142 H142        2.9828  -18.6129  -47.5462 H         1 UNK         0.0800 
    143 H143        2.3570  -21.0538  -48.4205 H         1 UNK         0.0600 
    144 H144        1.9515  -19.8830  -45.8254 H         1 UNK         0.3000 
    145 H145        1.8269  -23.1159  -44.2233 H         1 UNK         0.0600 
    146 H146        3.6879  -22.0844  -42.9815 H         1 UNK         0.0600 
    147 H147        4.2279  -22.5104  -44.5973 H         1 UNK         0.0600 
    148 H148        3.8686  -20.8324  -44.2088 H         1 UNK         0.0600 
    149 H149        1.6536  -20.4848  -43.1497 H         1 UNK         0.3000 
    150 H150       -1.9118  -20.1802  -43.3403 H         1 UNK         0.0600 
    151 H151       -1.4520  -21.6129  -41.3329 H         1 UNK         0.0600 
    152 H152       -1.6502  -19.9225  -40.8971 H         1 UNK         0.0600 
    153 H153       -0.0380  -20.6330  -40.9577 H         1 UNK         0.0600 
    154 H154       -0.0227  -18.4547  -42.1614 H         1 UNK         0.3000 
    155 H155        0.6593  -16.4833  -45.1158 H         1 UNK         0.0600 
    156 H156       -0.5869  -16.0889  -42.3410 H         1 UNK         0.0600 
    157 H157       -1.3755  -15.7281  -43.8663 H         1 UNK         0.0600 
    158 H158        0.0517  -14.8185  -43.3778 H         1 UNK         0.0600 
    159 H159        1.9035  -16.3298  -42.5982 H         1 UNK         0.3000 
    160 H160        4.6259  -18.5737  -43.1393 H         1 UNK         0.0600 
    161 H161        5.8330  -16.5107  -42.4945 H         1 UNK         0.0600 
    162 H162        4.4101  -15.5293  -42.8373 H         1 UNK         0.0600 
    163 H163        5.2402  -16.3645  -44.1426 H         1 UNK         0.0600 
    164 H164        3.7294  -16.9340  -40.9391 H         1 UNK         0.3000 
    165 H165        1.9207  -19.5088  -39.2410 H         1 UNK         0.0600 
    166 H166        3.5490  -18.8964  -37.4800 H         1 UNK         0.0600 
    167 H167        4.3389  -19.8623  -38.7160 H         1 UNK         0.0600 
    168 H168        4.5962  -18.1222  -38.6693 H         1 UNK         0.0600 
    169 H169        2.5118  -16.7815  -38.5857 H         1 UNK         0.3000 
    170 H170       -0.3849  -15.3374  -40.0708 H         1 UNK         0.0600 
    171 H171       -1.2066  -16.3523  -37.9358 H         1 UNK         0.0600 
    172 H172        0.2794  -15.8672  -37.1280 H         1 UNK         0.0600 
    173 H173       -0.8351  -14.6470  -37.7454 H         1 UNK         0.0600 
    174 H174        1.4578  -14.0568  -38.4577 H         1 UNK         0.3000 
    175 H175        2.7109  -12.4142  -39.5179 H         1 UNK         0.0600 
    176 H176        4.9816  -14.4427  -39.9496 H         1 UNK         0.0600 
    177 H177        5.1498  -12.8567  -39.1964 H         1 UNK         0.0600 
    178 H178        4.1993  -14.1050  -38.4102 H         1 UNK         0.0600 
    179 H179        4.5665  -12.7404  -41.6632 H         1 UNK         0.3000 
    180 H180        3.9598  -10.5662  -43.3775 H         1 UNK         0.0600 
    181 H181        4.0449  -13.5146  -44.1940 H         1 UNK         0.0600 
    182 H182        5.3468  -12.5607  -43.4938 H         1 UNK         0.0600 
    183 H183        4.8017  -12.2250  -45.1235 H         1 UNK         0.0600 
    184 H184        2.1148  -12.0877  -45.1177 H         1 UNK         0.3000 
    185 H185       -0.1638   -9.5467  -45.5163 H         1 UNK         0.0600 
    186 H186        1.4934   -8.1898  -46.7835 H         1 UNK         0.0600 
    187 H187        2.1204   -9.6385  -47.5601 H         1 UNK         0.0600 
    188 H188        0.4714   -9.1006  -47.8824 H         1 UNK         0.0600 
    189 H189        0.8451  -11.7002  -47.2364 H         1 UNK         0.3000 
    190 H190       -0.5228  -19.7754  -46.7092 H         1 UNK         0.3000 
    191 H191       -2.3315  -20.1963  -48.9000 H         1 UNK         0.0600 
    192 H192       -2.9160  -19.7312  -45.9386 H         1 UNK         0.0600 
    193 H193       -4.0397  -19.5109  -47.2743 H         1 UNK         0.0600 
    194 H194       -2.6435  -18.4606  -47.1320 H         1 UNK         0.0600 
    195 H195       -0.7777  -22.5888  -47.4209 H         1 UNK         0.3000 
    196 H196       -2.6850  -24.4342  -46.5007 H         1 UNK         0.0600 
    197 H197       -0.8469  -26.0972  -46.8929 H         1 UNK         0.0600 
    198 H198       -0.2608  -24.6494  -46.0908 H         1 UNK         0.0600 
    199 H199        0.0473  -24.8897  -47.8109 H         1 UNK         0.0600 
    200 H200       -2.1912  -23.3882  -49.7200 H         1 UNK         0.3000 
    201 H201       -3.2683  -25.6356  -51.1862 H         1 UNK         0.0600 
    202 H202       -1.7709  -23.9170  -52.2138 H         1 UNK         0.0600 
    203 H203       -2.9818  -22.6711  -51.9151 H         1 UNK         0.0600 
    204 H204       -3.3183  -23.9711  -53.0420 H         1 UNK         0.0600 
    205 H205       -4.9245  -25.4152  -49.0864 H         1 UNK         0.3000 
    206 H206       -7.0131  -25.2901  -48.3330 H         1 UNK         0.0600 
    207 H207       -7.4035  -26.7410  -50.3347 H         1 UNK         0.0600 
    208 H208       -8.8265  -25.7906  -49.9410 H         1 UNK         0.0600 
    209 H209       -7.8084  -25.3201  -51.2940 H         1 UNK         0.0600 
    210 H210       -5.7901  -22.8154  -48.2434 H         1 UNK         0.3000 
    211 H211       -6.0815  -20.6459  -47.9736 H         1 UNK         0.0600 
    212 H212       -9.1061  -21.1175  -48.0442 H         1 UNK         0.0600 
    213 H213       -8.2724  -19.7211  -47.3807 H         1 UNK         0.0600 
    214 H214       -8.0850  -21.2910  -46.6172 H         1 UNK         0.0600 
    215 H215       -5.5869  -21.6311  -50.4841 H         1 UNK         0.3000 
    216 H216       -5.0766  -20.9394  -52.4928 H         1 UNK         0.0600 
    217 H217       -6.8191  -18.4380  -52.2076 H         1 UNK         0.0600 
    218 H218       -5.5609  -18.7281  -53.3942 H         1 UNK         0.0600 
    219 H219       -5.1325  -18.5394  -51.7033 H         1 UNK         0.0600 
    220 H220       -8.0419  -22.0418  -51.5800 H         1 UNK         0.3000 
    221 H221       -9.5565  -21.7359  -53.9892 H         1 UNK         0.0600 
    222 H222       -9.8481  -23.8891  -51.8368 H         1 UNK         0.0600 
    223 H223      -10.5404  -22.2693  -51.7285 H         1 UNK         0.0600 
    224 H224      -11.0667  -23.3741  -52.9899 H         1 UNK         0.0600 
    225 H225       -6.9680  -23.9666  -53.1146 H         1 UNK         0.3000 
    226 H226       -7.5751  -25.8853  -55.2515 H         1 UNK         0.0600 
    227 H227       -6.4550  -26.5593  -53.0918 H         1 UNK         0.0600 
    228 H228       -5.5158  -26.9777  -54.5158 H         1 UNK         0.0600 
    229 H229       -5.0513  -25.5921  -53.5461 H         1 UNK         0.0600 
    230 H230       -6.1013  -22.8050  -55.0794 H         1 UNK         0.3000 
    231 H231       -4.8976  -21.4927  -56.3623 H         1 UNK         0.0600 
    232 H232       -6.6960  -22.0455  -58.0166 H         1 UNK         0.0600 
    233 H233       -5.6810  -23.3194  -58.6925 H         1 UNK         0.0600 
    234 H234       -5.1795  -21.6382  -58.8005 H         1 UNK         0.0600 
    235 H235       -3.5374  -23.8796  -55.1825 H         1 UNK         0.3000 
    236 H236       -1.2159  -24.3447  -56.9457 H         1 UNK         0.0600 
    237 H237       -0.6820  -26.1157  -55.3259 H         1 UNK         0.0600 
    238 H238       -1.9464  -25.5696  -54.2342 H         1 UNK         0.0600 
    239 H239       -2.3645  -26.2560  -55.8022 H         1 UNK         0.0600 
    240 H240       -1.8264  -21.7262  -55.4264 H         1 UNK         0.3000 
    241 H241        0.0423  -21.2699  -53.3889 H         1 UNK         0.0600 
    242 H242        2.2475  -20.6135  -53.3186 H         1 UNK         0.3800 
    243 H243        3.2021  -20.4101  -54.7574 H         1 UNK         0.3800 
    244 H244       -0.3308  -18.8277  -53.9117 H         1 UNK         0.0800 
    245 H245       -1.0966  -19.2653  -55.4042 H         1 UNK         0.0800 
    246 H246       -3.0254  -20.0535  -51.2352 H         1 UNK         0.0800 
    247 H247       -1.4894  -20.7549  -51.6529 H         1 UNK         0.0800 
@<TRIPOS>BOND
     1    1    2 1    
     2    1  127 1    
     3    1  128 1    
     4    1  129 1    
     5    2    3 2    
     6    2    4 am   BACKBONE|DICT|INTERRES
     7    4    5 1    
     8    4  130 1    
     9    5    6 1    
    10    5   65 1    
    11    5  131 1    
    12    6    7 1    
    13    6  132 1    
    14    6  133 1    
    15    7    8 1    
    16    8    9 1    
    17    8  134 1    
    18    8  135 1    
    19    9   10 ar   
    20    9   14 ar   
    21   10   11 ar   
    22   10  136 1    
    23   11   12 ar   
    24   11  126 1    
    25   12   13 ar   
    26   12  137 1    
    27   13   14 ar   
    28   13   15 1    
    29   14  138 1    
    30   15   16 1    
    31   15  139 1    
    32   15  140 1    
    33   16   17 1    
    34   17   18 1    
    35   17  141 1    
    36   17  142 1    
    37   18   19 1    
    38   18   67 1    
    39   18  143 1    
    40   19   20 am   BACKBONE|DICT|INTERRES
    41   19  144 1    
    42   20   21 2    
    43   20   22 1    
    44   22   23 1    
    45   22   24 1    
    46   22  145 1    
    47   23  146 1    
    48   23  147 1    
    49   23  148 1    
    50   24   25 am   BACKBONE|DICT|INTERRES
    51   24  149 1    
    52   25   26 2    
    53   25   27 1    
    54   27   28 1    
    55   27   29 1    
    56   27  150 1    
    57   28  151 1    
    58   28  152 1    
    59   28  153 1    
    60   29   30 am   BACKBONE|DICT|INTERRES
    61   29  154 1    
    62   30   31 2    
    63   30   32 1    
    64   32   33 1    
    65   32   34 1    
    66   32  155 1    
    67   33  156 1    
    68   33  157 1    
    69   33  158 1    
    70   34   35 am   BACKBONE|DICT|INTERRES
    71   34  159 1    
    72   35   36 2    
    73   35   37 1    
    74   37   38 1    
    75   37   39 1    
    76   37  160 1    
    77   38  161 1    
    78   38  162 1    
    79   38  163 1    
    80   39   40 am   BACKBONE|DICT|INTERRES
    81   39  164 1    
    82   40   41 2    
    83   40   42 1    
    84   42   43 1    
    85   42   44 1    
    86   42  165 1    
    87   43  166 1    
    88   43  167 1    
    89   43  168 1    
    90   44   45 am   BACKBONE|DICT|INTERRES
    91   44  169 1    
    92   45   46 2    
    93   45   47 1    
    94   47   48 1    
    95   47   49 1    
    96   47  170 1    
    97   48  171 1    
    98   48  172 1    
    99   48  173 1    
   100   49   50 am   BACKBONE|DICT|INTERRES
   101   49  174 1    
   102   50   51 2    
   103   50   52 1    
   104   52   53 1    
   105   52   54 1    
   106   52  175 1    
   107   53  176 1    
   108   53  177 1    
   109   53  178 1    
   110   54   55 am   BACKBONE|DICT|INTERRES
   111   54  179 1    
   112   55   56 2    
   113   55   57 1    
   114   57   58 1    
   115   57   59 1    
   116   57  180 1    
   117   58  181 1    
   118   58  182 1    
   119   58  183 1    
   120   59   60 am   BACKBONE|DICT|INTERRES
   121   59  184 1    
   122   60   61 2    
   123   60   62 1    
   124   62   63 1    
   125   62   64 1    
   126   62  185 1    
   127   63  186 1    
   128   63  187 1    
   129   63  188 1    
   130   64   65 am   BACKBONE|DICT|INTERRES
   131   64  189 1    
   132   65   66 2    
   133   67   68 2    
   134   67   69 am   BACKBONE|DICT|INTERRES
   135   69   70 1    
   136   69  190 1    
   137   70   71 1    
   138   70   72 1    
   139   70  191 1    
   140   71  192 1    
   141   71  193 1    
   142   71  194 1    
   143   72   73 2    
   144   72   74 am   BACKBONE|DICT|INTERRES
   145   74   75 1    
   146   74  195 1    
   147   75   76 1    
   148   75   77 1    
   149   75  196 1    
   150   76  197 1    
   151   76  198 1    
   152   76  199 1    
   153   77   78 2    
   154   77   79 am   BACKBONE|DICT|INTERRES
   155   79   80 1    
   156   79  200 1    
   157   80   81 1    
   158   80   82 1    
   159   80  201 1    
   160   81  202 1    
   161   81  203 1    
   162   81  204 1    
   163   82   83 2    
   164   82   84 am   BACKBONE|DICT|INTERRES
   165   84   85 1    
   166   84  205 1    
   167   85   86 1    
   168   85   87 1    
   169   85  206 1    
   170   86  207 1    
   171   86  208 1    
   172   86  209 1    
   173   87   88 2    
   174   87   89 am   BACKBONE|DICT|INTERRES
   175   89   90 1    
   176   89  210 1    
   177   90   91 1    
   178   90   92 1    
   179   90  211 1    
   180   91  212 1    
   181   91  213 1    
   182   91  214 1    
   183   92   93 2    
   184   92   94 am   BACKBONE|DICT|INTERRES
   185   94   95 1    
   186   94  215 1    
   187   95   96 1    
   188   95   97 1    
   189   95  216 1    
   190   96  217 1    
   191   96  218 1    
   192   96  219 1    
   193   97   98 2    
   194   97   99 am   BACKBONE|DICT|INTERRES
   195   99  100 1    
   196   99  220 1    
   197  100  101 1    
   198  100  102 1    
   199  100  221 1    
   200  101  222 1    
   201  101  223 1    
   202  101  224 1    
   203  102  103 2    
   204  102  104 am   BACKBONE|DICT|INTERRES
   205  104  105 1    
   206  104  225 1    
   207  105  106 1    
   208  105  107 1    
   209  105  226 1    
   210  106  227 1    
   211  106  228 1    
   212  106  229 1    
   213  107  108 2    
   214  107  109 am   BACKBONE|DICT|INTERRES
   215  109  110 1    
   216  109  230 1    
   217  110  111 1    
   218  110  112 1    
   219  110  231 1    
   220  111  232 1    
   221  111  233 1    
   222  111  234 1    
   223  112  113 2    
   224  112  114 am   BACKBONE|DICT|INTERRES
   225  114  115 1    
   226  114  235 1    
   227  115  116 1    
   228  115  117 1    
   229  115  236 1    
   230  116  237 1    
   231  116  238 1    
   232  116  239 1    
   233  117  118 2    
   234  117  119 am   BACKBONE|DICT|INTERRES
   235  119  120 1    
   236  119  240 1    
   237  120  121 1    
   238  120  124 1    
   239  120  241 1    
   240  121  122 am   BACKBONE|DICT|INTERRES
   241  121  123 2    
   242  122  242 1    
   243  122  243 1    
   244  124  125 1    
   245  124  244 1    
   246  124  245 1    
   247  125  126 1    
   248  126  246 1    
   249  126  247 1    
@<TRIPOS>SUBSTRUCTURE
     1 UNK         1 GROUP             0       ****    0 ROOT    
