@<TRIPOS>MOLECULE
3R540
247   249    1
SMALL
USER_CHARGES


@<TRIPOS>ATOM
      1 CA         -1.2552  -13.9339  -50.7464 C.3       0 UNK        -0.1800 
      2 C           0.0451  -13.6396  -50.0152 C.2       0 UNK         0.5000 
      3 O           0.6117  -12.5574  -50.1726 O.2       0 UNK        -0.5000 
      4 N           0.5125  -14.5907  -49.1986 N.am      1 UNK        -0.5000 
      5 CA          1.7592  -14.5285  -48.4219 C.3       1 UNK         0.1400 
      6 C6          2.3084  -15.9408  -48.0959 C.3       23 UNK        -0.0398 
      7 S7          2.5857  -16.9794  -49.5708 S.3       23 UNK        -0.2404 
      8 C8          1.3949  -18.3306  -49.3046 C.3       23 UNK        -0.0205 
      9 C9         -0.0357  -17.9001  -49.5844 C.ar      23 UNK        -0.0193 
     10 C10        -0.5058  -17.8513  -50.8994 C.ar      23 UNK        -0.1150 
     11 C11        -1.8309  -17.4930  -51.1744 C.ar      23 UNK        -0.0193 
     12 C12        -2.6846  -17.1982  -50.1073 C.ar      23 UNK        -0.1150 
     13 C13        -2.2262  -17.2339  -48.7885 C.ar      23 UNK        -0.0193 
     14 C14        -0.8963  -17.5770  -48.5327 C.ar      23 UNK        -0.1150 
     15 C15        -3.1771  -16.9067  -47.6482 C.3       23 UNK        -0.0205 
     16 S16        -4.0358  -18.3949  -47.0463 S.3       23 UNK        -0.2404 
     17 C17        -2.7218  -19.1980  -46.0692 C.3       23 UNK        -0.0398 
     18 CA         -2.0798  -20.4008  -46.7950 C.3       11 UNK         0.1400 
     19 N          -0.7177  -20.6578  -46.3317 N.am      11 UNK        -0.5000 
     20 C           0.0953  -21.6099  -46.8079 C.2       10 UNK         0.5000 
     21 O          -0.1780  -22.3280  -47.7697 O.2       10 UNK        -0.5000 
     22 CA          1.4100  -21.8402  -46.0436 C.3       10 UNK         0.1400 
     23 CB          2.5583  -21.0359  -46.6655 C.3       10 UNK        -0.1800 
     24 N           1.2968  -21.5210  -44.6178 N.am      10 UNK        -0.5000 
     25 C           0.5517  -22.2159  -43.7478 C.2       9 UNK         0.5000 
     26 O          -0.1200  -23.2003  -44.0567 O.2       9 UNK        -0.5000 
     27 CA          0.5316  -21.7045  -42.2983 C.3       9 UNK         0.1400 
     28 CB          1.9461  -21.6409  -41.6972 C.3       9 UNK        -0.1800 
     29 N          -0.1183  -20.4012  -42.1521 N.am      9 UNK        -0.5000 
     30 C          -1.4086  -20.1462  -42.4176 C.2       8 UNK         0.5000 
     31 O          -2.1688  -20.9412  -42.9705 O.2       8 UNK        -0.5000 
     32 CA         -1.9394  -18.7679  -41.9958 C.3       8 UNK         0.1400 
     33 CB         -1.9149  -18.6066  -40.4669 C.3       8 UNK        -0.1800 
     34 N          -1.1342  -17.7175  -42.6068 N.am      8 UNK        -0.5000 
     35 C          -1.5726  -16.8522  -43.5301 C.2       7 UNK         0.5000 
     36 O          -2.7509  -16.7544  -43.8712 O.2       7 UNK        -0.5000 
     37 CA         -0.5238  -15.9474  -44.2085 C.3       7 UNK         0.1400 
     38 CB         -0.6399  -14.5157  -43.6638 C.3       7 UNK        -0.1800 
     39 N           0.8539  -16.4178  -44.0453 N.am      7 UNK        -0.5000 
     40 C           1.3467  -17.5625  -44.5440 C.2       6 UNK         0.5000 
     41 O           0.6968  -18.3333  -45.2493 O.2       6 UNK        -0.5000 
     42 CA          2.7813  -17.9589  -44.1391 C.3       6 UNK         0.1400 
     43 CB          3.7814  -17.5523  -45.2299 C.3       6 UNK        -0.1800 
     44 N           3.2237  -17.3875  -42.8687 N.am      6 UNK        -0.5000 
     45 C           2.6196  -17.5088  -41.6778 C.2       5 UNK         0.5000 
     46 O           1.6345  -18.2228  -41.4792 O.2       5 UNK        -0.5000 
     47 CA          3.1747  -16.6249  -40.5413 C.3       5 UNK         0.1400 
     48 CB          4.1043  -17.4439  -39.6341 C.3       5 UNK        -0.1800 
     49 N           3.8917  -15.4334  -41.0226 N.am      5 UNK        -0.5000 
     50 C           3.3414  -14.4542  -41.7553 C.2       4 UNK         0.5000 
     51 O           2.1501  -14.4308  -42.0750 O.2       4 UNK        -0.5000 
     52 CA          4.2875  -13.3629  -42.2734 C.3       4 UNK         0.1400 
     53 CB          5.1447  -13.8933  -43.4384 C.3       4 UNK        -0.1800 
     54 N           3.4833  -12.2364  -42.7308 N.am      4 UNK        -0.5000 
     55 C           3.8996  -10.9744  -42.8728 C.2       3 UNK         0.5000 
     56 O           5.0529  -10.6090  -42.6363 O.2       3 UNK        -0.5000 
     57 CA          2.8379   -9.9526  -43.3361 C.3       3 UNK         0.1400 
     58 CB          3.4522   -8.6550  -43.9039 C.3       3 UNK        -0.1800 
     59 N           1.8446  -10.5149  -44.2624 N.am      3 UNK        -0.5000 
     60 C           2.0632  -10.9951  -45.4960 C.2       2 UNK         0.5000 
     61 O           3.1667  -11.0256  -46.0467 O.2       2 UNK        -0.5000 
     62 CA          0.8059  -11.4741  -46.2495 C.3       2 UNK         0.1400 
     63 CB          0.0664  -10.2795  -46.8729 C.3       2 UNK        -0.1800 
     64 N           1.0892  -12.4421  -47.3082 N.am      2 UNK        -0.5000 
     65 C           1.5986  -13.6687  -47.1436 C.2       1 UNK         0.5000 
     66 O           1.9032  -14.1322  -46.0440 O.2       1 UNK        -0.5000 
     67 C          -2.9606  -21.6612  -46.7011 C.2       11 UNK         0.5000 
     68 O          -3.5576  -22.0596  -47.6991 O.2       11 UNK        -0.5000 
     69 N          -2.9831  -22.2994  -45.5248 N.am      12 UNK        -0.5000 
     70 CA         -3.6979  -23.5525  -45.3056 C.3       12 UNK         0.1400 
     71 CB         -3.8451  -23.7959  -43.7959 C.3       12 UNK        -0.1800 
     72 C          -3.0127  -24.7495  -45.9895 C.2       12 UNK         0.5000 
     73 O          -3.6893  -25.5333  -46.6561 O.2       12 UNK        -0.5000 
     74 N          -1.6943  -24.8828  -45.7905 N.am      13 UNK        -0.5000 
     75 CA         -0.9297  -26.0723  -46.1642 C.3       13 UNK         0.1400 
     76 CB          0.3969  -26.0914  -45.3891 C.3       13 UNK        -0.1800 
     77 C          -0.6657  -26.2179  -47.6722 C.2       13 UNK         0.5000 
     78 O          -0.7572  -27.3345  -48.1850 O.2       13 UNK        -0.5000 
     79 N          -0.3064  -25.1169  -48.3442 N.am      14 UNK        -0.5000 
     80 CA          0.1571  -25.1235  -49.7322 C.3       14 UNK         0.1400 
     81 CB          1.5264  -24.4279  -49.8195 C.3       14 UNK        -0.1800 
     82 C          -0.8520  -24.4561  -50.6743 C.2       14 UNK         0.5000 
     83 O          -1.1527  -25.0215  -51.7261 O.2       14 UNK        -0.5000 
     84 N          -1.3556  -23.2718  -50.2980 N.am      15 UNK        -0.5000 
     85 CA         -2.2638  -22.4888  -51.1408 C.3       15 UNK         0.1400 
     86 CB         -2.2220  -21.0128  -50.7269 C.3       15 UNK        -0.1800 
     87 C          -3.7141  -22.9999  -51.1234 C.2       15 UNK         0.5000 
     88 O          -4.4728  -22.6453  -52.0241 O.2       15 UNK        -0.5000 
     89 N          -4.0810  -23.7921  -50.1056 N.am      16 UNK        -0.5000 
     90 CA         -5.4235  -24.3236  -49.8398 C.3       16 UNK         0.1400 
     91 CB         -5.8351  -25.3321  -50.9330 C.3       16 UNK        -0.1800 
     92 C          -6.4746  -23.2130  -49.6093 C.2       16 UNK         0.5000 
     93 O          -7.6196  -23.3496  -50.0424 O.2       16 UNK        -0.5000 
     94 N          -6.0303  -22.1284  -48.9564 N.am      17 UNK        -0.5000 
     95 CA         -6.7198  -20.9024  -48.5359 C.3       17 UNK         0.1400 
     96 CB         -7.0459  -21.0256  -47.0351 C.3       17 UNK        -0.1800 
     97 C          -7.9460  -20.4654  -49.3772 C.2       17 UNK         0.5000 
     98 O          -9.0615  -20.4608  -48.8562 O.2       17 UNK        -0.5000 
     99 N          -7.7965  -20.1029  -50.6584 N.am      18 UNK        -0.5000 
    100 CA        -6.5872  -20.0853  -51.4827 C.3       18 UNK         0.1400 
    101 CB        -6.1130  -18.6328  -51.6606 C.3       18 UNK        -0.1800 
    102 C         -6.8990  -20.7923  -52.8158 C.2       18 UNK         0.5000 
    103 O         -6.5892  -20.2722  -53.8891 O.2       18 UNK        -0.5000 
    104 N         -7.5453  -21.9634  -52.7193 N.am      19 UNK        -0.5000 
    105 CA        -8.0861  -22.7437  -53.8347 C.3       19 UNK         0.1400 
    106 CB        -8.8972  -23.9192  -53.2685 C.3       19 UNK        -0.1800 
    107 C         -7.0485  -23.2474  -54.8581 C.2       19 UNK         0.5000 
    108 O         -7.4212  -23.4971  -56.0052 O.2       19 UNK        -0.5000 
    109 N         -5.7774  -23.3744  -54.4530 N.am      20 UNK        -0.5000 
    110 CA        -4.6667  -23.7621  -55.3264 C.3       20 UNK         0.1400 
    111 CB        -3.6470  -24.5875  -54.5230 C.3       20 UNK        -0.1800 
    112 C         -3.9921  -22.5497  -56.0016 C.2       20 UNK         0.5000 
    113 O         -2.9747  -22.7346  -56.6713 O.2       20 UNK        -0.5000 
    114 N         -4.5371  -21.3362  -55.8076 N.am      21 UNK        -0.5000 
    115 CA        -4.1001  -20.0632  -56.3966 C.3       21 UNK         0.1400 
    116 CB        -4.3961  -20.0420  -57.9104 C.3       21 UNK        -0.1800 
    117 C         -2.6332  -19.7210  -56.0616 C.2       21 UNK         0.5000 
    118 O         -1.8735  -19.3000  -56.9354 O.2       21 UNK        -0.5000 
    119 N         -2.2722  -19.9499  -54.7928 N.am      22 UNK        -0.5000 
    120 CA        -0.9239  -19.8140  -54.2112 C.3       22 UNK         0.1400 
    121 C          0.0571  -20.9637  -54.5989 C.2       22 UNK         0.5000 
    122 N         -0.3574  -21.9941  -55.3278 N.am      22 UNK        -0.7600 
    123 O          1.2174  -20.9413  -54.1988 O.2       22 UNK        -0.5000 
    124 C124       -0.2745  -18.4098  -54.4121 C.3       23 UNK        -0.0398 
    125 S125       -1.2202  -16.9223  -53.8949 S.3       23 UNK        -0.2404 
    126 C126       -2.3946  -17.4469  -52.5940 C.3       23 UNK        -0.0205 
    127 H127       -1.9666  -14.4318  -50.0882 H         1 UNK         0.0600 
    128 H128       -1.0674  -14.5760  -51.6069 H         1 UNK         0.0600 
    129 H129       -1.7154  -13.0117  -51.1012 H         1 UNK         0.0600 
    130 H130        0.0049  -15.4620  -49.1273 H         1 UNK         0.3000 
    131 H131        2.5119  -14.0271  -49.0342 H         1 UNK         0.0600 
    132 H132        3.2707  -15.8510  -47.5904 H         1 UNK         0.0800 
    133 H133        1.6468  -16.4582  -47.4002 H         1 UNK         0.0800 
    134 H134        1.4867  -18.7078  -48.2863 H         1 UNK         0.0800 
    135 H135        1.6549  -19.1636  -49.9594 H         1 UNK         0.0800 
    136 H136        0.1705  -18.1026  -51.7003 H         1 UNK         0.1150 
    137 H137       -3.7152  -16.9370  -50.3022 H         1 UNK         0.1150 
    138 H138       -0.5359  -17.6156  -47.5149 H         1 UNK         0.1150 
    139 H139       -2.6464  -16.4199  -46.8291 H         1 UNK         0.0800 
    140 H140       -3.9244  -16.1882  -47.9881 H         1 UNK         0.0800 
    141 H141       -3.1285  -19.4801  -45.0969 H         1 UNK         0.0800 
    142 H142       -1.9575  -18.4540  -45.8557 H         1 UNK         0.0800 
    143 H143       -1.9794  -20.1419  -47.8481 H         1 UNK         0.0600 
    144 H144       -0.3642  -20.0584  -45.5952 H         1 UNK         0.3000 
    145 H145        1.6560  -22.9000  -46.1345 H         1 UNK         0.0600 
    146 H146        3.5091  -21.2694  -46.1865 H         1 UNK         0.0600 
    147 H147        2.6643  -21.2618  -47.7275 H         1 UNK         0.0600 
    148 H148        2.3904  -19.9653  -46.5727 H         1 UNK         0.0600 
    149 H149        1.7895  -20.7054  -44.2919 H         1 UNK         0.3000 
    150 H150       -0.0444  -22.4241  -41.7127 H         1 UNK         0.0600 
    151 H151        2.4616  -22.5961  -41.8060 H         1 UNK         0.0600 
    152 H152        1.9075  -21.4137  -40.6317 H         1 UNK         0.0600 
    153 H153        2.5615  -20.8776  -42.1740 H         1 UNK         0.0600 
    154 H154        0.4499  -19.6673  -41.7378 H         1 UNK         0.3000 
    155 H155       -2.9789  -18.7032  -42.3238 H         1 UNK         0.0600 
    156 H156       -0.8996  -18.6290  -40.0689 H         1 UNK         0.0600 
    157 H157       -2.4781  -19.4041  -39.9806 H         1 UNK         0.0600 
    158 H158       -2.3669  -17.6607  -40.1679 H         1 UNK         0.0600 
    159 H159       -0.1454  -17.7250  -42.3844 H         1 UNK         0.3000 
    160 H160       -0.7399  -15.9278  -45.2783 H         1 UNK         0.0600 
    161 H161        0.1157  -13.8620  -44.0960 H         1 UNK         0.0600 
    162 H162       -0.5200  -14.4891  -42.5800 H         1 UNK         0.0600 
    163 H163       -1.6153  -14.0871  -43.8966 H         1 UNK         0.0600 
    164 H164        1.4523  -15.8320  -43.4734 H         1 UNK         0.3000 
    165 H165        2.8052  -19.0443  -44.0364 H         1 UNK         0.0600 
    166 H166        3.8459  -16.4678  -45.3255 H         1 UNK         0.0600 
    167 H167        4.7804  -17.9289  -45.0095 H         1 UNK         0.0600 
    168 H168        3.4949  -17.9516  -46.2027 H         1 UNK         0.0600 
    169 H169        4.0266  -16.7787  -42.9159 H         1 UNK         0.3000 
    170 H170        2.3227  -16.2873  -39.9478 H         1 UNK         0.0600 
    171 H171        3.5922  -18.3243  -39.2431 H         1 UNK         0.0600 
    172 H172        4.9887  -17.7898  -40.1706 H         1 UNK         0.0600 
    173 H173        4.4377  -16.8572  -38.7779 H         1 UNK         0.0600 
    174 H174        4.8761  -15.3844  -40.8010 H         1 UNK         0.3000 
    175 H175        4.9300  -13.0431  -41.4505 H         1 UNK         0.0600 
    176 H176        4.5239  -14.2066  -44.2792 H         1 UNK         0.0600 
    177 H177        5.8336  -13.1308  -43.8021 H         1 UNK         0.0600 
    178 H178        5.7465  -14.7497  -43.1328 H         1 UNK         0.0600 
    179 H179        2.5142  -12.4705  -42.9083 H         1 UNK         0.3000 
    180 H180        2.2847   -9.6781  -42.4368 H         1 UNK         0.0600 
    181 H181        4.0883   -8.8502  -44.7676 H         1 UNK         0.0600 
    182 H182        4.0657   -8.1527  -43.1552 H         1 UNK         0.0600 
    183 H183        2.6770   -7.9524  -44.2096 H         1 UNK         0.0600 
    184 H184        0.8970  -10.5278  -43.9111 H         1 UNK         0.3000 
    185 H185        0.1396  -11.9567  -45.5327 H         1 UNK         0.0600 
    186 H186       -0.2045   -9.5428  -46.1155 H         1 UNK         0.0600 
    187 H187        0.6813   -9.7730  -47.6181 H         1 UNK         0.0600 
    188 H188       -0.8564  -10.5965  -47.3595 H         1 UNK         0.0600 
    189 H189        0.8891  -12.1507  -48.2594 H         1 UNK         0.3000 
    190 H190       -2.4703  -21.9217  -44.7338 H         1 UNK         0.3000 
    191 H191       -4.7006  -23.4556  -45.7282 H         1 UNK         0.0600 
    192 H192       -2.8748  -23.8608  -43.3013 H         1 UNK         0.0600 
    193 H193       -4.3797  -24.7258  -43.5988 H         1 UNK         0.0600 
    194 H194       -4.4056  -22.9901  -43.3217 H         1 UNK         0.0600 
    195 H195       -1.2101  -24.1955  -45.2170 H         1 UNK         0.3000 
    196 H196       -1.5035  -26.9470  -45.8498 H         1 UNK         0.0600 
    197 H197        0.9688  -26.9927  -45.6134 H         1 UNK         0.0600 
    198 H198        0.2251  -26.0753  -44.3127 H         1 UNK         0.0600 
    199 H199        1.0228  -25.2349  -45.6407 H         1 UNK         0.0600 
    200 H200       -0.3008  -24.2165  -47.8744 H         1 UNK         0.3000 
    201 H201        0.2965  -26.1476  -50.0846 H         1 UNK         0.0600 
    202 H202        2.2598  -24.9243  -49.1840 H         1 UNK         0.0600 
    203 H203        1.4773  -23.3818  -49.5174 H         1 UNK         0.0600 
    204 H204        1.9104  -24.4538  -50.8400 H         1 UNK         0.0600 
    205 H205       -1.0544  -22.8583  -49.4198 H         1 UNK         0.3000 
    206 H206       -1.9080  -22.5471  -52.1717 H         1 UNK         0.0600 
    207 H207       -1.1989  -20.6499  -50.6314 H         1 UNK         0.0600 
    208 H208       -2.7282  -20.3935  -51.4664 H         1 UNK         0.0600 
    209 H209       -2.7340  -20.8425  -49.7842 H         1 UNK         0.0600 
    210 H210       -3.3900  -23.9705  -49.3901 H         1 UNK         0.3000 
    211 H211       -5.3530  -24.8697  -48.8982 H         1 UNK         0.0600 
    212 H212       -5.9676  -24.8512  -51.9016 H         1 UNK         0.0600 
    213 H213       -6.7756  -25.8227  -50.6801 H         1 UNK         0.0600 
    214 H214       -5.0837  -26.1130  -51.0493 H         1 UNK         0.0600 
    215 H215       -5.0576  -22.1636  -48.6522 H         1 UNK         0.3000 
    216 H216       -5.9899  -20.0985  -48.6354 H         1 UNK         0.0600 
    217 H217       -7.5094  -20.1142  -46.6555 H         1 UNK         0.0600 
    218 H218       -6.1422  -21.1934  -46.4487 H         1 UNK         0.0600 
    219 H219       -7.7293  -21.8529  -46.8410 H         1 UNK         0.0600 
    220 H220       -8.6356  -19.8586  -51.1645 H         1 UNK         0.3000 
    221 H221       -5.7723  -20.6357  -51.0202 H         1 UNK         0.0600 
    222 H222       -6.8703  -18.0190  -52.1495 H         1 UNK         0.0600 
    223 H223       -5.8792  -18.1754  -50.6992 H         1 UNK         0.0600 
    224 H224       -5.2101  -18.5891  -52.2692 H         1 UNK         0.0600 
    225 H225       -7.7241  -22.3358  -51.7916 H         1 UNK         0.3000 
    226 H226       -8.7735  -22.0917  -54.3774 H         1 UNK         0.0600 
    227 H227       -9.7018  -23.5685  -52.6220 H         1 UNK         0.0600 
    228 H228       -9.3549  -24.5027  -54.0684 H         1 UNK         0.0600 
    229 H229       -8.2717  -24.5954  -52.6854 H         1 UNK         0.0600 
    230 H230       -5.5252  -23.1146  -53.5015 H         1 UNK         0.3000 
    231 H231       -5.0448  -24.4031  -56.1251 H         1 UNK         0.0600 
    232 H232       -4.1337  -25.3700  -53.9405 H         1 UNK         0.0600 
    233 H233       -3.0700  -23.9670  -53.8391 H         1 UNK         0.0600 
    234 H234       -2.9337  -25.0748  -55.1884 H         1 UNK         0.0600 
    235 H235       -5.3469  -21.2684  -55.1996 H         1 UNK         0.3000 
    236 H236       -4.7076  -19.2853  -55.9314 H         1 UNK         0.0600 
    237 H237       -3.7926  -20.7714  -58.4517 H         1 UNK         0.0600 
    238 H238       -5.4452  -20.2615  -58.1090 H         1 UNK         0.0600 
    239 H239       -4.1846  -19.0607  -58.3368 H         1 UNK         0.0600 
    240 H240       -2.9734  -20.3388  -54.1801 H         1 UNK         0.3000 
    241 H241       -1.0597  -19.9459  -53.1394 H         1 UNK         0.0600 
    242 H242       -1.2952  -22.0374  -55.7087 H         1 UNK         0.3800 
    243 H243        0.2974  -22.7265  -55.5509 H         1 UNK         0.3800 
    244 H244       -0.0127  -18.2717  -55.4616 H         1 UNK         0.0800 
    245 H245        0.6797  -18.3676  -53.8855 H         1 UNK         0.0800 
    246 H246       -2.8558  -18.4013  -52.8291 H         1 UNK         0.0800 
    247 H247       -3.2106  -16.7231  -52.6181 H         1 UNK         0.0800 
@<TRIPOS>BOND
     1    1    2 1    
     2    1  127 1    
     3    1  128 1    
     4    1  129 1    
     5    2    3 2    
     6    2    4 am   BACKBONE|DICT|INTERRES
     7    4    5 1    
     8    4  130 1    
     9    5    6 1    
    10    5   65 1    
    11    5  131 1    
    12    6    7 1    
    13    6  132 1    
    14    6  133 1    
    15    7    8 1    
    16    8    9 1    
    17    8  134 1    
    18    8  135 1    
    19    9   10 ar   
    20    9   14 ar   
    21   10   11 ar   
    22   10  136 1    
    23   11   12 ar   
    24   11  126 1    
    25   12   13 ar   
    26   12  137 1    
    27   13   14 ar   
    28   13   15 1    
    29   14  138 1    
    30   15   16 1    
    31   15  139 1    
    32   15  140 1    
    33   16   17 1    
    34   17   18 1    
    35   17  141 1    
    36   17  142 1    
    37   18   19 1    
    38   18   67 1    
    39   18  143 1    
    40   19   20 am   BACKBONE|DICT|INTERRES
    41   19  144 1    
    42   20   21 2    
    43   20   22 1    
    44   22   23 1    
    45   22   24 1    
    46   22  145 1    
    47   23  146 1    
    48   23  147 1    
    49   23  148 1    
    50   24   25 am   BACKBONE|DICT|INTERRES
    51   24  149 1    
    52   25   26 2    
    53   25   27 1    
    54   27   28 1    
    55   27   29 1    
    56   27  150 1    
    57   28  151 1    
    58   28  152 1    
    59   28  153 1    
    60   29   30 am   BACKBONE|DICT|INTERRES
    61   29  154 1    
    62   30   31 2    
    63   30   32 1    
    64   32   33 1    
    65   32   34 1    
    66   32  155 1    
    67   33  156 1    
    68   33  157 1    
    69   33  158 1    
    70   34   35 am   BACKBONE|DICT|INTERRES
    71   34  159 1    
    72   35   36 2    
    73   35   37 1    
    74   37   38 1    
    75   37   39 1    
    76   37  160 1    
    77   38  161 1    
    78   38  162 1    
    79   38  163 1    
    80   39   40 am   BACKBONE|DICT|INTERRES
    81   39  164 1    
    82   40   41 2    
    83   40   42 1    
    84   42   43 1    
    85   42   44 1    
    86   42  165 1    
    87   43  166 1    
    88   43  167 1    
    89   43  168 1    
    90   44   45 am   BACKBONE|DICT|INTERRES
    91   44  169 1    
    92   45   46 2    
    93   45   47 1    
    94   47   48 1    
    95   47   49 1    
    96   47  170 1    
    97   48  171 1    
    98   48  172 1    
    99   48  173 1    
   100   49   50 am   BACKBONE|DICT|INTERRES
   101   49  174 1    
   102   50   51 2    
   103   50   52 1    
   104   52   53 1    
   105   52   54 1    
   106   52  175 1    
   107   53  176 1    
   108   53  177 1    
   109   53  178 1    
   110   54   55 am   BACKBONE|DICT|INTERRES
   111   54  179 1    
   112   55   56 2    
   113   55   57 1    
   114   57   58 1    
   115   57   59 1    
   116   57  180 1    
   117   58  181 1    
   118   58  182 1    
   119   58  183 1    
   120   59   60 am   BACKBONE|DICT|INTERRES
   121   59  184 1    
   122   60   61 2    
   123   60   62 1    
   124   62   63 1    
   125   62   64 1    
   126   62  185 1    
   127   63  186 1    
   128   63  187 1    
   129   63  188 1    
   130   64   65 am   BACKBONE|DICT|INTERRES
   131   64  189 1    
   132   65   66 2    
   133   67   68 2    
   134   67   69 am   BACKBONE|DICT|INTERRES
   135   69   70 1    
   136   69  190 1    
   137   70   71 1    
   138   70   72 1    
   139   70  191 1    
   140   71  192 1    
   141   71  193 1    
   142   71  194 1    
   143   72   73 2    
   144   72   74 am   BACKBONE|DICT|INTERRES
   145   74   75 1    
   146   74  195 1    
   147   75   76 1    
   148   75   77 1    
   149   75  196 1    
   150   76  197 1    
   151   76  198 1    
   152   76  199 1    
   153   77   78 2    
   154   77   79 am   BACKBONE|DICT|INTERRES
   155   79   80 1    
   156   79  200 1    
   157   80   81 1    
   158   80   82 1    
   159   80  201 1    
   160   81  202 1    
   161   81  203 1    
   162   81  204 1    
   163   82   83 2    
   164   82   84 am   BACKBONE|DICT|INTERRES
   165   84   85 1    
   166   84  205 1    
   167   85   86 1    
   168   85   87 1    
   169   85  206 1    
   170   86  207 1    
   171   86  208 1    
   172   86  209 1    
   173   87   88 2    
   174   87   89 am   BACKBONE|DICT|INTERRES
   175   89   90 1    
   176   89  210 1    
   177   90   91 1    
   178   90   92 1    
   179   90  211 1    
   180   91  212 1    
   181   91  213 1    
   182   91  214 1    
   183   92   93 2    
   184   92   94 am   BACKBONE|DICT|INTERRES
   185   94   95 1    
   186   94  215 1    
   187   95   96 1    
   188   95   97 1    
   189   95  216 1    
   190   96  217 1    
   191   96  218 1    
   192   96  219 1    
   193   97   98 2    
   194   97   99 am   BACKBONE|DICT|INTERRES
   195   99  100 1    
   196   99  220 1    
   197  100  101 1    
   198  100  102 1    
   199  100  221 1    
   200  101  222 1    
   201  101  223 1    
   202  101  224 1    
   203  102  103 2    
   204  102  104 am   BACKBONE|DICT|INTERRES
   205  104  105 1    
   206  104  225 1    
   207  105  106 1    
   208  105  107 1    
   209  105  226 1    
   210  106  227 1    
   211  106  228 1    
   212  106  229 1    
   213  107  108 2    
   214  107  109 am   BACKBONE|DICT|INTERRES
   215  109  110 1    
   216  109  230 1    
   217  110  111 1    
   218  110  112 1    
   219  110  231 1    
   220  111  232 1    
   221  111  233 1    
   222  111  234 1    
   223  112  113 2    
   224  112  114 am   BACKBONE|DICT|INTERRES
   225  114  115 1    
   226  114  235 1    
   227  115  116 1    
   228  115  117 1    
   229  115  236 1    
   230  116  237 1    
   231  116  238 1    
   232  116  239 1    
   233  117  118 2    
   234  117  119 am   BACKBONE|DICT|INTERRES
   235  119  120 1    
   236  119  240 1    
   237  120  121 1    
   238  120  124 1    
   239  120  241 1    
   240  121  122 am   BACKBONE|DICT|INTERRES
   241  121  123 2    
   242  122  242 1    
   243  122  243 1    
   244  124  125 1    
   245  124  244 1    
   246  124  245 1    
   247  125  126 1    
   248  126  246 1    
   249  126  247 1    
@<TRIPOS>SUBSTRUCTURE
     1 UNK         1 GROUP             0       ****    0 ROOT    
