@<TRIPOS>MOLECULE
3R540
247   249    1
SMALL
USER_CHARGES


@<TRIPOS>ATOM
      1 CA         -4.5117  -17.0930  -43.7725 C.3       0 UNK        -0.1800 
      2 C          -4.2055  -15.6206  -43.9961 C.2       0 UNK         0.5000 
      3 O          -4.8554  -14.7614  -43.4006 O.2       0 UNK        -0.5000 
      4 N          -3.2216  -15.3276  -44.8543 N.am      1 UNK        -0.5000 
      5 CA         -2.7985  -13.9695  -45.2091 C.3       1 UNK         0.1400 
      6 C6         -2.0496  -13.9603  -46.5673 C.3       23 UNK        -0.0398 
      7 S7         -2.5739  -12.5956  -47.6577 S.3       23 UNK        -0.2404 
      8 C8         -4.0223  -13.3251  -48.4960 C.3       23 UNK        -0.0205 
      9 C9         -3.6747  -14.6007  -49.2502 C.ar      23 UNK        -0.0193 
     10 C10        -2.8439  -14.5468  -50.3726 C.ar      23 UNK        -0.1150 
     11 C11        -2.4791  -15.7191  -51.0359 C.ar      23 UNK        -0.0193 
     12 C12        -2.9587  -16.9462  -50.5742 C.ar      23 UNK        -0.1150 
     13 C13        -3.7953  -17.0231  -49.4574 C.ar      23 UNK        -0.0193 
     14 C14        -4.1602  -15.8371  -48.8080 C.ar      23 UNK        -0.1150 
     15 C15        -4.3038  -18.3902  -48.9957 C.3       23 UNK        -0.0205 
     16 S16        -4.4183  -18.5665  -47.1835 S.3       23 UNK        -0.2404 
     17 C17        -4.7356  -20.3543  -46.9759 C.3       23 UNK        -0.0398 
     18 CA         -3.5651  -21.0852  -46.2704 C.3       11 UNK         0.1400 
     19 N          -3.2184  -20.4617  -44.9781 N.am      11 UNK        -0.5000 
     20 C          -2.1929  -20.8074  -44.1865 C.2       10 UNK         0.5000 
     21 O          -1.4659  -21.7762  -44.3975 O.2       10 UNK        -0.5000 
     22 CA         -1.8959  -19.9033  -42.9849 C.3       10 UNK         0.1400 
     23 CB         -1.5474  -20.7087  -41.7218 C.3       10 UNK        -0.1800 
     24 N          -0.7528  -19.1025  -43.3846 N.am      10 UNK        -0.5000 
     25 C          -0.6404  -17.7769  -43.2619 C.2       9 UNK         0.5000 
     26 O          -1.3958  -17.0657  -42.6003 O.2       9 UNK        -0.5000 
     27 CA          0.4669  -17.1275  -44.1101 C.3       9 UNK         0.1400 
     28 CB          1.8196  -17.2343  -43.3950 C.3       9 UNK        -0.1800 
     29 N           0.5589  -17.7223  -45.4460 N.am      9 UNK        -0.5000 
     30 C          -0.4416  -17.7804  -46.3385 C.2       8 UNK         0.5000 
     31 O          -1.5392  -17.2591  -46.1453 O.2       8 UNK        -0.5000 
     32 CA         -0.1913  -18.5475  -47.6483 C.3       8 UNK         0.1400 
     33 CB          0.1041  -17.5659  -48.7886 C.3       8 UNK        -0.1800 
     34 N           0.9311  -19.4798  -47.5375 N.am      8 UNK        -0.5000 
     35 C           0.8324  -20.8129  -47.4633 C.2       7 UNK         0.5000 
     36 O          -0.2342  -21.4236  -47.4798 O.2       7 UNK        -0.5000 
     37 CA          2.1504  -21.6092  -47.3643 C.3       7 UNK         0.1400 
     38 CB          2.6420  -22.0081  -48.7638 C.3       7 UNK        -0.1800 
     39 N           3.2282  -20.8955  -46.6769 N.am      7 UNK        -0.5000 
     40 C           3.2246  -20.5627  -45.3795 C.2       6 UNK         0.5000 
     41 O           2.3108  -20.8393  -44.6025 O.2       6 UNK        -0.5000 
     42 CA          4.4330  -19.7502  -44.8670 C.3       6 UNK         0.1400 
     43 CB          5.5551  -20.6986  -44.4178 C.3       6 UNK        -0.1800 
     44 N           4.9942  -18.7487  -45.7883 N.am      6 UNK        -0.5000 
     45 C           4.3097  -17.8422  -46.4997 C.2       5 UNK         0.5000 
     46 O           3.0868  -17.8639  -46.6418 O.2       5 UNK        -0.5000 
     47 CA          5.1245  -16.7290  -47.1870 C.3       5 UNK         0.1400 
     48 CB          5.6373  -17.2121  -48.5521 C.3       5 UNK        -0.1800 
     49 N           4.3164  -15.5217  -47.3876 N.am      5 UNK        -0.5000 
     50 C           3.7825  -14.7842  -46.4031 C.2       4 UNK         0.5000 
     51 O           4.0605  -14.9411  -45.2117 O.2       4 UNK        -0.5000 
     52 CA          2.7511  -13.7197  -46.8372 C.3       4 UNK         0.1400 
     53 CB          1.5911  -14.3523  -47.6272 C.3       4 UNK        -0.1800 
     54 N           2.1865  -12.9865  -45.7021 N.am      4 UNK        -0.5000 
     55 C           2.8077  -12.0101  -45.0290 C.2       3 UNK         0.5000 
     56 O           3.9269  -11.5864  -45.3229 O.2       3 UNK        -0.5000 
     57 CA          2.0485  -11.3716  -43.8485 C.3       3 UNK         0.1400 
     58 CB          1.5746   -9.9579  -44.2221 C.3       3 UNK        -0.1800 
     59 N           0.8846  -12.1417  -43.4019 N.am      3 UNK        -0.5000 
     60 C           0.9121  -13.1665  -42.5428 C.2       2 UNK         0.5000 
     61 O           1.9511  -13.6378  -42.0817 O.2       2 UNK        -0.5000 
     62 CA         -0.4446  -13.7640  -42.1108 C.3       2 UNK         0.1400 
     63 CB         -1.1376  -12.8694  -41.0661 C.3       2 UNK        -0.1800 
     64 N          -1.3575  -14.1019  -43.2118 N.am      2 UNK        -0.5000 
     65 C          -1.9492  -13.2962  -44.1081 C.2       1 UNK         0.5000 
     66 O          -1.8188  -12.0715  -44.1159 O.2       1 UNK        -0.5000 
     67 C          -3.8430  -22.6054  -46.1843 C.2       11 UNK         0.5000 
     68 O          -3.7160  -23.3123  -47.1863 O.2       11 UNK        -0.5000 
     69 N          -4.1724  -23.0954  -44.9807 N.am      12 UNK        -0.5000 
     70 CA         -4.2844  -24.5127  -44.6375 C.3       12 UNK         0.1400 
     71 CB         -4.8033  -24.6368  -43.1977 C.3       12 UNK        -0.1800 
     72 C          -2.9673  -25.2999  -44.8047 C.2       12 UNK         0.5000 
     73 O          -3.0249  -26.5043  -45.0502 O.2       12 UNK        -0.5000 
     74 N          -1.8100  -24.6232  -44.7263 N.am      13 UNK        -0.5000 
     75 CA         -0.4889  -25.2084  -44.9805 C.3       13 UNK         0.1400 
     76 CB          0.6040  -24.2305  -44.5246 C.3       13 UNK        -0.1800 
     77 C          -0.2812  -25.6075  -46.4555 C.2       13 UNK         0.5000 
     78 O           0.4778  -26.5374  -46.7287 O.2       13 UNK        -0.5000 
     79 N          -0.9912  -24.9334  -47.3704 N.am      14 UNK        -0.5000 
     80 CA         -1.0762  -25.2731  -48.7915 C.3       14 UNK         0.1400 
     81 CB         -1.1652  -23.9710  -49.6023 C.3       14 UNK        -0.1800 
     82 C          -2.2761  -26.1930  -49.1008 C.2       14 UNK         0.5000 
     83 O          -2.5708  -26.4147  -50.2744 O.2       14 UNK        -0.5000 
     84 N          -2.9647  -26.6884  -48.0602 N.am      15 UNK        -0.5000 
     85 CA         -4.1910  -27.4913  -48.1058 C.3       15 UNK         0.1400 
     86 CB         -3.9449  -28.8525  -48.7908 C.3       15 UNK        -0.1800 
     87 C          -5.3903  -26.7167  -48.6924 C.2       15 UNK         0.5000 
     88 O          -6.2271  -27.3079  -49.3768 O.2       15 UNK        -0.5000 
     89 N          -5.4524  -25.4073  -48.3973 N.am      16 UNK        -0.5000 
     90 CA         -6.4830  -24.4538  -48.8201 C.3       16 UNK         0.1400 
     91 CB         -7.8540  -24.8059  -48.2061 C.3       16 UNK        -0.1800 
     92 C          -6.5209  -24.2662  -50.3506 C.2       16 UNK         0.5000 
     93 O          -7.5926  -24.2754  -50.9581 O.2       16 UNK        -0.5000 
     94 N          -5.3328  -24.0801  -50.9430 N.am      17 UNK        -0.5000 
     95 CA         -5.1252  -23.8538  -52.3781 C.3       17 UNK         0.1400 
     96 CB         -3.6370  -24.0667  -52.6989 C.3       17 UNK        -0.1800 
     97 C          -5.5833  -22.4660  -52.8774 C.2       17 UNK         0.5000 
     98 O          -5.5784  -22.2343  -54.0873 O.2       17 UNK        -0.5000 
     99 N          -5.9452  -21.5667  -51.9499 N.am      18 UNK        -0.5000 
    100 CA        -6.3062  -20.1648  -52.1717 C.3       18 UNK         0.1400 
    101 CB        -7.6122  -20.0456  -52.9898 C.3       18 UNK        -0.1800 
    102 C         -5.1113  -19.3820  -52.7509 C.2       18 UNK         0.5000 
    103 O         -3.9904  -19.5792  -52.2798 O.2       18 UNK        -0.5000 
    104 N         -5.3479  -18.5307  -53.7585 N.am      19 UNK        -0.5000 
    105 CA        -4.3548  -17.6557  -54.3929 C.3       19 UNK         0.1400 
    106 CB        -5.0518  -16.8106  -55.4693 C.3       19 UNK        -0.1800 
    107 C         -3.1270  -18.3780  -54.9882 C.2       19 UNK         0.5000 
    108 O         -2.0717  -17.7586  -55.1271 O.2       19 UNK        -0.5000 
    109 N         -3.2643  -19.6753  -55.2958 N.am      20 UNK        -0.5000 
    110 CA        -2.1768  -20.5375  -55.7574 C.3       20 UNK         0.1400 
    111 CB        -2.7649  -21.8526  -56.2878 C.3       20 UNK        -0.1800 
    112 C         -1.1033  -20.8114  -54.6834 C.2       20 UNK         0.5000 
    113 O          0.0248  -21.1477  -55.0466 O.2       20 UNK        -0.5000 
    114 N         -1.4359  -20.6341  -53.3932 N.am      21 UNK        -0.5000 
    115 CA        -0.5114  -20.8150  -52.2674 C.3       21 UNK         0.1400 
    116 CB        -1.2871  -20.7401  -50.9453 C.3       21 UNK        -0.1800 
    117 C          0.6627  -19.8138  -52.2587 C.2       21 UNK         0.5000 
    118 O          1.7092  -20.1224  -51.6891 O.2       21 UNK        -0.5000 
    119 N          0.4838  -18.6563  -52.9100 N.am      22 UNK        -0.5000 
    120 CA         1.5464  -17.6685  -53.1617 C.3       22 UNK         0.1400 
    121 C          2.4646  -18.0261  -54.3705 C.2       22 UNK         0.5000 
    122 N          2.2219  -19.0980  -55.1177 N.am      22 UNK        -0.7600 
    123 O          3.4336  -17.3189  -54.6325 O.2       22 UNK        -0.5000 
    124 C124        0.9841  -16.2281  -53.2934 C.3       23 UNK        -0.0398 
    125 S125        0.1842  -15.6495  -51.7584 S.3       23 UNK        -0.2404 
    126 C126       -1.5648  -15.6718  -52.2476 C.3       23 UNK        -0.0205 
    127 H127       -3.8112  -17.7238  -44.3174 H         1 UNK         0.0600 
    128 H128       -5.5204  -17.3257  -44.1135 H         1 UNK         0.0600 
    129 H129       -4.4381  -17.3357  -42.7125 H         1 UNK         0.0600 
    130 H130       -2.7185  -16.0824  -45.3197 H         1 UNK         0.3000 
    131 H131       -3.7080  -13.3725  -45.3064 H         1 UNK         0.0600 
    132 H132       -0.9708  -13.8893  -46.4310 H         1 UNK         0.0800 
    133 H133       -2.1867  -14.8999  -47.0998 H         1 UNK         0.0800 
    134 H134       -4.4315  -12.5956  -49.1960 H         1 UNK         0.0800 
    135 H135       -4.8032  -13.5130  -47.7575 H         1 UNK         0.0800 
    136 H136       -2.4627  -13.5947  -50.7142 H         1 UNK         0.1150 
    137 H137       -2.6695  -17.8447  -51.0931 H         1 UNK         0.1150 
    138 H138       -4.8059  -15.8758  -47.9425 H         1 UNK         0.1150 
    139 H139       -3.6508  -19.1764  -49.3779 H         1 UNK         0.0800 
    140 H140       -5.2886  -18.5598  -49.4302 H         1 UNK         0.0800 
    141 H141       -4.9308  -20.7985  -47.9538 H         1 UNK         0.0800 
    142 H142       -5.6568  -20.4673  -46.4016 H         1 UNK         0.0800 
    143 H143       -2.6885  -20.9771  -46.9095 H         1 UNK         0.0600 
    144 H144       -3.7468  -19.6319  -44.7537 H         1 UNK         0.3000 
    145 H145       -2.7649  -19.2772  -42.7773 H         1 UNK         0.0600 
    146 H146       -1.3446  -20.0461  -40.8804 H         1 UNK         0.0600 
    147 H147       -2.3738  -21.3595  -41.4343 H         1 UNK         0.0600 
    148 H148       -0.6679  -21.3370  -41.8694 H         1 UNK         0.0600 
    149 H149       -0.0851  -19.5853  -43.9736 H         1 UNK         0.3000 
    150 H150        0.2315  -16.0714  -44.2434 H         1 UNK         0.0600 
    151 H151        2.0820  -18.2715  -43.1866 H         1 UNK         0.0600 
    152 H152        1.7978  -16.7035  -42.4424 H         1 UNK         0.0600 
    153 H153        2.6198  -16.7971  -43.9902 H         1 UNK         0.0600 
    154 H154        1.4703  -18.0688  -45.7288 H         1 UNK         0.3000 
    155 H155       -1.1133  -19.0809  -47.8892 H         1 UNK         0.0600 
    156 H156        1.0779  -17.0916  -48.6690 H         1 UNK         0.0600 
    157 H157       -0.6451  -16.7745  -48.8349 H         1 UNK         0.0600 
    158 H158        0.0998  -18.0745  -49.7522 H         1 UNK         0.0600 
    159 H159        1.8501  -19.0547  -47.4571 H         1 UNK         0.3000 
    160 H160        1.9423  -22.5236  -46.8068 H         1 UNK         0.0600 
    161 H161        2.9076  -21.1336  -49.3592 H         1 UNK         0.0600 
    162 H162        1.8745  -22.5534  -49.3125 H         1 UNK         0.0600 
    163 H163        3.5179  -22.6544  -48.7058 H         1 UNK         0.0600 
    164 H164        4.0136  -20.6060  -47.2407 H         1 UNK         0.3000 
    165 H165        4.0944  -19.2024  -43.9867 H         1 UNK         0.0600 
    166 H166        6.3561  -20.1551  -43.9163 H         1 UNK         0.0600 
    167 H167        5.9896  -21.2345  -45.2626 H         1 UNK         0.0600 
    168 H168        5.1814  -21.4434  -43.7136 H         1 UNK         0.0600 
    169 H169        6.0005  -18.6660  -45.7689 H         1 UNK         0.3000 
    170 H170        5.9756  -16.4721  -46.5532 H         1 UNK         0.0600 
    171 H171        6.2714  -18.0930  -48.4444 H         1 UNK         0.0600 
    172 H172        4.8159  -17.4789  -49.2190 H         1 UNK         0.0600 
    173 H173        6.2335  -16.4436  -49.0445 H         1 UNK         0.0600 
    174 H174        4.0237  -15.3424  -48.3362 H         1 UNK         0.3000 
    175 H175        3.2635  -13.0097  -47.4897 H         1 UNK         0.0600 
    176 H176        1.0752  -15.1131  -47.0405 H         1 UNK         0.0600 
    177 H177        0.8614  -13.6000  -47.9270 H         1 UNK         0.0600 
    178 H178        1.9420  -14.8260  -48.5442 H         1 UNK         0.0600 
    179 H179        1.2894  -13.2922  -45.3609 H         1 UNK         0.3000 
    180 H180        2.7532  -11.2845  -43.0188 H         1 UNK         0.0600 
    181 H181        0.8572   -9.9794  -45.0436 H         1 UNK         0.0600 
    182 H182        2.4118   -9.3312  -44.5323 H         1 UNK         0.0600 
    183 H183        1.0987   -9.4649  -43.3742 H         1 UNK         0.0600 
    184 H184       -0.0284  -11.8357  -43.7317 H         1 UNK         0.3000 
    185 H185       -0.2201  -14.7128  -41.6208 H         1 UNK         0.0600 
    186 H186       -2.0541  -13.3319  -40.6996 H         1 UNK         0.0600 
    187 H187       -0.4894  -12.7050  -40.2044 H         1 UNK         0.0600 
    188 H188       -1.3951  -11.8901  -41.4700 H         1 UNK         0.0600 
    189 H189       -1.5759  -15.0907  -43.2741 H         1 UNK         0.3000 
    190 H190       -4.2508  -22.4431  -44.2149 H         1 UNK         0.3000 
    191 H191       -5.0212  -24.9605  -45.3077 H         1 UNK         0.0600 
    192 H192       -4.9261  -25.6833  -42.9151 H         1 UNK         0.0600 
    193 H193       -5.7751  -24.1556  -43.0852 H         1 UNK         0.0600 
    194 H194       -4.1169  -24.1817  -42.4824 H         1 UNK         0.0600 
    195 H195       -1.8240  -23.6210  -44.5489 H         1 UNK         0.3000 
    196 H196       -0.4019  -26.1160  -44.3796 H         1 UNK         0.0600 
    197 H197        0.5648  -23.2967  -45.0851 H         1 UNK         0.0600 
    198 H198        0.5004  -23.9867  -43.4672 H         1 UNK         0.0600 
    199 H199        1.5977  -24.6568  -44.6662 H         1 UNK         0.0600 
    200 H200       -1.5935  -24.1808  -47.0610 H         1 UNK         0.3000 
    201 H201       -0.1733  -25.8025  -49.1018 H         1 UNK         0.0600 
    202 H202       -2.0668  -23.4067  -49.3627 H         1 UNK         0.0600 
    203 H203       -1.1721  -24.1697  -50.6744 H         1 UNK         0.0600 
    204 H204       -0.3089  -23.3303  -49.4029 H         1 UNK         0.0600 
    205 H205       -2.6411  -26.4653  -47.1269 H         1 UNK         0.3000 
    206 H206       -4.4535  -27.6981  -47.0677 H         1 UNK         0.0600 
    207 H207       -3.0902  -29.3662  -48.3509 H         1 UNK         0.0600 
    208 H208       -4.8092  -29.5077  -48.6768 H         1 UNK         0.0600 
    209 H209       -3.7589  -28.7443  -49.8596 H         1 UNK         0.0600 
    210 H210       -4.6895  -24.9964  -47.8700 H         1 UNK         0.3000 
    211 H211       -6.1887  -23.4874  -48.4087 H         1 UNK         0.0600 
    212 H212       -8.5856  -24.0242  -48.4137 H         1 UNK         0.0600 
    213 H213       -7.7858  -24.9057  -47.1228 H         1 UNK         0.0600 
    214 H214       -8.2534  -25.7387  -48.6049 H         1 UNK         0.0600 
    215 H215       -4.5011  -24.1235  -50.3724 H         1 UNK         0.3000 
    216 H216       -5.7027  -24.6005  -52.9267 H         1 UNK         0.0600 
    217 H217       -3.0059  -23.3393  -52.1882 H         1 UNK         0.0600 
    218 H218       -3.4472  -23.9720  -53.7678 H         1 UNK         0.0600 
    219 H219       -3.3090  -25.0639  -52.4085 H         1 UNK         0.0600 
    220 H220       -5.8731  -21.8509  -50.9853 H         1 UNK         0.3000 
    221 H221       -6.4979  -19.7396  -51.1863 H         1 UNK         0.0600 
    222 H222       -8.4046  -20.6473  -52.5442 H         1 UNK         0.0600 
    223 H223       -7.4876  -20.3787  -54.0206 H         1 UNK         0.0600 
    224 H224       -7.9715  -19.0162  -53.0129 H         1 UNK         0.0600 
    225 H225       -6.2940  -18.4512  -54.1015 H         1 UNK         0.3000 
    226 H226       -3.9862  -16.9798  -53.6197 H         1 UNK         0.0600 
    227 H227       -5.4796  -17.4348  -56.2548 H         1 UNK         0.0600 
    228 H228       -5.8542  -16.2091  -55.0418 H         1 UNK         0.0600 
    229 H229       -4.3498  -16.1223  -55.9422 H         1 UNK         0.0600 
    230 H230       -4.1558  -20.1201  -55.1255 H         1 UNK         0.3000 
    231 H231       -1.6790  -20.0328  -56.5880 H         1 UNK         0.0600 
    232 H232       -3.2960  -22.3971  -55.5084 H         1 UNK         0.0600 
    233 H233       -1.9803  -22.5073  -56.6695 H         1 UNK         0.0600 
    234 H234       -3.4630  -21.6718  -57.1052 H         1 UNK         0.0600 
    235 H235       -2.3755  -20.3267  -53.1585 H         1 UNK         0.3000 
    236 H236       -0.0863  -21.8174  -52.3506 H         1 UNK         0.0600 
    237 H237       -2.1371  -21.4214  -50.9361 H         1 UNK         0.0600 
    238 H238       -0.6437  -21.0047  -50.1075 H         1 UNK         0.0600 
    239 H239       -1.6605  -19.7372  -50.7545 H         1 UNK         0.0600 
    240 H240       -0.3980  -18.4919  -53.3742 H         1 UNK         0.3000 
    241 H241        2.2100  -17.6680  -52.2947 H         1 UNK         0.0600 
    242 H242        2.8374  -19.3055  -55.8881 H         1 UNK         0.3800 
    243 H243        1.4440  -19.7186  -54.9251 H         1 UNK         0.3800 
    244 H244        0.2887  -16.1621  -54.1320 H         1 UNK         0.0800 
    245 H245        1.7869  -15.5223  -53.5133 H         1 UNK         0.0800 
    246 H246       -1.7471  -16.5450  -52.8708 H         1 UNK         0.0800 
    247 H247       -1.7875  -14.7973  -52.8606 H         1 UNK         0.0800 
@<TRIPOS>BOND
     1    1    2 1    
     2    1  127 1    
     3    1  128 1    
     4    1  129 1    
     5    2    3 2    
     6    2    4 am   BACKBONE|DICT|INTERRES
     7    4    5 1    
     8    4  130 1    
     9    5    6 1    
    10    5   65 1    
    11    5  131 1    
    12    6    7 1    
    13    6  132 1    
    14    6  133 1    
    15    7    8 1    
    16    8    9 1    
    17    8  134 1    
    18    8  135 1    
    19    9   10 ar   
    20    9   14 ar   
    21   10   11 ar   
    22   10  136 1    
    23   11   12 ar   
    24   11  126 1    
    25   12   13 ar   
    26   12  137 1    
    27   13   14 ar   
    28   13   15 1    
    29   14  138 1    
    30   15   16 1    
    31   15  139 1    
    32   15  140 1    
    33   16   17 1    
    34   17   18 1    
    35   17  141 1    
    36   17  142 1    
    37   18   19 1    
    38   18   67 1    
    39   18  143 1    
    40   19   20 am   BACKBONE|DICT|INTERRES
    41   19  144 1    
    42   20   21 2    
    43   20   22 1    
    44   22   23 1    
    45   22   24 1    
    46   22  145 1    
    47   23  146 1    
    48   23  147 1    
    49   23  148 1    
    50   24   25 am   BACKBONE|DICT|INTERRES
    51   24  149 1    
    52   25   26 2    
    53   25   27 1    
    54   27   28 1    
    55   27   29 1    
    56   27  150 1    
    57   28  151 1    
    58   28  152 1    
    59   28  153 1    
    60   29   30 am   BACKBONE|DICT|INTERRES
    61   29  154 1    
    62   30   31 2    
    63   30   32 1    
    64   32   33 1    
    65   32   34 1    
    66   32  155 1    
    67   33  156 1    
    68   33  157 1    
    69   33  158 1    
    70   34   35 am   BACKBONE|DICT|INTERRES
    71   34  159 1    
    72   35   36 2    
    73   35   37 1    
    74   37   38 1    
    75   37   39 1    
    76   37  160 1    
    77   38  161 1    
    78   38  162 1    
    79   38  163 1    
    80   39   40 am   BACKBONE|DICT|INTERRES
    81   39  164 1    
    82   40   41 2    
    83   40   42 1    
    84   42   43 1    
    85   42   44 1    
    86   42  165 1    
    87   43  166 1    
    88   43  167 1    
    89   43  168 1    
    90   44   45 am   BACKBONE|DICT|INTERRES
    91   44  169 1    
    92   45   46 2    
    93   45   47 1    
    94   47   48 1    
    95   47   49 1    
    96   47  170 1    
    97   48  171 1    
    98   48  172 1    
    99   48  173 1    
   100   49   50 am   BACKBONE|DICT|INTERRES
   101   49  174 1    
   102   50   51 2    
   103   50   52 1    
   104   52   53 1    
   105   52   54 1    
   106   52  175 1    
   107   53  176 1    
   108   53  177 1    
   109   53  178 1    
   110   54   55 am   BACKBONE|DICT|INTERRES
   111   54  179 1    
   112   55   56 2    
   113   55   57 1    
   114   57   58 1    
   115   57   59 1    
   116   57  180 1    
   117   58  181 1    
   118   58  182 1    
   119   58  183 1    
   120   59   60 am   BACKBONE|DICT|INTERRES
   121   59  184 1    
   122   60   61 2    
   123   60   62 1    
   124   62   63 1    
   125   62   64 1    
   126   62  185 1    
   127   63  186 1    
   128   63  187 1    
   129   63  188 1    
   130   64   65 am   BACKBONE|DICT|INTERRES
   131   64  189 1    
   132   65   66 2    
   133   67   68 2    
   134   67   69 am   BACKBONE|DICT|INTERRES
   135   69   70 1    
   136   69  190 1    
   137   70   71 1    
   138   70   72 1    
   139   70  191 1    
   140   71  192 1    
   141   71  193 1    
   142   71  194 1    
   143   72   73 2    
   144   72   74 am   BACKBONE|DICT|INTERRES
   145   74   75 1    
   146   74  195 1    
   147   75   76 1    
   148   75   77 1    
   149   75  196 1    
   150   76  197 1    
   151   76  198 1    
   152   76  199 1    
   153   77   78 2    
   154   77   79 am   BACKBONE|DICT|INTERRES
   155   79   80 1    
   156   79  200 1    
   157   80   81 1    
   158   80   82 1    
   159   80  201 1    
   160   81  202 1    
   161   81  203 1    
   162   81  204 1    
   163   82   83 2    
   164   82   84 am   BACKBONE|DICT|INTERRES
   165   84   85 1    
   166   84  205 1    
   167   85   86 1    
   168   85   87 1    
   169   85  206 1    
   170   86  207 1    
   171   86  208 1    
   172   86  209 1    
   173   87   88 2    
   174   87   89 am   BACKBONE|DICT|INTERRES
   175   89   90 1    
   176   89  210 1    
   177   90   91 1    
   178   90   92 1    
   179   90  211 1    
   180   91  212 1    
   181   91  213 1    
   182   91  214 1    
   183   92   93 2    
   184   92   94 am   BACKBONE|DICT|INTERRES
   185   94   95 1    
   186   94  215 1    
   187   95   96 1    
   188   95   97 1    
   189   95  216 1    
   190   96  217 1    
   191   96  218 1    
   192   96  219 1    
   193   97   98 2    
   194   97   99 am   BACKBONE|DICT|INTERRES
   195   99  100 1    
   196   99  220 1    
   197  100  101 1    
   198  100  102 1    
   199  100  221 1    
   200  101  222 1    
   201  101  223 1    
   202  101  224 1    
   203  102  103 2    
   204  102  104 am   BACKBONE|DICT|INTERRES
   205  104  105 1    
   206  104  225 1    
   207  105  106 1    
   208  105  107 1    
   209  105  226 1    
   210  106  227 1    
   211  106  228 1    
   212  106  229 1    
   213  107  108 2    
   214  107  109 am   BACKBONE|DICT|INTERRES
   215  109  110 1    
   216  109  230 1    
   217  110  111 1    
   218  110  112 1    
   219  110  231 1    
   220  111  232 1    
   221  111  233 1    
   222  111  234 1    
   223  112  113 2    
   224  112  114 am   BACKBONE|DICT|INTERRES
   225  114  115 1    
   226  114  235 1    
   227  115  116 1    
   228  115  117 1    
   229  115  236 1    
   230  116  237 1    
   231  116  238 1    
   232  116  239 1    
   233  117  118 2    
   234  117  119 am   BACKBONE|DICT|INTERRES
   235  119  120 1    
   236  119  240 1    
   237  120  121 1    
   238  120  124 1    
   239  120  241 1    
   240  121  122 am   BACKBONE|DICT|INTERRES
   241  121  123 2    
   242  122  242 1    
   243  122  243 1    
   244  124  125 1    
   245  124  244 1    
   246  124  245 1    
   247  125  126 1    
   248  126  246 1    
   249  126  247 1    
@<TRIPOS>SUBSTRUCTURE
     1 UNK         1 GROUP             0       ****    0 ROOT    
