@<TRIPOS>MOLECULE
3R540
247   249    1
SMALL
USER_CHARGES


@<TRIPOS>ATOM
      1 CA          6.1396  -10.5636  -48.3086 C.3       0 UNK        -0.1800 
      2 C           5.2855  -11.8032  -48.5345 C.2       0 UNK         0.5000 
      3 O           5.8200  -12.9089  -48.6192 O.2       0 UNK        -0.5000 
      4 N           3.9644  -11.6243  -48.6316 N.am      1 UNK        -0.5000 
      5 CA          2.9848  -12.6926  -48.8302 C.3       1 UNK         0.1400 
      6 C6          2.8801  -13.1420  -50.3127 C.3       23 UNK        -0.0398 
      7 S7          2.1786  -14.8201  -50.4833 S.3       23 UNK        -0.2404 
      8 C8          3.6022  -15.7400  -51.1424 C.3       23 UNK        -0.0205 
      9 C9          3.2255  -17.1794  -51.4560 C.ar      23 UNK        -0.0193 
     10 C10         2.5157  -17.4774  -52.6220 C.ar      23 UNK        -0.1150 
     11 C11         2.1536  -18.7942  -52.9207 C.ar      23 UNK        -0.0193 
     12 C12         2.5168  -19.8213  -52.0433 C.ar      23 UNK        -0.1150 
     13 C13         3.2467  -19.5395  -50.8826 C.ar      23 UNK        -0.0193 
     14 C14         3.5946  -18.2154  -50.5941 C.ar      23 UNK        -0.1150 
     15 C15         3.6996  -20.6691  -49.9649 C.3       23 UNK        -0.0205 
     16 S16         3.1036  -20.4775  -48.2545 S.3       23 UNK        -0.2404 
     17 C17         1.3183  -20.7851  -48.4515 C.3       23 UNK        -0.0398 
     18 CA          0.8922  -22.1840  -47.9486 C.3       11 UNK         0.1400 
     19 N           1.1962  -22.3915  -46.5345 N.am      11 UNK        -0.5000 
     20 C           1.2101  -23.5809  -45.9194 C.2       10 UNK         0.5000 
     21 O           1.0693  -24.6516  -46.5138 O.2       10 UNK        -0.5000 
     22 CA          1.3873  -23.5641  -44.3872 C.3       10 UNK         0.1400 
     23 CB          1.8411  -24.9203  -43.8080 C.3       10 UNK        -0.1800 
     24 N           2.2456  -22.4729  -43.9209 N.am      10 UNK        -0.5000 
     25 C           3.5527  -22.2907  -44.1618 C.2       9 UNK         0.5000 
     26 O           4.2479  -23.0794  -44.8035 O.2       9 UNK        -0.5000 
     27 CA          4.2040  -21.0097  -43.5959 C.3       9 UNK         0.1400 
     28 CB          4.6519  -20.0824  -44.7367 C.3       9 UNK        -0.1800 
     29 N           3.3303  -20.2547  -42.6945 N.am      9 UNK        -0.5000 
     30 C           3.0304  -20.5994  -41.4353 C.2       8 UNK         0.5000 
     31 O           3.5257  -21.5659  -40.8549 O.2       8 UNK        -0.5000 
     32 CA          1.9639  -19.7462  -40.7208 C.3       8 UNK         0.1400 
     33 CB          2.6079  -18.5277  -40.0428 C.3       8 UNK        -0.1800 
     34 N           0.8878  -19.3030  -41.6137 N.am      8 UNK        -0.5000 
     35 C           0.0175  -20.1228  -42.2228 C.2       7 UNK         0.5000 
     36 O           0.0127  -21.3443  -42.0728 O.2       7 UNK        -0.5000 
     37 CA         -0.9828  -19.4846  -43.2041 C.3       7 UNK         0.1400 
     38 CB         -2.1686  -18.8629  -42.4528 C.3       7 UNK        -0.1800 
     39 N          -0.3602  -18.4853  -44.0727 N.am      7 UNK        -0.5000 
     40 C           0.5885  -18.7643  -44.9786 C.2       6 UNK         0.5000 
     41 O           1.0020  -19.9017  -45.1988 O.2       6 UNK        -0.5000 
     42 CA          1.2194  -17.5747  -45.7250 C.3       6 UNK         0.1400 
     43 CB          0.3150  -17.0790  -46.8634 C.3       6 UNK        -0.1800 
     44 N           1.5230  -16.4570  -44.8347 N.am      6 UNK        -0.5000 
     45 C           2.3783  -16.5005  -43.8051 C.2       5 UNK         0.5000 
     46 O           3.0542  -17.4857  -43.5145 O.2       5 UNK        -0.5000 
     47 CA          2.4469  -15.2461  -42.9194 C.3       5 UNK         0.1400 
     48 CB          3.3137  -14.1565  -43.5697 C.3       5 UNK        -0.1800 
     49 N           1.1155  -14.7136  -42.6279 N.am      5 UNK        -0.5000 
     50 C           0.2079  -15.3268  -41.8547 C.2       4 UNK         0.5000 
     51 O           0.4065  -16.3992  -41.2845 O.2       4 UNK        -0.5000 
     52 CA         -1.1649  -14.6421  -41.7264 C.3       4 UNK         0.1400 
     53 CB         -1.1216  -13.5336  -40.6642 C.3       4 UNK        -0.1800 
     54 N          -1.6350  -14.0827  -42.9944 N.am      4 UNK        -0.5000 
     55 C          -1.9788  -14.8194  -44.0600 C.2       3 UNK         0.5000 
     56 O          -1.9564  -16.0489  -44.0773 O.2       3 UNK        -0.5000 
     57 CA         -2.3586  -14.0498  -45.3384 C.3       3 UNK         0.1400 
     58 CB         -3.8331  -13.6229  -45.2960 C.3       3 UNK        -0.1800 
     59 N          -1.5138  -12.8771  -45.5930 N.am      3 UNK        -0.5000 
     60 C          -0.1862  -12.9272  -45.7623 C.2       2 UNK         0.5000 
     61 O           0.4779  -13.9583  -45.6396 O.2       2 UNK        -0.5000 
     62 CA          0.5328  -11.6057  -46.0859 C.3       2 UNK         0.1400 
     63 CB          0.9797  -10.9104  -44.7907 C.3       2 UNK        -0.1800 
     64 N           1.7080  -11.8567  -46.9213 N.am      2 UNK        -0.5000 
     65 C           1.6489  -12.2537  -48.2002 C.2       1 UNK         0.5000 
     66 O           0.6094  -12.2477  -48.8623 O.2       1 UNK        -0.5000 
     67 C          -0.6195  -22.3745  -48.1443 C.2       11 UNK         0.5000 
     68 O          -1.4010  -21.6444  -47.5274 O.2       11 UNK        -0.5000 
     69 N          -1.0078  -23.3383  -48.9914 N.am      12 UNK        -0.5000 
     70 CA         -2.3966  -23.7558  -49.2171 C.3       12 UNK         0.1400 
     71 CB         -2.4279  -24.8947  -50.2456 C.3       12 UNK        -0.1800 
     72 C          -3.3417  -22.6171  -49.6406 C.2       12 UNK         0.5000 
     73 O          -4.5086  -22.6373  -49.2575 O.2       12 UNK        -0.5000 
     74 N          -2.7992  -21.6170  -50.3499 N.am      13 UNK        -0.5000 
     75 CA         -3.4845  -20.3897  -50.7663 C.3       13 UNK         0.1400 
     76 CB         -2.5130  -19.5482  -51.6078 C.3       13 UNK        -0.1800 
     77 C          -4.0723  -19.5467  -49.6137 C.2       13 UNK         0.5000 
     78 O          -4.9708  -18.7401  -49.8571 O.2       13 UNK        -0.5000 
     79 N          -3.5658  -19.7454  -48.3900 N.am      14 UNK        -0.5000 
     80 CA         -4.1248  -19.1938  -47.1604 C.3       14 UNK         0.1400 
     81 CB         -3.0632  -18.3339  -46.4618 C.3       14 UNK        -0.1800 
     82 C          -4.6072  -20.3228  -46.2374 C.2       14 UNK         0.5000 
     83 O          -5.7206  -20.2443  -45.7184 O.2       14 UNK        -0.5000 
     84 N          -3.7738  -21.3573  -46.0523 N.am      15 UNK        -0.5000 
     85 CA         -3.9818  -22.4370  -45.0859 C.3       15 UNK         0.1400 
     86 CB         -2.6890  -23.2588  -44.9647 C.3       15 UNK        -0.1800 
     87 C          -5.1846  -23.3528  -45.3854 C.2       15 UNK         0.5000 
     88 O          -5.7704  -23.8859  -44.4424 O.2       15 UNK        -0.5000 
     89 N          -5.5421  -23.5165  -46.6671 N.am      16 UNK        -0.5000 
     90 CA         -6.6882  -24.3181  -47.1087 C.3       16 UNK         0.1400 
     91 CB         -6.2625  -25.2061  -48.2923 C.3       16 UNK        -0.1800 
     92 C          -7.9014  -23.4433  -47.4819 C.2       16 UNK         0.5000 
     93 O          -8.8967  -23.9830  -47.9666 O.2       16 UNK        -0.5000 
     94 N          -7.8023  -22.1196  -47.2787 N.am      17 UNK        -0.5000 
     95 CA         -8.7811  -21.0548  -47.5532 C.3       17 UNK         0.1400 
     96 CB        -10.0768  -21.2648  -46.7469 C.3       17 UNK        -0.1800 
     97 C          -9.0893  -20.8066  -49.0464 C.2       17 UNK         0.5000 
     98 O          -9.2838  -19.6538  -49.4351 O.2       17 UNK        -0.5000 
     99 N          -9.1200  -21.8702  -49.8568 N.am      18 UNK        -0.5000 
    100 CA        -9.1963  -21.8382  -51.3170 C.3       18 UNK         0.1400 
    101 CB        -9.4691  -23.2665  -51.8164 C.3       18 UNK        -0.1800 
    102 C         -7.9011  -21.2880  -51.9466 C.2       18 UNK         0.5000 
    103 O         -6.8639  -21.2535  -51.2837 O.2       18 UNK        -0.5000 
    104 N         -7.9785  -20.8965  -53.2274 N.am      19 UNK        -0.5000 
    105 CA        -6.8561  -20.3616  -54.0086 C.3       19 UNK         0.1400 
    106 CB        -7.3531  -19.9478  -55.4020 C.3       19 UNK        -0.1800 
    107 C         -5.6696  -21.3378  -54.1182 C.2       19 UNK         0.5000 
    108 O         -4.5289  -20.9185  -53.9358 O.2       19 UNK        -0.5000 
    109 N         -5.9786  -22.6222  -54.3564 N.am      20 UNK        -0.5000 
    110 CA        -5.0949  -23.7908  -54.2858 C.3       20 UNK         0.1400 
    111 CB        -4.9523  -24.2274  -52.8131 C.3       20 UNK        -0.1800 
    112 C         -3.7351  -23.6073  -54.9970 C.2       20 UNK         0.5000 
    113 O         -3.6476  -23.8358  -56.2042 O.2       20 UNK        -0.5000 
    114 N         -2.7074  -23.2084  -54.2341 N.am      21 UNK        -0.5000 
    115 CA        -1.3418  -22.9730  -54.6994 C.3       21 UNK         0.1400 
    116 CB        -0.4154  -22.8297  -53.4798 C.3       21 UNK        -0.1800 
    117 C         -1.1909  -21.7536  -55.6302 C.2       21 UNK         0.5000 
    118 O         -0.2985  -21.7672  -56.4794 O.2       21 UNK        -0.5000 
    119 N         -2.0362  -20.7285  -55.4649 N.am      22 UNK        -0.5000 
    120 CA        -1.9914  -19.4830  -56.2412 C.3       22 UNK         0.1400 
    121 C         -3.2886  -18.6550  -56.0477 C.2       22 UNK         0.5000 
    122 N         -4.0796  -18.4718  -57.0971 N.am      22 UNK        -0.7600 
    123 O         -3.5702  -18.1402  -54.9696 O.2       22 UNK        -0.5000 
    124 C124       -0.7044  -18.6359  -56.0094 C.3       23 UNK        -0.0398 
    125 S125       -0.2419  -18.3502  -54.2605 S.3       23 UNK        -0.2404 
    126 C126        1.4158  -19.1025  -54.2162 C.3       23 UNK        -0.0205 
    127 H127        5.5347   -9.6579  -48.2555 H         1 UNK         0.0600 
    128 H128        6.8547  -10.4473  -49.1231 H         1 UNK         0.0600 
    129 H129        6.6958  -10.6561  -47.3757 H         1 UNK         0.0600 
    130 H130        3.5754  -10.6945  -48.5451 H         1 UNK         0.3000 
    131 H131        3.3142  -13.5523  -48.2415 H         1 UNK         0.0600 
    132 H132        2.2849  -12.4406  -50.8995 H         1 UNK         0.0800 
    133 H133        3.8688  -13.1360  -50.7729 H         1 UNK         0.0800 
    134 H134        4.4213  -15.7038  -50.4220 H         1 UNK         0.0800 
    135 H135        3.9634  -15.2542  -52.0502 H         1 UNK         0.0800 
    136 H136        2.2380  -16.6803  -53.2976 H         1 UNK         0.1150 
    137 H137        2.2525  -20.8431  -52.2771 H         1 UNK         0.1150 
    138 H138        4.1567  -17.9944  -49.6975 H         1 UNK         0.1150 
    139 H139        3.3799  -21.6396  -50.3476 H         1 UNK         0.0800 
    140 H140        4.7900  -20.6900  -49.9526 H         1 UNK         0.0800 
    141 H141        1.0411  -20.6526  -49.4985 H         1 UNK         0.0800 
    142 H142        0.7886  -20.0073  -47.9029 H         1 UNK         0.0800 
    143 H143        1.4289  -22.9344  -48.5331 H         1 UNK         0.0600 
    144 H144        1.2670  -21.5446  -45.9733 H         1 UNK         0.3000 
    145 H145        0.3985  -23.3557  -43.9781 H         1 UNK         0.0600 
    146 H146        1.9514  -24.8685  -42.7248 H         1 UNK         0.0600 
    147 H147        1.1089  -25.6997  -44.0215 H         1 UNK         0.0600 
    148 H148        2.7933  -25.2447  -44.2282 H         1 UNK         0.0600 
    149 H149        1.7667  -21.7527  -43.3951 H         1 UNK         0.3000 
    150 H150        5.0916  -21.3170  -43.0395 H         1 UNK         0.0600 
    151 H151        5.3206  -20.5979  -45.4272 H         1 UNK         0.0600 
    152 H152        5.1877  -19.2144  -44.3524 H         1 UNK         0.0600 
    153 H153        3.8007  -19.7206  -45.3138 H         1 UNK         0.0600 
    154 H154        2.9347  -19.3972  -43.0696 H         1 UNK         0.3000 
    155 H155        1.5144  -20.3667  -39.9429 H         1 UNK         0.0600 
    156 H156        3.4023  -18.8335  -39.3610 H         1 UNK         0.0600 
    157 H157        1.8759  -17.9694  -39.4591 H         1 UNK         0.0600 
    158 H158        3.0449  -17.8452  -40.7720 H         1 UNK         0.0600 
    159 H159        0.8014  -18.3010  -41.7550 H         1 UNK         0.3000 
    160 H160       -1.3723  -20.2799  -43.8432 H         1 UNK         0.0600 
    161 H161       -1.8571  -18.0192  -41.8362 H         1 UNK         0.0600 
    162 H162       -2.6431  -19.5939  -41.7971 H         1 UNK         0.0600 
    163 H163       -2.9307  -18.5072  -43.1458 H         1 UNK         0.0600 
    164 H164       -0.6948  -17.5304  -43.9813 H         1 UNK         0.3000 
    165 H165        2.1578  -17.9212  -46.1628 H         1 UNK         0.0600 
    166 H166        0.8294  -16.3392  -47.4774 H         1 UNK         0.0600 
    167 H167        0.0112  -17.8925  -47.5211 H         1 UNK         0.0600 
    168 H168       -0.5913  -16.6137  -46.4771 H         1 UNK         0.0600 
    169 H169        1.0380  -15.5823  -45.0253 H         1 UNK         0.3000 
    170 H170        2.9132  -15.5295  -41.9734 H         1 UNK         0.0600 
    171 H171        4.3249  -14.5232  -43.7505 H         1 UNK         0.0600 
    172 H172        2.9093  -13.8316  -44.5284 H         1 UNK         0.0600 
    173 H173        3.3963  -13.2811  -42.9255 H         1 UNK         0.0600 
    174 H174        0.8479  -13.8698  -43.1110 H         1 UNK         0.3000 
    175 H175       -1.8836  -15.3976  -41.4014 H         1 UNK         0.0600 
    176 H176       -0.7880  -13.9277  -39.7032 H         1 UNK         0.0600 
    177 H177       -0.4389  -12.7306  -40.9448 H         1 UNK         0.0600 
    178 H178       -2.1085  -13.0971  -40.5099 H         1 UNK         0.0600 
    179 H179       -1.6758  -13.0771  -43.0679 H         1 UNK         0.3000 
    180 H180       -2.2303  -14.7345  -46.1793 H         1 UNK         0.0600 
    181 H181       -4.4830  -14.4824  -45.1251 H         1 UNK         0.0600 
    182 H182       -4.0228  -12.9036  -44.4984 H         1 UNK         0.0600 
    183 H183       -4.1397  -13.1688  -46.2385 H         1 UNK         0.0600 
    184 H184       -1.9898  -11.9923  -45.6949 H         1 UNK         0.3000 
    185 H185       -0.1517  -10.9475  -46.6253 H         1 UNK         0.0600 
    186 H186        0.1251  -10.6874  -44.1507 H         1 UNK         0.0600 
    187 H187        1.6681  -11.5301  -44.2149 H         1 UNK         0.0600 
    188 H188        1.4790   -9.9651  -45.0038 H         1 UNK         0.0600 
    189 H189        2.5971  -11.8977  -46.4454 H         1 UNK         0.3000 
    190 H190       -0.2996  -23.9002  -49.4417 H         1 UNK         0.3000 
    191 H191       -2.7722  -24.1494  -48.2708 H         1 UNK         0.0600 
    192 H192       -2.0693  -24.5688  -51.2221 H         1 UNK         0.0600 
    193 H193       -3.4435  -25.2712  -50.3745 H         1 UNK         0.0600 
    194 H194       -1.8131  -25.7355  -49.9242 H         1 UNK         0.0600 
    195 H195       -1.8196  -21.6803  -50.5795 H         1 UNK         0.3000 
    196 H196       -4.3224  -20.6858  -51.3953 H         1 UNK         0.0600 
    197 H197       -2.9919  -18.6340  -51.9612 H         1 UNK         0.0600 
    198 H198       -2.1849  -20.0925  -52.4927 H         1 UNK         0.0600 
    199 H199       -1.6280  -19.2592  -51.0397 H         1 UNK         0.0600 
    200 H200       -2.8244  -20.4279  -48.2813 H         1 UNK         0.3000 
    201 H201       -4.9869  -18.5583  -47.3731 H         1 UNK         0.0600 
    202 H202       -3.4364  -17.9385  -45.5167 H         1 UNK         0.0600 
    203 H203       -2.1609  -18.9069  -46.2491 H         1 UNK         0.0600 
    204 H204       -2.7830  -17.4824  -47.0813 H         1 UNK         0.0600 
    205 H205       -2.8791  -21.3681  -46.5370 H         1 UNK         0.3000 
    206 H206       -4.1693  -21.9695  -44.1169 H         1 UNK         0.0600 
    207 H207       -1.8454  -22.6257  -44.6900 H         1 UNK         0.0600 
    208 H208       -2.7833  -24.0264  -44.1956 H         1 UNK         0.0600 
    209 H209       -2.4397  -23.7606  -45.8996 H         1 UNK         0.0600 
    210 H210       -5.0343  -23.0341  -47.4032 H         1 UNK         0.3000 
    211 H211       -7.0141  -24.9825  -46.3061 H         1 UNK         0.0600 
    212 H212       -7.0305  -25.9477  -48.5147 H         1 UNK         0.0600 
    213 H213       -5.3428  -25.7487  -48.0733 H         1 UNK         0.0600 
    214 H214       -6.1051  -24.6275  -49.2023 H         1 UNK         0.0600 
    215 H215       -6.9337  -21.7879  -46.8787 H         1 UNK         0.3000 
    216 H216       -8.3152  -20.1399  -47.1835 H         1 UNK         0.0600 
    217 H217      -10.7481  -20.4132  -46.8635 H         1 UNK         0.0600 
    218 H218       -9.8661  -21.3689  -45.6825 H         1 UNK         0.0600 
    219 H219      -10.6207  -22.1524  -47.0708 H         1 UNK         0.0600 
    220 H220       -8.9722  -22.7774  -49.4264 H         1 UNK         0.3000 
    221 H221      -10.0274  -21.1919  -51.6063 H         1 UNK         0.0600 
    222 H222       -8.6559  -23.9446  -51.5530 H         1 UNK         0.0600 
    223 H223      -10.3888  -23.6652  -51.3875 H         1 UNK         0.0600 
    224 H224       -9.5807  -23.2927  -52.9009 H         1 UNK         0.0600 
    225 H225       -8.8660  -20.9612  -53.7046 H         1 UNK         0.3000 
    226 H226       -6.4948  -19.4669  -53.4967 H         1 UNK         0.0600 
    227 H227       -6.5369  -19.5441  -56.0015 H         1 UNK         0.0600 
    228 H228       -7.7749  -20.7918  -55.9489 H         1 UNK         0.0600 
    229 H229       -8.1180  -19.1741  -55.3345 H         1 UNK         0.0600 
    230 H230       -6.9518  -22.8335  -54.5215 H         1 UNK         0.3000 
    231 H231       -5.6064  -24.5966  -54.8145 H         1 UNK         0.0600 
    232 H232       -5.9162  -24.5256  -52.4004 H         1 UNK         0.0600 
    233 H233       -4.5687  -23.4234  -52.1857 H         1 UNK         0.0600 
    234 H234       -4.2828  -25.0830  -52.7181 H         1 UNK         0.0600 
    235 H235       -2.9008  -22.9825  -53.2706 H         1 UNK         0.3000 
    236 H236       -1.0262  -23.8537  -55.2628 H         1 UNK         0.0600 
    237 H237       -0.4371  -23.7248  -52.8587 H         1 UNK         0.0600 
    238 H238        0.6191  -22.6805  -53.7919 H         1 UNK         0.0600 
    239 H239       -0.6937  -21.9785  -52.8584 H         1 UNK         0.0600 
    240 H240       -2.7893  -20.7894  -54.7825 H         1 UNK         0.3000 
    241 H241       -1.9727  -19.7864  -57.2901 H         1 UNK         0.0600 
    242 H242       -3.8676  -18.8713  -57.9984 H         1 UNK         0.3800 
    243 H243       -4.9099  -17.9112  -56.9885 H         1 UNK         0.3800 
    244 H244        0.1298  -19.1191  -56.5184 H         1 UNK         0.0800 
    245 H245       -0.7987  -17.6639  -56.4965 H         1 UNK         0.0800 
    246 H246        2.0087  -18.7237  -55.0500 H         1 UNK         0.0800 
    247 H247        1.3217  -20.1791  -54.3653 H         1 UNK         0.0800 
@<TRIPOS>BOND
     1    1    2 1    
     2    1  127 1    
     3    1  128 1    
     4    1  129 1    
     5    2    3 2    
     6    2    4 am   BACKBONE|DICT|INTERRES
     7    4    5 1    
     8    4  130 1    
     9    5    6 1    
    10    5   65 1    
    11    5  131 1    
    12    6    7 1    
    13    6  132 1    
    14    6  133 1    
    15    7    8 1    
    16    8    9 1    
    17    8  134 1    
    18    8  135 1    
    19    9   10 ar   
    20    9   14 ar   
    21   10   11 ar   
    22   10  136 1    
    23   11   12 ar   
    24   11  126 1    
    25   12   13 ar   
    26   12  137 1    
    27   13   14 ar   
    28   13   15 1    
    29   14  138 1    
    30   15   16 1    
    31   15  139 1    
    32   15  140 1    
    33   16   17 1    
    34   17   18 1    
    35   17  141 1    
    36   17  142 1    
    37   18   19 1    
    38   18   67 1    
    39   18  143 1    
    40   19   20 am   BACKBONE|DICT|INTERRES
    41   19  144 1    
    42   20   21 2    
    43   20   22 1    
    44   22   23 1    
    45   22   24 1    
    46   22  145 1    
    47   23  146 1    
    48   23  147 1    
    49   23  148 1    
    50   24   25 am   BACKBONE|DICT|INTERRES
    51   24  149 1    
    52   25   26 2    
    53   25   27 1    
    54   27   28 1    
    55   27   29 1    
    56   27  150 1    
    57   28  151 1    
    58   28  152 1    
    59   28  153 1    
    60   29   30 am   BACKBONE|DICT|INTERRES
    61   29  154 1    
    62   30   31 2    
    63   30   32 1    
    64   32   33 1    
    65   32   34 1    
    66   32  155 1    
    67   33  156 1    
    68   33  157 1    
    69   33  158 1    
    70   34   35 am   BACKBONE|DICT|INTERRES
    71   34  159 1    
    72   35   36 2    
    73   35   37 1    
    74   37   38 1    
    75   37   39 1    
    76   37  160 1    
    77   38  161 1    
    78   38  162 1    
    79   38  163 1    
    80   39   40 am   BACKBONE|DICT|INTERRES
    81   39  164 1    
    82   40   41 2    
    83   40   42 1    
    84   42   43 1    
    85   42   44 1    
    86   42  165 1    
    87   43  166 1    
    88   43  167 1    
    89   43  168 1    
    90   44   45 am   BACKBONE|DICT|INTERRES
    91   44  169 1    
    92   45   46 2    
    93   45   47 1    
    94   47   48 1    
    95   47   49 1    
    96   47  170 1    
    97   48  171 1    
    98   48  172 1    
    99   48  173 1    
   100   49   50 am   BACKBONE|DICT|INTERRES
   101   49  174 1    
   102   50   51 2    
   103   50   52 1    
   104   52   53 1    
   105   52   54 1    
   106   52  175 1    
   107   53  176 1    
   108   53  177 1    
   109   53  178 1    
   110   54   55 am   BACKBONE|DICT|INTERRES
   111   54  179 1    
   112   55   56 2    
   113   55   57 1    
   114   57   58 1    
   115   57   59 1    
   116   57  180 1    
   117   58  181 1    
   118   58  182 1    
   119   58  183 1    
   120   59   60 am   BACKBONE|DICT|INTERRES
   121   59  184 1    
   122   60   61 2    
   123   60   62 1    
   124   62   63 1    
   125   62   64 1    
   126   62  185 1    
   127   63  186 1    
   128   63  187 1    
   129   63  188 1    
   130   64   65 am   BACKBONE|DICT|INTERRES
   131   64  189 1    
   132   65   66 2    
   133   67   68 2    
   134   67   69 am   BACKBONE|DICT|INTERRES
   135   69   70 1    
   136   69  190 1    
   137   70   71 1    
   138   70   72 1    
   139   70  191 1    
   140   71  192 1    
   141   71  193 1    
   142   71  194 1    
   143   72   73 2    
   144   72   74 am   BACKBONE|DICT|INTERRES
   145   74   75 1    
   146   74  195 1    
   147   75   76 1    
   148   75   77 1    
   149   75  196 1    
   150   76  197 1    
   151   76  198 1    
   152   76  199 1    
   153   77   78 2    
   154   77   79 am   BACKBONE|DICT|INTERRES
   155   79   80 1    
   156   79  200 1    
   157   80   81 1    
   158   80   82 1    
   159   80  201 1    
   160   81  202 1    
   161   81  203 1    
   162   81  204 1    
   163   82   83 2    
   164   82   84 am   BACKBONE|DICT|INTERRES
   165   84   85 1    
   166   84  205 1    
   167   85   86 1    
   168   85   87 1    
   169   85  206 1    
   170   86  207 1    
   171   86  208 1    
   172   86  209 1    
   173   87   88 2    
   174   87   89 am   BACKBONE|DICT|INTERRES
   175   89   90 1    
   176   89  210 1    
   177   90   91 1    
   178   90   92 1    
   179   90  211 1    
   180   91  212 1    
   181   91  213 1    
   182   91  214 1    
   183   92   93 2    
   184   92   94 am   BACKBONE|DICT|INTERRES
   185   94   95 1    
   186   94  215 1    
   187   95   96 1    
   188   95   97 1    
   189   95  216 1    
   190   96  217 1    
   191   96  218 1    
   192   96  219 1    
   193   97   98 2    
   194   97   99 am   BACKBONE|DICT|INTERRES
   195   99  100 1    
   196   99  220 1    
   197  100  101 1    
   198  100  102 1    
   199  100  221 1    
   200  101  222 1    
   201  101  223 1    
   202  101  224 1    
   203  102  103 2    
   204  102  104 am   BACKBONE|DICT|INTERRES
   205  104  105 1    
   206  104  225 1    
   207  105  106 1    
   208  105  107 1    
   209  105  226 1    
   210  106  227 1    
   211  106  228 1    
   212  106  229 1    
   213  107  108 2    
   214  107  109 am   BACKBONE|DICT|INTERRES
   215  109  110 1    
   216  109  230 1    
   217  110  111 1    
   218  110  112 1    
   219  110  231 1    
   220  111  232 1    
   221  111  233 1    
   222  111  234 1    
   223  112  113 2    
   224  112  114 am   BACKBONE|DICT|INTERRES
   225  114  115 1    
   226  114  235 1    
   227  115  116 1    
   228  115  117 1    
   229  115  236 1    
   230  116  237 1    
   231  116  238 1    
   232  116  239 1    
   233  117  118 2    
   234  117  119 am   BACKBONE|DICT|INTERRES
   235  119  120 1    
   236  119  240 1    
   237  120  121 1    
   238  120  124 1    
   239  120  241 1    
   240  121  122 am   BACKBONE|DICT|INTERRES
   241  121  123 2    
   242  122  242 1    
   243  122  243 1    
   244  124  125 1    
   245  124  244 1    
   246  124  245 1    
   247  125  126 1    
   248  126  246 1    
   249  126  247 1    
@<TRIPOS>SUBSTRUCTURE
     1 UNK         1 GROUP             0       ****    0 ROOT    
