@<TRIPOS>MOLECULE
3R540
247   249    1
SMALL
USER_CHARGES


@<TRIPOS>ATOM
      1 CA          3.2864  -14.1173  -44.3033 C.3       0 UNK        -0.1800 
      2 C           4.1790  -14.5475  -45.4569 C.2       0 UNK         0.5000 
      3 O           5.4029  -14.5395  -45.3320 O.2       0 UNK        -0.5000 
      4 N           3.5639  -14.9271  -46.5823 N.am      1 UNK        -0.5000 
      5 CA          4.2127  -15.3584  -47.8272 C.3       1 UNK         0.1400 
      6 C6          3.3431  -15.0151  -49.0664 C.3       23 UNK        -0.0398 
      7 S7          1.6628  -15.7330  -49.0372 S.3       23 UNK        -0.2404 
      8 C8          0.9619  -14.9376  -50.5148 C.3       23 UNK        -0.0205 
      9 C9         -0.5350  -15.1779  -50.6279 C.ar      23 UNK        -0.0193 
     10 C10        -1.0504  -16.0595  -51.5834 C.ar      23 UNK        -0.1150 
     11 C11        -2.4307  -16.2543  -51.7129 C.ar      23 UNK        -0.0193 
     12 C12        -3.2924  -15.5504  -50.8606 C.ar      23 UNK        -0.1150 
     13 C13        -2.7884  -14.6964  -49.8790 C.ar      23 UNK        -0.0193 
     14 C14        -1.4105  -14.4993  -49.7785 C.ar      23 UNK        -0.1150 
     15 C15        -3.7324  -14.0124  -48.9056 C.3       23 UNK        -0.0205 
     16 S16        -3.5632  -14.6974  -47.2284 S.3       23 UNK        -0.2404 
     17 C17        -4.1015  -16.4303  -47.4342 C.3       23 UNK        -0.0398 
     18 CA         -2.9504  -17.4531  -47.6419 C.3       11 UNK         0.1400 
     19 N          -1.8983  -17.3986  -46.6158 N.am      11 UNK        -0.5000 
     20 C          -0.7749  -18.1358  -46.6469 C.2       10 UNK         0.5000 
     21 O          -0.4773  -18.8807  -47.5792 O.2       10 UNK        -0.5000 
     22 CA          0.1305  -18.1104  -45.4014 C.3       10 UNK         0.1400 
     23 CB          1.1302  -16.9510  -45.4549 C.3       10 UNK        -0.1800 
     24 N          -0.6340  -18.0608  -44.1562 N.am      10 UNK        -0.5000 
     25 C          -1.3981  -19.0655  -43.7053 C.2       9 UNK         0.5000 
     26 O          -1.4813  -20.1565  -44.2648 O.2       9 UNK        -0.5000 
     27 CA         -2.2461  -18.8018  -42.4489 C.3       9 UNK         0.1400 
     28 CB         -1.4441  -19.0643  -41.1686 C.3       9 UNK        -0.1800 
     29 N          -2.7764  -17.4419  -42.4199 N.am      9 UNK        -0.5000 
     30 C          -3.7201  -16.9858  -43.2536 C.2       8 UNK         0.5000 
     31 O          -4.2840  -17.6837  -44.0983 O.2       8 UNK        -0.5000 
     32 CA         -4.0525  -15.4855  -43.1490 C.3       8 UNK         0.1400 
     33 CB         -5.1359  -15.2445  -42.0876 C.3       8 UNK        -0.1800 
     34 N          -2.8838  -14.6501  -42.8489 N.am      8 UNK        -0.5000 
     35 C          -1.8227  -14.5282  -43.6587 C.2       7 UNK         0.5000 
     36 O          -1.6862  -15.1600  -44.7030 O.2       7 UNK        -0.5000 
     37 CA         -0.7024  -13.5783  -43.2069 C.3       7 UNK         0.1400 
     38 CB         -1.1655  -12.1136  -43.2479 C.3       7 UNK        -0.1800 
     39 N          -0.1571  -13.8874  -41.8835 N.am      7 UNK        -0.5000 
     40 C           0.3955  -15.0554  -41.5312 C.2       6 UNK         0.5000 
     41 O           0.3954  -16.0638  -42.2402 O.2       6 UNK        -0.5000 
     42 CA          1.0554  -15.1119  -40.1447 C.3       6 UNK         0.1400 
     43 CB          0.1466  -15.8280  -39.1345 C.3       6 UNK        -0.1800 
     44 N           2.3319  -15.8179  -40.2323 N.am      6 UNK        -0.5000 
     45 C           3.4773  -15.2672  -40.6591 C.2       5 UNK         0.5000 
     46 O           3.6025  -14.0680  -40.9088 O.2       5 UNK        -0.5000 
     47 CA          4.6895  -16.2036  -40.8346 C.3       5 UNK         0.1400 
     48 CB          5.6384  -16.0819  -39.6322 C.3       5 UNK        -0.1800 
     49 N           4.2951  -17.6060  -40.9872 N.am      5 UNK        -0.5000 
     50 C           3.9544  -18.1739  -42.1502 C.2       4 UNK         0.5000 
     51 O           4.0099  -17.6036  -43.2428 O.2       4 UNK        -0.5000 
     52 CA          3.4183  -19.6128  -42.0568 C.3       4 UNK         0.1400 
     53 CB          1.9138  -19.5935  -41.7629 C.3       4 UNK        -0.1800 
     54 N           3.6398  -20.3497  -43.2975 N.am      4 UNK        -0.5000 
     55 C           4.7949  -20.9359  -43.6304 C.2       3 UNK         0.5000 
     56 O           5.7878  -20.9567  -42.9031 O.2       3 UNK        -0.5000 
     57 CA          4.8625  -21.5975  -45.0188 C.3       3 UNK         0.1400 
     58 CB          4.5518  -23.0973  -44.8985 C.3       3 UNK        -0.1800 
     59 N           3.9423  -21.0131  -46.0012 N.am      3 UNK        -0.5000 
     60 C           3.9847  -19.8106  -46.5972 C.2       2 UNK         0.5000 
     61 O           3.0812  -19.4801  -47.3627 O.2       2 UNK        -0.5000 
     62 CA          5.1625  -18.8375  -46.3304 C.3       2 UNK         0.1400 
     63 CB          6.4525  -19.2461  -47.0800 C.3       2 UNK        -0.1800 
     64 N           4.7976  -17.4439  -46.6230 N.am      2 UNK        -0.5000 
     65 C           4.6892  -16.8338  -47.8159 C.2       1 UNK         0.5000 
     66 O           4.9720  -17.3723  -48.8878 O.2       1 UNK        -0.5000 
     67 C          -3.5318  -18.8785  -47.7652 C.2       11 UNK         0.5000 
     68 O          -3.6289  -19.4049  -48.8738 O.2       11 UNK        -0.5000 
     69 N          -3.8549  -19.4949  -46.6176 N.am      12 UNK        -0.5000 
     70 CA         -4.3439  -20.8712  -46.5251 C.3       12 UNK         0.1400 
     71 CB         -4.8363  -21.1452  -45.0967 C.3       12 UNK        -0.1800 
     72 C          -3.2982  -21.9174  -46.9582 C.2       12 UNK         0.5000 
     73 O          -3.6536  -22.8822  -47.6356 O.2       12 UNK        -0.5000 
     74 N          -2.0263  -21.7026  -46.5937 N.am      13 UNK        -0.5000 
     75 CA         -0.8974  -22.5351  -47.0111 C.3       13 UNK         0.1400 
     76 CB          0.3772  -22.1246  -46.2574 C.3       13 UNK        -0.1800 
     77 C          -0.6765  -22.4918  -48.5324 C.2       13 UNK         0.5000 
     78 O          -0.5125  -23.5454  -49.1445 O.2       13 UNK        -0.5000 
     79 N          -0.7311  -21.2895  -49.1228 N.am      14 UNK        -0.5000 
     80 CA         -0.6638  -21.0713  -50.5684 C.3       14 UNK         0.1400 
     81 CB         -0.5650  -19.5671  -50.8574 C.3       14 UNK        -0.1800 
     82 C          -1.8523  -21.7011  -51.3190 C.2       14 UNK         0.5000 
     83 O          -1.6572  -22.2744  -52.3945 O.2       14 UNK        -0.5000 
     84 N          -3.0519  -21.6238  -50.7210 N.am      15 UNK        -0.5000 
     85 CA         -4.2700  -22.2761  -51.2016 C.3       15 UNK         0.1400 
     86 CB         -5.4685  -21.9031  -50.3185 C.3       15 UNK        -0.1800 
     87 C          -4.1186  -23.8014  -51.2807 C.2       15 UNK         0.5000 
     88 O          -4.3881  -24.3801  -52.3335 O.2       15 UNK        -0.5000 
     89 N          -3.6557  -24.4033  -50.1772 N.am      16 UNK        -0.5000 
     90 CA         -3.3880  -25.8347  -50.0554 C.3       16 UNK         0.1400 
     91 CB         -3.0762  -26.1658  -48.5881 C.3       16 UNK        -0.1800 
     92 C          -2.2524  -26.3173  -50.9760 C.2       16 UNK         0.5000 
     93 O          -2.3387  -27.4248  -51.5082 O.2       16 UNK        -0.5000 
     94 N          -1.2174  -25.4829  -51.1483 N.am      17 UNK        -0.5000 
     95 CA         -0.0638  -25.7541  -52.0017 C.3       17 UNK         0.1400 
     96 CB          1.0339  -24.7076  -51.7557 C.3       17 UNK        -0.1800 
     97 C          -0.4214  -25.8239  -53.4950 C.2       17 UNK         0.5000 
     98 O          -0.0010  -26.7731  -54.1594 O.2       17 UNK        -0.5000 
     99 N          -1.1797  -24.8378  -53.9991 N.am      18 UNK        -0.5000 
    100 CA        -1.5430  -24.7670  -55.4172 C.3       18 UNK         0.1400 
    101 CB        -0.3154  -24.3741  -56.2668 C.3       18 UNK        -0.1800 
    102 C         -2.7028  -23.8125  -55.7375 C.2       18 UNK         0.5000 
    103 O         -3.4222  -24.0729  -56.7031 O.2       18 UNK        -0.5000 
    104 N         -2.8392  -22.7002  -54.9998 N.am      19 UNK        -0.5000 
    105 CA        -3.6759  -21.5709  -55.4230 C.3       19 UNK         0.1400 
    106 CB        -3.2820  -20.3121  -54.6373 C.3       19 UNK        -0.1800 
    107 C         -5.1953  -21.8181  -55.3498 C.2       19 UNK         0.5000 
    108 O         -5.9336  -21.1791  -56.1005 O.2       19 UNK        -0.5000 
    109 N         -5.6307  -22.7279  -54.4647 N.am      20 UNK        -0.5000 
    110 CA        -7.0031  -23.1812  -54.1936 C.3       20 UNK         0.1400 
    111 CB        -7.5903  -23.9162  -55.4132 C.3       20 UNK        -0.1800 
    112 C         -7.9724  -22.0950  -53.6794 C.2       20 UNK         0.5000 
    113 O         -8.5531  -22.2559  -52.6058 O.2       20 UNK        -0.5000 
    114 N         -8.1360  -21.0128  -54.4481 N.am      21 UNK        -0.5000 
    115 CA        -9.0733  -19.9129  -54.2051 C.3       21 UNK         0.1400 
    116 CB        -9.2077  -19.0926  -55.4974 C.3       21 UNK        -0.1800 
    117 C         -8.6821  -18.9994  -53.0272 C.2       21 UNK         0.5000 
    118 O         -9.5326  -18.2635  -52.5255 O.2       21 UNK        -0.5000 
    119 N         -7.4119  -19.0583  -52.6118 N.am      22 UNK        -0.5000 
    120 CA        -6.8361  -18.2854  -51.4991 C.3       22 UNK         0.1400 
    121 C         -7.3167  -18.7052  -50.0764 C.2       22 UNK         0.5000 
    122 N         -8.0811  -19.7792  -49.9147 N.am      22 UNK        -0.7600 
    123 O         -6.9996  -18.0319  -49.1003 O.2       22 UNK        -0.5000 
    124 C124       -5.2897  -18.2538  -51.5959 C.3       23 UNK        -0.0398 
    125 S125       -4.7310  -17.3060  -53.0524 S.3       23 UNK        -0.2404 
    126 C126       -2.9263  -17.2392  -52.7764 C.3       23 UNK        -0.0205 
    127 H127        2.3464  -13.7035  -44.6666 H         1 UNK         0.0600 
    128 H128        3.7795  -13.3545  -43.7005 H         1 UNK         0.0600 
    129 H129        3.0625  -14.9699  -43.6625 H         1 UNK         0.0600 
    130 H130        2.5544  -14.9292  -46.6169 H         1 UNK         0.3000 
    131 H131        5.1293  -14.7740  -47.9315 H         1 UNK         0.0600 
    132 H132        3.2420  -13.9309  -49.1317 H         1 UNK         0.0800 
    133 H133        3.8403  -15.3142  -49.9908 H         1 UNK         0.0800 
    134 H134        1.4799  -15.3071  -51.4011 H         1 UNK         0.0800 
    135 H135        1.1459  -13.8630  -50.4738 H         1 UNK         0.0800 
    136 H136       -0.3729  -16.5940  -52.2347 H         1 UNK         0.1150 
    137 H137       -4.3621  -15.6660  -50.9345 H         1 UNK         0.1150 
    138 H138       -1.0178  -13.8341  -49.0221 H         1 UNK         0.1150 
    139 H139       -3.5079  -12.9453  -48.8773 H         1 UNK         0.0800 
    140 H140       -4.7701  -14.1005  -49.2311 H         1 UNK         0.0800 
    141 H141       -4.8015  -16.4788  -48.2701 H         1 UNK         0.0800 
    142 H142       -4.6832  -16.6896  -46.5488 H         1 UNK         0.0800 
    143 H143       -2.4663  -17.2245  -48.5930 H         1 UNK         0.0600 
    144 H144       -2.0335  -16.7455  -45.8494 H         1 UNK         0.3000 
    145 H145        0.7103  -19.0350  -45.3925 H         1 UNK         0.0600 
    146 H146        0.6355  -15.9846  -45.5436 H         1 UNK         0.0600 
    147 H147        1.7574  -16.9301  -44.5645 H         1 UNK         0.0600 
    148 H148        1.7885  -17.0688  -46.3149 H         1 UNK         0.0600 
    149 H149       -0.5785  -17.1985  -43.6240 H         1 UNK         0.3000 
    150 H150       -3.0888  -19.4962  -42.4668 H         1 UNK         0.0600 
    151 H151       -1.0458  -20.0796  -41.1582 H         1 UNK         0.0600 
    152 H152       -2.0667  -18.9495  -40.2813 H         1 UNK         0.0600 
    153 H153       -0.6041  -18.3773  -41.0801 H         1 UNK         0.0600 
    154 H154       -2.3360  -16.7909  -41.7873 H         1 UNK         0.3000 
    155 H155       -4.4471  -15.1704  -44.1174 H         1 UNK         0.0600 
    156 H156       -5.4439  -14.1989  -42.0686 H         1 UNK         0.0600 
    157 H157       -6.0256  -15.8402  -42.2962 H         1 UNK         0.0600 
    158 H158       -4.7885  -15.5115  -41.0887 H         1 UNK         0.0600 
    159 H159       -2.9097  -14.1132  -41.9946 H         1 UNK         0.3000 
    160 H160        0.1125  -13.6873  -43.9242 H         1 UNK         0.0600 
    161 H161       -1.5803  -11.8626  -44.2252 H         1 UNK         0.0600 
    162 H162       -0.3336  -11.4330  -43.0662 H         1 UNK         0.0600 
    163 H163       -1.9346  -11.9092  -42.5022 H         1 UNK         0.0600 
    164 H164       -0.1259  -13.1204  -41.2277 H         1 UNK         0.3000 
    165 H165        1.2305  -14.0948  -39.7874 H         1 UNK         0.0600 
    166 H166        0.5850  -15.8154  -38.1365 H         1 UNK         0.0600 
    167 H167       -0.8264  -15.3396  -39.0674 H         1 UNK         0.0600 
    168 H168       -0.0254  -16.8685  -39.4081 H         1 UNK         0.0600 
    169 H169        2.3012  -16.8162  -40.0985 H         1 UNK         0.3000 
    170 H170        5.2296  -15.8799  -41.7273 H         1 UNK         0.0600 
    171 H171        5.9757  -15.0526  -39.5036 H         1 UNK         0.0600 
    172 H172        5.1549  -16.3874  -38.7034 H         1 UNK         0.0600 
    173 H173        6.5270  -16.6988  -39.7677 H         1 UNK         0.0600 
    174 H174        4.2411  -18.1509  -40.1385 H         1 UNK         0.3000 
    175 H175        3.9252  -20.1305  -41.2393 H         1 UNK         0.0600 
    176 H176        1.3733  -19.0230  -42.5175 H         1 UNK         0.0600 
    177 H177        1.4984  -20.6010  -41.7384 H         1 UNK         0.0600 
    178 H178        1.7105  -19.1341  -40.7952 H         1 UNK         0.0600 
    179 H179        2.8890  -20.3399  -43.9710 H         1 UNK         0.3000 
    180 H180        5.8849  -21.5095  -45.3803 H         1 UNK         0.0600 
    181 H181        3.5330  -23.2723  -44.5499 H         1 UNK         0.0600 
    182 H182        5.2276  -23.5822  -44.1925 H         1 UNK         0.0600 
    183 H183        4.6702  -23.6033  -45.8570 H         1 UNK         0.0600 
    184 H184        3.1642  -21.6063  -46.2433 H         1 UNK         0.3000 
    185 H185        5.3837  -18.8348  -45.2654 H         1 UNK         0.0600 
    186 H186        7.1887  -18.4422  -47.0677 H         1 UNK         0.0600 
    187 H187        6.9341  -20.1107  -46.6296 H         1 UNK         0.0600 
    188 H188        6.2535  -19.4999  -48.1216 H         1 UNK         0.0600 
    189 H189        4.5334  -16.9034  -45.8104 H         1 UNK         0.3000 
    190 H190       -3.7559  -18.9864  -45.7462 H         1 UNK         0.3000 
    191 H191       -5.1980  -20.9624  -47.1994 H         1 UNK         0.0600 
    192 H192       -4.0309  -21.0588  -44.3674 H         1 UNK         0.0600 
    193 H193       -5.2482  -22.1517  -45.0131 H         1 UNK         0.0600 
    194 H194       -5.6224  -20.4462  -44.8100 H         1 UNK         0.0600 
    195 H195       -1.8191  -20.9319  -45.9646 H         1 UNK         0.3000 
    196 H196       -1.1311  -23.5664  -46.7383 H         1 UNK         0.0600 
    197 H197        1.2030  -22.7922  -46.5050 H         1 UNK         0.0600 
    198 H198        0.2328  -22.1714  -45.1780 H         1 UNK         0.0600 
    199 H199        0.6871  -21.1118  -46.5132 H         1 UNK         0.0600 
    200 H200       -0.8219  -20.4586  -48.5415 H         1 UNK         0.3000 
    201 H201        0.2485  -21.5455  -50.9339 H         1 UNK         0.0600 
    202 H202        0.3182  -19.1328  -50.3879 H         1 UNK         0.0600 
    203 H203       -1.4350  -19.0271  -50.4828 H         1 UNK         0.0600 
    204 H204       -0.4893  -19.3787  -51.9288 H         1 UNK         0.0600 
    205 H205       -3.1321  -21.0792  -49.8677 H         1 UNK         0.3000 
    206 H206       -4.4640  -21.8949  -52.2014 H         1 UNK         0.0600 
    207 H207       -5.4764  -20.8424  -50.0861 H         1 UNK         0.0600 
    208 H208       -6.4057  -22.1390  -50.8223 H         1 UNK         0.0600 
    209 H209       -5.4737  -22.4390  -49.3709 H         1 UNK         0.0600 
    210 H210       -3.4857  -23.8374  -49.3501 H         1 UNK         0.3000 
    211 H211       -4.2964  -26.3691  -50.3411 H         1 UNK         0.0600 
    212 H212       -2.1911  -25.6348  -48.2358 H         1 UNK         0.0600 
    213 H213       -2.8944  -27.2333  -48.4574 H         1 UNK         0.0600 
    214 H214       -3.9080  -25.8943  -47.9377 H         1 UNK         0.0600 
    215 H215       -1.1853  -24.6274  -50.6014 H         1 UNK         0.3000 
    216 H216        0.3368  -26.7280  -51.7126 H         1 UNK         0.0600 
    217 H217        1.9054  -24.9012  -52.3822 H         1 UNK         0.0600 
    218 H218        1.3709  -24.7253  -50.7193 H         1 UNK         0.0600 
    219 H219        0.6873  -23.6992  -51.9798 H         1 UNK         0.0600 
    220 H220       -1.5063  -24.0979  -53.3872 H         1 UNK         0.3000 
    221 H221       -1.8742  -25.7598  -55.7301 H         1 UNK         0.0600 
    222 H222        0.1083  -23.4245  -55.9377 H         1 UNK         0.0600 
    223 H223        0.4717  -25.1259  -56.2166 H         1 UNK         0.0600 
    224 H224       -0.5820  -24.2669  -57.3193 H         1 UNK         0.0600 
    225 H225       -2.2420  -22.5413  -54.1938 H         1 UNK         0.3000 
    226 H226       -3.4458  -21.3734  -56.4725 H         1 UNK         0.0600 
    227 H227       -2.2176  -20.0995  -54.7375 H         1 UNK         0.0600 
    228 H228       -3.8208  -19.4412  -55.0120 H         1 UNK         0.0600 
    229 H229       -3.5049  -20.4010  -53.5763 H         1 UNK         0.0600 
    230 H230       -4.9261  -23.2171  -53.9224 H         1 UNK         0.3000 
    231 H231       -6.9134  -23.9152  -53.3914 H         1 UNK         0.0600 
    232 H232       -8.5773  -24.3212  -55.1864 H         1 UNK         0.0600 
    233 H233       -6.9561  -24.7521  -55.7088 H         1 UNK         0.0600 
    234 H234       -7.6982  -23.2586  -56.2762 H         1 UNK         0.0600 
    235 H235       -7.5525  -20.9466  -55.2797 H         1 UNK         0.3000 
    236 H236      -10.0482  -20.3450  -53.9705 H         1 UNK         0.0600 
    237 H237       -9.9215  -18.2772  -55.3731 H         1 UNK         0.0600 
    238 H238       -9.5629  -19.7110  -56.3219 H         1 UNK         0.0600 
    239 H239       -8.2541  -18.6535  -55.7937 H         1 UNK         0.0600 
    240 H240       -6.7859  -19.6797  -53.0995 H         1 UNK         0.3000 
    241 H241       -7.1888  -17.2583  -51.6120 H         1 UNK         0.0600 
    242 H242       -8.3935  -20.0270  -48.9898 H         1 UNK         0.3800 
    243 H243       -8.3605  -20.3383  -50.7059 H         1 UNK         0.3800 
    244 H244       -4.8513  -17.8181  -50.6987 H         1 UNK         0.0800 
    245 H245       -4.8831  -19.2626  -51.6624 H         1 UNK         0.0800 
    246 H246       -2.5777  -18.2402  -52.5243 H         1 UNK         0.0800 
    247 H247       -2.4582  -16.9828  -53.7278 H         1 UNK         0.0800 
@<TRIPOS>BOND
     1    1    2 1    
     2    1  127 1    
     3    1  128 1    
     4    1  129 1    
     5    2    3 2    
     6    2    4 am   BACKBONE|DICT|INTERRES
     7    4    5 1    
     8    4  130 1    
     9    5    6 1    
    10    5   65 1    
    11    5  131 1    
    12    6    7 1    
    13    6  132 1    
    14    6  133 1    
    15    7    8 1    
    16    8    9 1    
    17    8  134 1    
    18    8  135 1    
    19    9   10 ar   
    20    9   14 ar   
    21   10   11 ar   
    22   10  136 1    
    23   11   12 ar   
    24   11  126 1    
    25   12   13 ar   
    26   12  137 1    
    27   13   14 ar   
    28   13   15 1    
    29   14  138 1    
    30   15   16 1    
    31   15  139 1    
    32   15  140 1    
    33   16   17 1    
    34   17   18 1    
    35   17  141 1    
    36   17  142 1    
    37   18   19 1    
    38   18   67 1    
    39   18  143 1    
    40   19   20 am   BACKBONE|DICT|INTERRES
    41   19  144 1    
    42   20   21 2    
    43   20   22 1    
    44   22   23 1    
    45   22   24 1    
    46   22  145 1    
    47   23  146 1    
    48   23  147 1    
    49   23  148 1    
    50   24   25 am   BACKBONE|DICT|INTERRES
    51   24  149 1    
    52   25   26 2    
    53   25   27 1    
    54   27   28 1    
    55   27   29 1    
    56   27  150 1    
    57   28  151 1    
    58   28  152 1    
    59   28  153 1    
    60   29   30 am   BACKBONE|DICT|INTERRES
    61   29  154 1    
    62   30   31 2    
    63   30   32 1    
    64   32   33 1    
    65   32   34 1    
    66   32  155 1    
    67   33  156 1    
    68   33  157 1    
    69   33  158 1    
    70   34   35 am   BACKBONE|DICT|INTERRES
    71   34  159 1    
    72   35   36 2    
    73   35   37 1    
    74   37   38 1    
    75   37   39 1    
    76   37  160 1    
    77   38  161 1    
    78   38  162 1    
    79   38  163 1    
    80   39   40 am   BACKBONE|DICT|INTERRES
    81   39  164 1    
    82   40   41 2    
    83   40   42 1    
    84   42   43 1    
    85   42   44 1    
    86   42  165 1    
    87   43  166 1    
    88   43  167 1    
    89   43  168 1    
    90   44   45 am   BACKBONE|DICT|INTERRES
    91   44  169 1    
    92   45   46 2    
    93   45   47 1    
    94   47   48 1    
    95   47   49 1    
    96   47  170 1    
    97   48  171 1    
    98   48  172 1    
    99   48  173 1    
   100   49   50 am   BACKBONE|DICT|INTERRES
   101   49  174 1    
   102   50   51 2    
   103   50   52 1    
   104   52   53 1    
   105   52   54 1    
   106   52  175 1    
   107   53  176 1    
   108   53  177 1    
   109   53  178 1    
   110   54   55 am   BACKBONE|DICT|INTERRES
   111   54  179 1    
   112   55   56 2    
   113   55   57 1    
   114   57   58 1    
   115   57   59 1    
   116   57  180 1    
   117   58  181 1    
   118   58  182 1    
   119   58  183 1    
   120   59   60 am   BACKBONE|DICT|INTERRES
   121   59  184 1    
   122   60   61 2    
   123   60   62 1    
   124   62   63 1    
   125   62   64 1    
   126   62  185 1    
   127   63  186 1    
   128   63  187 1    
   129   63  188 1    
   130   64   65 am   BACKBONE|DICT|INTERRES
   131   64  189 1    
   132   65   66 2    
   133   67   68 2    
   134   67   69 am   BACKBONE|DICT|INTERRES
   135   69   70 1    
   136   69  190 1    
   137   70   71 1    
   138   70   72 1    
   139   70  191 1    
   140   71  192 1    
   141   71  193 1    
   142   71  194 1    
   143   72   73 2    
   144   72   74 am   BACKBONE|DICT|INTERRES
   145   74   75 1    
   146   74  195 1    
   147   75   76 1    
   148   75   77 1    
   149   75  196 1    
   150   76  197 1    
   151   76  198 1    
   152   76  199 1    
   153   77   78 2    
   154   77   79 am   BACKBONE|DICT|INTERRES
   155   79   80 1    
   156   79  200 1    
   157   80   81 1    
   158   80   82 1    
   159   80  201 1    
   160   81  202 1    
   161   81  203 1    
   162   81  204 1    
   163   82   83 2    
   164   82   84 am   BACKBONE|DICT|INTERRES
   165   84   85 1    
   166   84  205 1    
   167   85   86 1    
   168   85   87 1    
   169   85  206 1    
   170   86  207 1    
   171   86  208 1    
   172   86  209 1    
   173   87   88 2    
   174   87   89 am   BACKBONE|DICT|INTERRES
   175   89   90 1    
   176   89  210 1    
   177   90   91 1    
   178   90   92 1    
   179   90  211 1    
   180   91  212 1    
   181   91  213 1    
   182   91  214 1    
   183   92   93 2    
   184   92   94 am   BACKBONE|DICT|INTERRES
   185   94   95 1    
   186   94  215 1    
   187   95   96 1    
   188   95   97 1    
   189   95  216 1    
   190   96  217 1    
   191   96  218 1    
   192   96  219 1    
   193   97   98 2    
   194   97   99 am   BACKBONE|DICT|INTERRES
   195   99  100 1    
   196   99  220 1    
   197  100  101 1    
   198  100  102 1    
   199  100  221 1    
   200  101  222 1    
   201  101  223 1    
   202  101  224 1    
   203  102  103 2    
   204  102  104 am   BACKBONE|DICT|INTERRES
   205  104  105 1    
   206  104  225 1    
   207  105  106 1    
   208  105  107 1    
   209  105  226 1    
   210  106  227 1    
   211  106  228 1    
   212  106  229 1    
   213  107  108 2    
   214  107  109 am   BACKBONE|DICT|INTERRES
   215  109  110 1    
   216  109  230 1    
   217  110  111 1    
   218  110  112 1    
   219  110  231 1    
   220  111  232 1    
   221  111  233 1    
   222  111  234 1    
   223  112  113 2    
   224  112  114 am   BACKBONE|DICT|INTERRES
   225  114  115 1    
   226  114  235 1    
   227  115  116 1    
   228  115  117 1    
   229  115  236 1    
   230  116  237 1    
   231  116  238 1    
   232  116  239 1    
   233  117  118 2    
   234  117  119 am   BACKBONE|DICT|INTERRES
   235  119  120 1    
   236  119  240 1    
   237  120  121 1    
   238  120  124 1    
   239  120  241 1    
   240  121  122 am   BACKBONE|DICT|INTERRES
   241  121  123 2    
   242  122  242 1    
   243  122  243 1    
   244  124  125 1    
   245  124  244 1    
   246  124  245 1    
   247  125  126 1    
   248  126  246 1    
   249  126  247 1    
@<TRIPOS>SUBSTRUCTURE
     1 UNK         1 GROUP             0       ****    0 ROOT    
