@<TRIPOS>MOLECULE
3R540
247   249    1
SMALL
USER_CHARGES


@<TRIPOS>ATOM
      1 CA          8.3547  -16.8102  -47.6952 C.3       0 UNK        -0.1800 
      2 C           6.8405  -16.7563  -47.8363 C.2       0 UNK         0.5000 
      3 O           6.1587  -17.7269  -47.5064 O.2       0 UNK        -0.5000 
      4 N           6.3083  -15.6225  -48.3110 N.am      1 UNK        -0.5000 
      5 CA          4.8791  -15.3605  -48.5216 C.3       1 UNK         0.1400 
      6 C6          4.6740  -14.2616  -49.5975 C.3       23 UNK        -0.0398 
      7 S7          3.0214  -14.3203  -50.3723 S.3       23 UNK        -0.2404 
      8 C8          3.3167  -15.3941  -51.8129 C.3       23 UNK        -0.0205 
      9 C9          2.4389  -16.6329  -51.7570 C.ar      23 UNK        -0.0193 
     10 C10         1.2092  -16.6532  -52.4193 C.ar      23 UNK        -0.1150 
     11 C11         0.4043  -17.7954  -52.3899 C.ar      23 UNK        -0.0193 
     12 C12         0.8253  -18.9148  -51.6635 C.ar      23 UNK        -0.1150 
     13 C13         2.0523  -18.9040  -50.9893 C.ar      23 UNK        -0.0193 
     14 C14         2.8604  -17.7650  -51.0560 C.ar      23 UNK        -0.1150 
     15 C15         2.5202  -20.1377  -50.2261 C.3       23 UNK        -0.0205 
     16 S16         3.0850  -19.7845  -48.5241 S.3       23 UNK        -0.2404 
     17 C17         1.5897  -19.1097  -47.7276 C.3       23 UNK        -0.0398 
     18 CA          0.7247  -20.2039  -47.0509 C.3       11 UNK         0.1400 
     19 N           0.0351  -19.7185  -45.8511 N.am      11 UNK        -0.5000 
     20 C          -0.6799  -20.4865  -45.0156 C.2       10 UNK         0.5000 
     21 O          -0.7698  -21.7092  -45.1163 O.2       10 UNK        -0.5000 
     22 CA         -1.4837  -19.7639  -43.9230 C.3       10 UNK         0.1400 
     23 CB         -0.6105  -19.4735  -42.6969 C.3       10 UNK        -0.1800 
     24 N          -2.0847  -18.5255  -44.4184 N.am      10 UNK        -0.5000 
     25 C          -3.1109  -18.4887  -45.2823 C.2       9 UNK         0.5000 
     26 O          -3.6937  -19.4964  -45.6831 O.2       9 UNK        -0.5000 
     27 CA         -3.5301  -17.1072  -45.8292 C.3       9 UNK         0.1400 
     28 CB         -4.5751  -16.4605  -44.9084 C.3       9 UNK        -0.1800 
     29 N          -2.4050  -16.1858  -45.9972 N.am      9 UNK        -0.5000 
     30 C          -1.3431  -16.4116  -46.7815 C.2       8 UNK         0.5000 
     31 O          -1.2699  -17.3618  -47.5587 O.2       8 UNK        -0.5000 
     32 CA         -0.1312  -15.4676  -46.6496 C.3       8 UNK         0.1400 
     33 CB         -0.0491  -14.5294  -47.8627 C.3       8 UNK        -0.1800 
     34 N          -0.0386  -14.6685  -45.4189 N.am      8 UNK        -0.5000 
     35 C          -0.0911  -15.1179  -44.1555 C.2       7 UNK         0.5000 
     36 O          -0.4302  -16.2619  -43.8493 O.2       7 UNK        -0.5000 
     37 CA          0.3666  -14.1389  -43.0568 C.3       7 UNK         0.1400 
     38 CB         -0.0317  -12.6702  -43.3234 C.3       7 UNK        -0.1800 
     39 N          -0.0459  -14.5833  -41.7242 N.am      7 UNK        -0.5000 
     40 C          -1.2861  -14.6112  -41.2118 C.2       6 UNK         0.5000 
     41 O          -2.2801  -14.1787  -41.7972 O.2       6 UNK        -0.5000 
     42 CA         -1.4610  -15.2349  -39.8077 C.3       6 UNK         0.1400 
     43 CB         -2.3242  -16.5045  -39.8859 C.3       6 UNK        -0.1800 
     44 N          -0.1979  -15.5752  -39.1476 N.am      6 UNK        -0.5000 
     45 C           0.6810  -14.6989  -38.6417 C.2       5 UNK         0.5000 
     46 O           0.4718  -13.4873  -38.5762 O.2       5 UNK        -0.5000 
     47 CA          2.0342  -15.2625  -38.1555 C.3       5 UNK         0.1400 
     48 CB          2.0893  -15.2748  -36.6198 C.3       5 UNK        -0.1800 
     49 N           2.3532  -16.6089  -38.6498 N.am      5 UNK        -0.5000 
     50 C           2.5394  -16.9509  -39.9321 C.2       4 UNK         0.5000 
     51 O           2.4303  -16.1614  -40.8755 O.2       4 UNK        -0.5000 
     52 CA          2.8539  -18.4318  -40.1951 C.3       4 UNK         0.1400 
     53 CB          1.6454  -19.3222  -39.8489 C.3       4 UNK        -0.1800 
     54 N           3.2216  -18.5978  -41.5972 N.am      4 UNK        -0.5000 
     55 C           3.9377  -19.6019  -42.1148 C.2       3 UNK         0.5000 
     56 O           4.3222  -20.5654  -41.4506 O.2       3 UNK        -0.5000 
     57 CA          4.3439  -19.5169  -43.6036 C.3       3 UNK         0.1400 
     58 CB          3.5309  -20.5053  -44.4641 C.3       3 UNK        -0.1800 
     59 N           4.3331  -18.1570  -44.1671 N.am      3 UNK        -0.5000 
     60 C           3.2744  -17.3944  -44.4718 C.2       2 UNK         0.5000 
     61 O           2.1086  -17.7668  -44.3867 O.2       2 UNK        -0.5000 
     62 CA          3.5743  -15.9750  -44.9554 C.3       2 UNK         0.1400 
     63 CB          4.4512  -15.1851  -43.9650 C.3       2 UNK        -0.1800 
     64 N           4.1937  -16.0374  -46.2703 N.am      2 UNK        -0.5000 
     65 C           4.1594  -15.0637  -47.1841 C.2       1 UNK         0.5000 
     66 O           3.6199  -13.9734  -46.9876 O.2       1 UNK        -0.5000 
     67 C          -0.2737  -20.8169  -48.0510 C.2       11 UNK         0.5000 
     68 O          -0.0556  -21.9312  -48.5245 O.2       11 UNK        -0.5000 
     69 N          -1.3752  -20.0965  -48.3072 N.am      12 UNK        -0.5000 
     70 CA         -2.4799  -20.5196  -49.1644 C.3       12 UNK         0.1400 
     71 CB         -3.5300  -19.4012  -49.2422 C.3       12 UNK        -0.1800 
     72 C          -3.1283  -21.8300  -48.6900 C.2       12 UNK         0.5000 
     73 O          -3.4019  -22.6999  -49.5160 O.2       12 UNK        -0.5000 
     74 N          -3.3453  -21.9562  -47.3743 N.am      13 UNK        -0.5000 
     75 CA         -3.8680  -23.1636  -46.7391 C.3       13 UNK         0.1400 
     76 CB         -4.2383  -22.8596  -45.2799 C.3       13 UNK        -0.1800 
     77 C          -2.8867  -24.3470  -46.8261 C.2       13 UNK         0.5000 
     78 O          -3.3048  -25.4500  -47.1780 O.2       13 UNK        -0.5000 
     79 N          -1.6024  -24.0946  -46.5339 N.am      14 UNK        -0.5000 
     80 CA         -0.5240  -25.0858  -46.5710 C.3       14 UNK         0.1400 
     81 CB          0.7509  -24.4812  -45.9623 C.3       14 UNK        -0.1800 
     82 C          -0.2449  -25.6273  -47.9848 C.2       14 UNK         0.5000 
     83 O          -0.0545  -26.8331  -48.1483 O.2       14 UNK        -0.5000 
     84 N          -0.2479  -24.7326  -48.9811 N.am      15 UNK        -0.5000 
     85 CA         -0.0667  -25.0601  -50.3965 C.3       15 UNK         0.1400 
     86 CB          0.3524  -23.7836  -51.1451 C.3       15 UNK        -0.1800 
     87 C          -1.3244  -25.6662  -51.0506 C.2       15 UNK         0.5000 
     88 O          -1.2245  -26.1982  -52.1564 O.2       15 UNK        -0.5000 
     89 N          -2.4820  -25.5321  -50.3841 N.am      16 UNK        -0.5000 
     90 CA         -3.8375  -25.8390  -50.8607 C.3       16 UNK         0.1400 
     91 CB         -4.0036  -27.3412  -51.1675 C.3       16 UNK        -0.1800 
     92 C          -4.2870  -24.9324  -52.0294 C.2       16 UNK         0.5000 
     93 O          -5.2234  -25.2703  -52.7547 O.2       16 UNK        -0.5000 
     94 N          -3.6297  -23.7736  -52.1664 N.am      17 UNK        -0.5000 
     95 CA         -3.9187  -22.7328  -53.1477 C.3       17 UNK         0.1400 
     96 CB         -2.6688  -21.8577  -53.3270 C.3       17 UNK        -0.1800 
     97 C          -5.1325  -21.8766  -52.7470 C.2       17 UNK         0.5000 
     98 O          -5.7100  -21.2178  -53.6107 O.2       17 UNK        -0.5000 
     99 N          -5.5260  -21.9127  -51.4637 N.am      18 UNK        -0.5000 
    100 CA        -6.7027  -21.2317  -50.9101 C.3       18 UNK         0.1400 
    101 CB        -6.8000  -21.5218  -49.4043 C.3       18 UNK        -0.1800 
    102 C         -8.0242  -21.6056  -51.6103 C.2       18 UNK         0.5000 
    103 O         -8.8986  -20.7508  -51.7516 O.2       18 UNK        -0.5000 
    104 N         -8.1171  -22.8515  -52.0972 N.am      19 UNK        -0.5000 
    105 CA        -9.2293  -23.3653  -52.9019 C.3       19 UNK         0.1400 
    106 CB        -9.0555  -24.8827  -53.0678 C.3       19 UNK        -0.1800 
    107 C         -9.3656  -22.6849  -54.2815 C.2       19 UNK         0.5000 
    108 O        -10.4531  -22.7035  -54.8587 O.2       19 UNK        -0.5000 
    109 N         -8.2725  -22.0872  -54.7721 N.am      20 UNK        -0.5000 
    110 CA        -8.1939  -21.3130  -56.0095 C.3       20 UNK         0.1400 
    111 CB        -7.0425  -21.8791  -56.8599 C.3       20 UNK        -0.1800 
    112 C         -7.9900  -19.8115  -55.7173 C.2       20 UNK         0.5000 
    113 O         -7.5655  -19.0763  -56.6103 O.2       20 UNK        -0.5000 
    114 N         -8.2535  -19.3809  -54.4715 N.am      21 UNK        -0.5000 
    115 CA        -8.0889  -18.0180  -53.9482 C.3       21 UNK         0.1400 
    116 CB        -9.1430  -17.0750  -54.5642 C.3       21 UNK        -0.1800 
    117 C         -6.6462  -17.4802  -54.0856 C.2       21 UNK         0.5000 
    118 O         -6.4480  -16.2936  -54.3518 O.2       21 UNK        -0.5000 
    119 N         -5.6664  -18.3779  -53.9182 N.am      22 UNK        -0.5000 
    120 CA        -4.2270  -18.1675  -54.1402 C.3       22 UNK         0.1400 
    121 C         -3.8098  -18.0744  -55.6419 C.2       22 UNK         0.5000 
    122 N         -4.6892  -18.3235  -56.6058 N.am      22 UNK        -0.7600 
    123 O         -2.6527  -17.8025  -55.9474 O.2       22 UNK        -0.5000 
    124 C124       -3.6132  -17.0341  -53.2576 C.3       23 UNK        -0.0398 
    125 S125       -2.3424  -17.6250  -52.0884 S.3       23 UNK        -0.2404 
    126 C126       -0.8997  -17.8217  -53.1737 C.3       23 UNK        -0.0205 
    127 H127        8.7576  -17.6269  -48.2941 H         1 UNK         0.0600 
    128 H128        8.6281  -16.9822  -46.6542 H         1 UNK         0.0600 
    129 H129        8.8263  -15.8833  -48.0226 H         1 UNK         0.0600 
    130 H130        6.9247  -14.8513  -48.5252 H         1 UNK         0.3000 
    131 H131        4.4385  -16.2811  -48.9076 H         1 UNK         0.0600 
    132 H132        4.8326  -13.2657  -49.1801 H         1 UNK         0.0800 
    133 H133        5.4227  -14.3583  -50.3846 H         1 UNK         0.0800 
    134 H134        3.1119  -14.8272  -52.7224 H         1 UNK         0.0800 
    135 H135        4.3634  -15.6940  -51.8756 H         1 UNK         0.0800 
    136 H136        0.8852  -15.7817  -52.9708 H         1 UNK         0.1150 
    137 H137        0.2005  -19.7967  -51.6353 H         1 UNK         0.1150 
    138 H138        3.8186  -17.7616  -50.5570 H         1 UNK         0.1150 
    139 H139        1.7369  -20.8947  -50.1957 H         1 UNK         0.0800 
    140 H140        3.3483  -20.5862  -50.7761 H         1 UNK         0.0800 
    141 H141        1.9484  -18.4070  -46.9768 H         1 UNK         0.0800 
    142 H142        1.0205  -18.5037  -48.4349 H         1 UNK         0.0800 
    143 H143        1.3827  -21.0074  -46.7129 H         1 UNK         0.0600 
    144 H144        0.0780  -18.7261  -45.6679 H         1 UNK         0.3000 
    145 H145       -2.2875  -20.4326  -43.6077 H         1 UNK         0.0600 
    146 H146       -0.1335  -20.3841  -42.3322 H         1 UNK         0.0600 
    147 H147        0.1795  -18.7568  -42.9192 H         1 UNK         0.0600 
    148 H148       -1.2092  -19.0704  -41.8817 H         1 UNK         0.0600 
    149 H149       -1.6121  -17.6589  -44.1665 H         1 UNK         0.3000 
    150 H150       -3.9832  -17.2626  -46.8102 H         1 UNK         0.0600 
    151 H151       -5.4360  -17.1166  -44.7732 H         1 UNK         0.0600 
    152 H152       -4.9437  -15.5236  -45.3264 H         1 UNK         0.0600 
    153 H153       -4.1636  -16.2491  -43.9202 H         1 UNK         0.0600 
    154 H154       -2.3640  -15.4012  -45.3636 H         1 UNK         0.3000 
    155 H155        0.7530  -16.1074  -46.6671 H         1 UNK         0.0600 
    156 H156        0.8759  -13.9524  -47.8551 H         1 UNK         0.0600 
    157 H157       -0.8844  -13.8286  -47.8851 H         1 UNK         0.0600 
    158 H158       -0.0659  -15.0926  -48.7974 H         1 UNK         0.0600 
    159 H159        0.2217  -13.7028  -45.5573 H         1 UNK         0.3000 
    160 H160        1.4563  -14.1862  -43.0490 H         1 UNK         0.0600 
    161 H161       -1.0995  -12.5640  -43.5171 H         1 UNK         0.0600 
    162 H162        0.4996  -12.2656  -44.1852 H         1 UNK         0.0600 
    163 H163        0.2172  -12.0358  -42.4725 H         1 UNK         0.0600 
    164 H164        0.6885  -15.0353  -41.1915 H         1 UNK         0.3000 
    165 H165       -1.9846  -14.5018  -39.1909 H         1 UNK         0.0600 
    166 H166       -1.8478  -17.2734  -40.4938 H         1 UNK         0.0600 
    167 H167       -2.5058  -16.9218  -38.8953 H         1 UNK         0.0600 
    168 H168       -3.2974  -16.2921  -40.3304 H         1 UNK         0.0600 
    169 H169        0.0608  -16.5502  -39.1514 H         1 UNK         0.3000 
    170 H170        2.8101  -14.5859  -38.5196 H         1 UNK         0.0600 
    171 H171        1.8924  -14.2823  -36.2121 H         1 UNK         0.0600 
    172 H172        1.3497  -15.9558  -36.1969 H         1 UNK         0.0600 
    173 H173        3.0726  -15.5805  -36.2619 H         1 UNK         0.0600 
    174 H174        2.4497  -17.3232  -37.9423 H         1 UNK         0.3000 
    175 H175        3.7059  -18.7123  -39.5725 H         1 UNK         0.0600 
    176 H176        0.7404  -18.9765  -40.3463 H         1 UNK         0.0600 
    177 H177        1.8122  -20.3599  -40.1379 H         1 UNK         0.0600 
    178 H178        1.4480  -19.3174  -38.7766 H         1 UNK         0.0600 
    179 H179        2.9334  -17.8345  -42.1974 H         1 UNK         0.3000 
    180 H180        5.3865  -19.8350  -43.6496 H         1 UNK         0.0600 
    181 H181        2.4584  -20.3319  -44.3808 H         1 UNK         0.0600 
    182 H182        3.7131  -21.5331  -44.1488 H         1 UNK         0.0600 
    183 H183        3.8052  -20.4341  -45.5164 H         1 UNK         0.0600 
    184 H184        5.2486  -17.7422  -44.2693 H         1 UNK         0.3000 
    185 H185        2.6194  -15.4589  -45.0461 H         1 UNK         0.0600 
    186 H186        4.5193  -14.1360  -44.2531 H         1 UNK         0.0600 
    187 H187        4.0306  -15.2154  -42.9591 H         1 UNK         0.0600 
    188 H188        5.4664  -15.5789  -43.9121 H         1 UNK         0.0600 
    189 H189        4.6770  -16.8995  -46.5112 H         1 UNK         0.3000 
    190 H190       -1.4438  -19.1620  -47.9093 H         1 UNK         0.3000 
    191 H191       -2.0687  -20.6800  -50.1621 H         1 UNK         0.0600 
    192 H192       -4.2263  -19.5809  -50.0613 H         1 UNK         0.0600 
    193 H193       -3.0674  -18.4305  -49.4153 H         1 UNK         0.0600 
    194 H194       -4.1138  -19.3229  -48.3254 H         1 UNK         0.0600 
    195 H195       -3.1486  -21.1677  -46.7673 H         1 UNK         0.3000 
    196 H196       -4.7813  -23.4495  -47.2654 H         1 UNK         0.0600 
    197 H197       -4.6539  -23.7412  -44.7904 H         1 UNK         0.0600 
    198 H198       -4.9882  -22.0703  -45.2213 H         1 UNK         0.0600 
    199 H199       -3.3719  -22.5393  -44.7009 H         1 UNK         0.0600 
    200 H200       -1.3446  -23.1622  -46.2204 H         1 UNK         0.3000 
    201 H201       -0.8282  -25.9297  -45.9485 H         1 UNK         0.0600 
    202 H202        0.5895  -24.1832  -44.9262 H         1 UNK         0.0600 
    203 H203        1.0823  -23.6011  -46.5146 H         1 UNK         0.0600 
    204 H204        1.5692  -25.2022  -45.9695 H         1 UNK         0.0600 
    205 H205       -0.3497  -23.7448  -48.7539 H         1 UNK         0.3000 
    206 H206        0.7388  -25.7915  -50.4880 H         1 UNK         0.0600 
    207 H207        1.2736  -23.3712  -50.7333 H         1 UNK         0.0600 
    208 H208        0.5317  -23.9866  -52.2016 H         1 UNK         0.0600 
    209 H209       -0.4158  -23.0113  -51.0847 H         1 UNK         0.0600 
    210 H210       -2.4433  -25.0725  -49.4837 H         1 UNK         0.3000 
    211 H211       -4.5013  -25.6002  -50.0285 H         1 UNK         0.0600 
    212 H212       -3.4401  -27.6420  -52.0508 H         1 UNK         0.0600 
    213 H213       -5.0499  -27.5877  -51.3513 H         1 UNK         0.0600 
    214 H214       -3.6695  -27.9533  -50.3298 H         1 UNK         0.0600 
    215 H215       -2.9517  -23.5447  -51.4512 H         1 UNK         0.3000 
    216 H216       -4.1464  -23.2089  -54.1037 H         1 UNK         0.0600 
    217 H217       -2.7923  -21.1738  -54.1667 H         1 UNK         0.0600 
    218 H218       -1.7879  -22.4647  -53.5379 H         1 UNK         0.0600 
    219 H219       -2.4592  -21.2597  -52.4400 H         1 UNK         0.0600 
    220 H220       -4.9595  -22.4440  -50.8115 H         1 UNK         0.3000 
    221 H221       -6.5570  -20.1581  -51.0456 H         1 UNK         0.0600 
    222 H222       -6.8344  -22.5929  -49.2015 H         1 UNK         0.0600 
    223 H223       -5.9526  -21.1051  -48.8628 H         1 UNK         0.0600 
    224 H224       -7.6992  -21.0769  -48.9758 H         1 UNK         0.0600 
    225 H225       -7.3400  -23.4806  -51.9533 H         1 UNK         0.3000 
    226 H226      -10.1556  -23.1821  -52.3534 H         1 UNK         0.0600 
    227 H227       -9.0388  -25.3864  -52.1011 H         1 UNK         0.0600 
    228 H228       -9.8779  -25.3112  -53.6422 H         1 UNK         0.0600 
    229 H229       -8.1283  -25.1258  -53.5888 H         1 UNK         0.0600 
    230 H230       -7.4251  -22.0846  -54.2148 H         1 UNK         0.3000 
    231 H231       -9.1196  -21.4050  -56.5804 H         1 UNK         0.0600 
    232 H232       -6.9848  -21.3813  -57.8286 H         1 UNK         0.0600 
    233 H233       -7.1816  -22.9429  -57.0524 H         1 UNK         0.0600 
    234 H234       -6.0782  -21.7512  -56.3661 H         1 UNK         0.0600 
    235 H235       -8.5819  -20.0606  -53.7963 H         1 UNK         0.3000 
    236 H236       -8.2866  -18.0778  -52.8770 H         1 UNK         0.0600 
    237 H237      -10.1500  -17.4712  -54.4334 H         1 UNK         0.0600 
    238 H238       -9.1179  -16.0942  -54.0882 H         1 UNK         0.0600 
    239 H239       -8.9775  -16.9252  -55.6316 H         1 UNK         0.0600 
    240 H240       -5.9242  -19.3475  -53.7555 H         1 UNK         0.3000 
    241 H241       -3.7887  -19.1102  -53.8183 H         1 UNK         0.0600 
    242 H242       -5.6583  -18.5442  -56.4039 H         1 UNK         0.3800 
    243 H243       -4.3880  -18.2671  -57.5654 H         1 UNK         0.3800 
    244 H244       -3.2004  -16.2201  -53.8560 H         1 UNK         0.0800 
    245 H245       -4.3808  -16.5614  -52.6448 H         1 UNK         0.0800 
    246 H246       -0.8975  -17.0313  -53.9258 H         1 UNK         0.0800 
    247 H247       -0.9848  -18.7628  -53.7190 H         1 UNK         0.0800 
@<TRIPOS>BOND
     1    1    2 1    
     2    1  127 1    
     3    1  128 1    
     4    1  129 1    
     5    2    3 2    
     6    2    4 am   BACKBONE|DICT|INTERRES
     7    4    5 1    
     8    4  130 1    
     9    5    6 1    
    10    5   65 1    
    11    5  131 1    
    12    6    7 1    
    13    6  132 1    
    14    6  133 1    
    15    7    8 1    
    16    8    9 1    
    17    8  134 1    
    18    8  135 1    
    19    9   10 ar   
    20    9   14 ar   
    21   10   11 ar   
    22   10  136 1    
    23   11   12 ar   
    24   11  126 1    
    25   12   13 ar   
    26   12  137 1    
    27   13   14 ar   
    28   13   15 1    
    29   14  138 1    
    30   15   16 1    
    31   15  139 1    
    32   15  140 1    
    33   16   17 1    
    34   17   18 1    
    35   17  141 1    
    36   17  142 1    
    37   18   19 1    
    38   18   67 1    
    39   18  143 1    
    40   19   20 am   BACKBONE|DICT|INTERRES
    41   19  144 1    
    42   20   21 2    
    43   20   22 1    
    44   22   23 1    
    45   22   24 1    
    46   22  145 1    
    47   23  146 1    
    48   23  147 1    
    49   23  148 1    
    50   24   25 am   BACKBONE|DICT|INTERRES
    51   24  149 1    
    52   25   26 2    
    53   25   27 1    
    54   27   28 1    
    55   27   29 1    
    56   27  150 1    
    57   28  151 1    
    58   28  152 1    
    59   28  153 1    
    60   29   30 am   BACKBONE|DICT|INTERRES
    61   29  154 1    
    62   30   31 2    
    63   30   32 1    
    64   32   33 1    
    65   32   34 1    
    66   32  155 1    
    67   33  156 1    
    68   33  157 1    
    69   33  158 1    
    70   34   35 am   BACKBONE|DICT|INTERRES
    71   34  159 1    
    72   35   36 2    
    73   35   37 1    
    74   37   38 1    
    75   37   39 1    
    76   37  160 1    
    77   38  161 1    
    78   38  162 1    
    79   38  163 1    
    80   39   40 am   BACKBONE|DICT|INTERRES
    81   39  164 1    
    82   40   41 2    
    83   40   42 1    
    84   42   43 1    
    85   42   44 1    
    86   42  165 1    
    87   43  166 1    
    88   43  167 1    
    89   43  168 1    
    90   44   45 am   BACKBONE|DICT|INTERRES
    91   44  169 1    
    92   45   46 2    
    93   45   47 1    
    94   47   48 1    
    95   47   49 1    
    96   47  170 1    
    97   48  171 1    
    98   48  172 1    
    99   48  173 1    
   100   49   50 am   BACKBONE|DICT|INTERRES
   101   49  174 1    
   102   50   51 2    
   103   50   52 1    
   104   52   53 1    
   105   52   54 1    
   106   52  175 1    
   107   53  176 1    
   108   53  177 1    
   109   53  178 1    
   110   54   55 am   BACKBONE|DICT|INTERRES
   111   54  179 1    
   112   55   56 2    
   113   55   57 1    
   114   57   58 1    
   115   57   59 1    
   116   57  180 1    
   117   58  181 1    
   118   58  182 1    
   119   58  183 1    
   120   59   60 am   BACKBONE|DICT|INTERRES
   121   59  184 1    
   122   60   61 2    
   123   60   62 1    
   124   62   63 1    
   125   62   64 1    
   126   62  185 1    
   127   63  186 1    
   128   63  187 1    
   129   63  188 1    
   130   64   65 am   BACKBONE|DICT|INTERRES
   131   64  189 1    
   132   65   66 2    
   133   67   68 2    
   134   67   69 am   BACKBONE|DICT|INTERRES
   135   69   70 1    
   136   69  190 1    
   137   70   71 1    
   138   70   72 1    
   139   70  191 1    
   140   71  192 1    
   141   71  193 1    
   142   71  194 1    
   143   72   73 2    
   144   72   74 am   BACKBONE|DICT|INTERRES
   145   74   75 1    
   146   74  195 1    
   147   75   76 1    
   148   75   77 1    
   149   75  196 1    
   150   76  197 1    
   151   76  198 1    
   152   76  199 1    
   153   77   78 2    
   154   77   79 am   BACKBONE|DICT|INTERRES
   155   79   80 1    
   156   79  200 1    
   157   80   81 1    
   158   80   82 1    
   159   80  201 1    
   160   81  202 1    
   161   81  203 1    
   162   81  204 1    
   163   82   83 2    
   164   82   84 am   BACKBONE|DICT|INTERRES
   165   84   85 1    
   166   84  205 1    
   167   85   86 1    
   168   85   87 1    
   169   85  206 1    
   170   86  207 1    
   171   86  208 1    
   172   86  209 1    
   173   87   88 2    
   174   87   89 am   BACKBONE|DICT|INTERRES
   175   89   90 1    
   176   89  210 1    
   177   90   91 1    
   178   90   92 1    
   179   90  211 1    
   180   91  212 1    
   181   91  213 1    
   182   91  214 1    
   183   92   93 2    
   184   92   94 am   BACKBONE|DICT|INTERRES
   185   94   95 1    
   186   94  215 1    
   187   95   96 1    
   188   95   97 1    
   189   95  216 1    
   190   96  217 1    
   191   96  218 1    
   192   96  219 1    
   193   97   98 2    
   194   97   99 am   BACKBONE|DICT|INTERRES
   195   99  100 1    
   196   99  220 1    
   197  100  101 1    
   198  100  102 1    
   199  100  221 1    
   200  101  222 1    
   201  101  223 1    
   202  101  224 1    
   203  102  103 2    
   204  102  104 am   BACKBONE|DICT|INTERRES
   205  104  105 1    
   206  104  225 1    
   207  105  106 1    
   208  105  107 1    
   209  105  226 1    
   210  106  227 1    
   211  106  228 1    
   212  106  229 1    
   213  107  108 2    
   214  107  109 am   BACKBONE|DICT|INTERRES
   215  109  110 1    
   216  109  230 1    
   217  110  111 1    
   218  110  112 1    
   219  110  231 1    
   220  111  232 1    
   221  111  233 1    
   222  111  234 1    
   223  112  113 2    
   224  112  114 am   BACKBONE|DICT|INTERRES
   225  114  115 1    
   226  114  235 1    
   227  115  116 1    
   228  115  117 1    
   229  115  236 1    
   230  116  237 1    
   231  116  238 1    
   232  116  239 1    
   233  117  118 2    
   234  117  119 am   BACKBONE|DICT|INTERRES
   235  119  120 1    
   236  119  240 1    
   237  120  121 1    
   238  120  124 1    
   239  120  241 1    
   240  121  122 am   BACKBONE|DICT|INTERRES
   241  121  123 2    
   242  122  242 1    
   243  122  243 1    
   244  124  125 1    
   245  124  244 1    
   246  124  245 1    
   247  125  126 1    
   248  126  246 1    
   249  126  247 1    
@<TRIPOS>SUBSTRUCTURE
     1 UNK         1 GROUP             0       ****    0 ROOT    
