@<TRIPOS>MOLECULE
3R540
247   249    1
SMALL
USER_CHARGES


@<TRIPOS>ATOM
      1 CA         -0.9511  -17.3056  -40.6082 C.3       0 UNK        -0.1800 
      2 C          -0.4254  -16.0910  -41.3601 C.2       0 UNK         0.5000 
      3 O           0.4445  -16.2461  -42.2144 O.2       0 UNK        -0.5000 
      4 N          -0.9547  -14.8993  -41.0406 N.am      1 UNK        -0.5000 
      5 CA         -0.6418  -13.5839  -41.6246 C.3       1 UNK         0.1400 
      6 C6         -1.5067  -13.2113  -42.8690 C.3       23 UNK        -0.0398 
      7 S7         -1.5638  -14.4501  -44.2155 S.3       23 UNK        -0.2404 
      8 C8         -3.3626  -14.6704  -44.4071 C.3       23 UNK        -0.0205 
      9 C9         -3.7102  -15.9848  -45.0888 C.ar      23 UNK        -0.0193 
     10 C10        -3.8186  -16.0635  -46.4805 C.ar      23 UNK        -0.1150 
     11 C11        -4.1574  -17.2718  -47.1007 C.ar      23 UNK        -0.0193 
     12 C12        -4.3974  -18.4027  -46.3134 C.ar      23 UNK        -0.1150 
     13 C13        -4.3053  -18.3344  -44.9191 C.ar      23 UNK        -0.0193 
     14 C14        -3.9613  -17.1210  -44.3156 C.ar      23 UNK        -0.1150 
     15 C15        -4.6247  -19.5606  -44.0700 C.3       23 UNK        -0.0205 
     16 S16        -3.3623  -19.9357  -42.8043 S.3       23 UNK        -0.2404 
     17 C17        -1.8156  -20.0644  -43.7680 C.3       23 UNK        -0.0398 
     18 CA         -1.8459  -21.0645  -44.9476 C.3       11 UNK         0.1400 
     19 N          -0.6581  -20.9271  -45.7886 N.am      11 UNK        -0.5000 
     20 C          -0.5138  -21.4842  -46.9982 C.2       10 UNK         0.5000 
     21 O          -1.3920  -22.1378  -47.5629 O.2       10 UNK        -0.5000 
     22 CA          0.8607  -21.3219  -47.6673 C.3       10 UNK         0.1400 
     23 CB          0.9299  -20.0138  -48.4651 C.3       10 UNK        -0.1800 
     24 N           1.9524  -21.3600  -46.6929 N.am      10 UNK        -0.5000 
     25 C           2.3424  -22.4683  -46.0481 C.2       9 UNK         0.5000 
     26 O           1.8403  -23.5773  -46.2312 O.2       9 UNK        -0.5000 
     27 CA          3.4484  -22.2971  -44.9904 C.3       9 UNK         0.1400 
     28 CB          4.8268  -22.1704  -45.6565 C.3       9 UNK        -0.1800 
     29 N           3.2233  -21.1461  -44.1133 N.am      9 UNK        -0.5000 
     30 C           2.1905  -21.0300  -43.2671 C.2       8 UNK         0.5000 
     31 O           1.3181  -21.8847  -43.1354 O.2       8 UNK        -0.5000 
     32 CA          2.0855  -19.7324  -42.4488 C.3       8 UNK         0.1400 
     33 CB          2.8083  -19.8842  -41.1027 C.3       8 UNK        -0.1800 
     34 N           2.5876  -18.5425  -43.1336 N.am      8 UNK        -0.5000 
     35 C           2.1269  -18.0577  -44.2944 C.2       7 UNK         0.5000 
     36 O           1.2987  -18.6404  -45.0025 O.2       7 UNK        -0.5000 
     37 CA          2.7051  -16.6865  -44.6939 C.3       7 UNK         0.1400 
     38 CB          4.2093  -16.7850  -45.0283 C.3       7 UNK        -0.1800 
     39 N           1.9136  -16.0275  -45.7392 N.am      7 UNK        -0.5000 
     40 C           1.8701  -16.2939  -47.0519 C.2       6 UNK         0.5000 
     41 O           2.6754  -17.0020  -47.6557 O.2       6 UNK        -0.5000 
     42 CA          0.6913  -15.6779  -47.8158 C.3       6 UNK         0.1400 
     43 CB         -0.6061  -16.3930  -47.3991 C.3       6 UNK        -0.1800 
     44 N           0.5764  -14.2338  -47.5937 N.am      6 UNK        -0.5000 
     45 C          -0.2060  -13.4202  -48.3199 C.2       5 UNK         0.5000 
     46 O          -0.8728  -13.7967  -49.2841 O.2       5 UNK        -0.5000 
     47 CA         -0.2599  -11.9350  -47.9242 C.3       5 UNK         0.1400 
     48 CB         -1.1055  -11.7325  -46.6575 C.3       5 UNK        -0.1800 
     49 N           1.0757  -11.3915  -47.6989 N.am      5 UNK        -0.5000 
     50 C           1.7039  -10.5218  -48.5019 C.2       4 UNK         0.5000 
     51 O           1.2103  -10.0569  -49.5303 O.2       4 UNK        -0.5000 
     52 CA          3.1269  -10.0860  -48.0903 C.3       4 UNK         0.1400 
     53 CB          3.0843   -8.7307  -47.3676 C.3       4 UNK        -0.1800 
     54 N           3.7999  -11.0583  -47.2283 N.am      4 UNK        -0.5000 
     55 C           4.2004  -12.2743  -47.6216 C.2       3 UNK         0.5000 
     56 O           4.1592  -12.6603  -48.7899 O.2       3 UNK        -0.5000 
     57 CA          4.6944  -13.2389  -46.5263 C.3       3 UNK         0.1400 
     58 CB          6.2276  -13.3316  -46.5381 C.3       3 UNK        -0.1800 
     59 N           4.2465  -12.9240  -45.1613 N.am      3 UNK        -0.5000 
     60 C           2.9729  -12.8771  -44.7499 C.2       2 UNK         0.5000 
     61 O           2.0057  -13.0121  -45.5042 O.2       2 UNK        -0.5000 
     62 CA          2.7345  -12.6086  -43.2596 C.3       2 UNK         0.1400 
     63 CB          2.9985  -11.1312  -42.9186 C.3       2 UNK        -0.1800 
     64 N           1.3495  -12.9454  -42.9482 N.am      2 UNK        -0.5000 
     65 C           0.8769  -13.3005  -41.7494 C.2       1 UNK         0.5000 
     66 O           1.5831  -13.3780  -40.7409 O.2       1 UNK        -0.5000 
     67 C          -2.0580  -22.5270  -44.4946 C.2       11 UNK         0.5000 
     68 O          -3.1659  -23.0456  -44.6322 O.2       11 UNK        -0.5000 
     69 N          -0.9882  -23.1909  -44.0307 N.am      12 UNK        -0.5000 
     70 CA         -0.9779  -24.6047  -43.6396 C.3       12 UNK         0.1400 
     71 CB          0.3654  -24.9451  -42.9774 C.3       12 UNK        -0.1800 
     72 C          -1.2561  -25.5626  -44.8131 C.2       12 UNK         0.5000 
     73 O          -1.8869  -26.6009  -44.6137 O.2       12 UNK        -0.5000 
     74 N          -0.8235  -25.1756  -46.0207 N.am      13 UNK        -0.5000 
     75 CA         -1.1300  -25.8542  -47.2815 C.3       13 UNK         0.1400 
     76 CB         -0.0884  -25.4380  -48.3332 C.3       13 UNK        -0.1800 
     77 C          -2.5598  -25.5793  -47.7965 C.2       13 UNK         0.5000 
     78 O          -2.9270  -26.1125  -48.8447 O.2       13 UNK        -0.5000 
     79 N          -3.3287  -24.7350  -47.0906 N.am      14 UNK        -0.5000 
     80 CA         -4.6884  -24.2910  -47.4070 C.3       14 UNK         0.1400 
     81 CB         -5.6859  -25.4618  -47.2828 C.3       14 UNK        -0.1800 
     82 C          -4.7616  -23.5760  -48.7687 C.2       14 UNK         0.5000 
     83 O          -5.6543  -23.8612  -49.5675 O.2       14 UNK        -0.5000 
     84 N          -3.7828  -22.6949  -49.0281 N.am      15 UNK        -0.5000 
     85 CA         -3.5775  -21.9642  -50.2830 C.3       15 UNK         0.1400 
     86 CB         -4.7524  -21.0023  -50.5416 C.3       15 UNK        -0.1800 
     87 C          -3.2889  -22.9113  -51.4691 C.2       15 UNK         0.5000 
     88 O          -3.7675  -22.6812  -52.5836 O.2       15 UNK        -0.5000 
     89 N          -2.5310  -23.9797  -51.1732 N.am      16 UNK        -0.5000 
     90 CA         -2.2336  -25.1413  -52.0172 C.3       16 UNK         0.1400 
     91 CB         -1.3730  -24.7392  -53.2309 C.3       16 UNK        -0.1800 
     92 C          -3.5233  -25.8862  -52.4106 C.2       16 UNK         0.5000 
     93 O          -3.7866  -26.0840  -53.5961 O.2       16 UNK        -0.5000 
     94 N          -4.3389  -26.2228  -51.4001 N.am      17 UNK        -0.5000 
     95 CA         -5.6927  -26.7842  -51.5133 C.3       17 UNK         0.1400 
     96 CB         -5.6282  -28.2533  -51.9780 C.3       17 UNK        -0.1800 
     97 C          -6.6198  -25.9111  -52.3912 C.2       17 UNK         0.5000 
     98 O          -7.3470  -26.4262  -53.2421 O.2       17 UNK        -0.5000 
     99 N          -6.5223  -24.5907  -52.1851 N.am      18 UNK        -0.5000 
    100 CA        -7.1680  -23.4938  -52.9112 C.3       18 UNK         0.1400 
    101 CB        -8.7007  -23.5637  -52.7559 C.3       18 UNK        -0.1800 
    102 C         -6.7405  -23.3302  -54.3874 C.2       18 UNK         0.5000 
    103 O         -7.3166  -22.4855  -55.0750 O.2       18 UNK        -0.5000 
    104 N         -5.7500  -24.0985  -54.8660 N.am      19 UNK        -0.5000 
    105 CA        -5.2992  -24.0616  -56.2590 C.3       19 UNK         0.1400 
    106 CB        -4.5763  -25.3700  -56.6117 C.3       19 UNK        -0.1800 
    107 C         -4.3992  -22.8532  -56.5680 C.2       19 UNK         0.5000 
    108 O         -4.4557  -22.3376  -57.6854 O.2       19 UNK        -0.5000 
    109 N         -3.5873  -22.4231  -55.5916 N.am      20 UNK        -0.5000 
    110 CA        -2.6890  -21.2746  -55.7354 C.3       20 UNK         0.1400 
    111 CB        -1.4104  -21.5102  -54.9159 C.3       20 UNK        -0.1800 
    112 C         -3.3572  -19.9606  -55.3038 C.2       20 UNK         0.5000 
    113 O         -2.9295  -18.8950  -55.7504 O.2       20 UNK        -0.5000 
    114 N         -4.3571  -20.0505  -54.4110 N.am      21 UNK        -0.5000 
    115 CA        -5.1146  -18.9375  -53.8164 C.3       21 UNK         0.1400 
    116 CB        -5.9960  -18.2584  -54.8844 C.3       21 UNK        -0.1800 
    117 C         -4.2264  -17.9277  -53.0484 C.2       21 UNK         0.5000 
    118 O         -4.5991  -16.7624  -52.9063 O.2       21 UNK        -0.5000 
    119 N         -3.0569  -18.4007  -52.5925 N.am      22 UNK        -0.5000 
    120 CA        -1.9567  -17.6247  -51.9960 C.3       22 UNK         0.1400 
    121 C         -1.2502  -16.6468  -52.9879 C.2       22 UNK         0.5000 
    122 N         -1.4264  -16.7804  -54.2984 N.am      22 UNK        -0.7600 
    123 O         -0.4938  -15.7739  -52.5725 O.2       22 UNK        -0.5000 
    124 C124       -2.3299  -16.9551  -50.6441 C.3       23 UNK        -0.0398 
    125 S125       -2.8637  -18.1730  -49.3872 S.3       23 UNK        -0.2404 
    126 C126       -4.2976  -17.3519  -48.6159 C.3       23 UNK        -0.0205 
    127 H127       -0.1369  -17.8000  -40.0785 H         1 UNK         0.0600 
    128 H128       -1.3834  -18.0182  -41.3102 H         1 UNK         0.0600 
    129 H129       -1.7181  -17.0354  -39.8821 H         1 UNK         0.0600 
    130 H130       -1.6451  -14.8726  -40.3041 H         1 UNK         0.3000 
    131 H131       -0.9513  -12.8809  -40.8494 H         1 UNK         0.0600 
    132 H132       -2.5249  -13.0351  -42.5219 H         1 UNK         0.0800 
    133 H133       -1.2029  -12.2510  -43.2882 H         1 UNK         0.0800 
    134 H134       -3.8461  -14.6420  -43.4296 H         1 UNK         0.0800 
    135 H135       -3.7679  -13.8316  -44.9747 H         1 UNK         0.0800 
    136 H136       -3.6349  -15.1831  -47.0802 H         1 UNK         0.1150 
    137 H137       -4.6686  -19.3333  -46.7923 H         1 UNK         0.1150 
    138 H138       -3.8939  -17.0595  -43.2385 H         1 UNK         0.1150 
    139 H139       -5.5747  -19.3861  -43.5635 H         1 UNK         0.0800 
    140 H140       -4.7790  -20.4419  -44.6940 H         1 UNK         0.0800 
    141 H141       -1.0152  -20.3243  -43.0757 H         1 UNK         0.0800 
    142 H142       -1.5742  -19.0658  -44.1373 H         1 UNK         0.0800 
    143 H143       -2.6887  -20.8046  -45.5889 H         1 UNK         0.0600 
    144 H144        0.1026  -20.3660  -45.4218 H         1 UNK         0.3000 
    145 H145        0.9887  -22.1511  -48.3660 H         1 UNK         0.0600 
    146 H146        1.8425  -19.9619  -49.0588 H         1 UNK         0.0600 
    147 H147        0.0862  -19.9208  -49.1507 H         1 UNK         0.0600 
    148 H148        0.9168  -19.1501  -47.8027 H         1 UNK         0.0600 
    149 H149        2.3727  -20.4751  -46.4454 H         1 UNK         0.3000 
    150 H150        3.4525  -23.1955  -44.3695 H         1 UNK         0.0600 
    151 H151        5.0243  -23.0220  -46.3090 H         1 UNK         0.0600 
    152 H152        5.6227  -22.1418  -44.9121 H         1 UNK         0.0600 
    153 H153        4.9020  -21.2672  -46.2633 H         1 UNK         0.0600 
    154 H154        3.8893  -20.3897  -44.1653 H         1 UNK         0.3000 
    155 H155        1.0282  -19.5593  -42.2421 H         1 UNK         0.0600 
    156 H156        2.4375  -20.7522  -40.5557 H         1 UNK         0.0600 
    157 H157        2.6488  -19.0114  -40.4690 H         1 UNK         0.0600 
    158 H158        3.8832  -20.0135  -41.2349 H         1 UNK         0.0600 
    159 H159        3.2606  -17.9934  -42.6195 H         1 UNK         0.3000 
    160 H160        2.6089  -16.0406  -43.8200 H         1 UNK         0.0600 
    161 H161        4.4075  -17.4636  -45.8575 H         1 UNK         0.0600 
    162 H162        4.7757  -17.1580  -44.1746 H         1 UNK         0.0600 
    163 H163        4.6293  -15.8139  -45.2743 H         1 UNK         0.0600 
    164 H164        1.1674  -15.4511  -45.3756 H         1 UNK         0.3000 
    165 H165        0.8593  -15.8482  -48.8814 H         1 UNK         0.0600 
    166 H166       -1.4684  -15.9919  -47.9254 H         1 UNK         0.0600 
    167 H167       -0.5608  -17.4573  -47.6224 H         1 UNK         0.0600 
    168 H168       -0.8018  -16.3005  -46.3316 H         1 UNK         0.0600 
    169 H169        1.1255  -13.8449  -46.8298 H         1 UNK         0.3000 
    170 H170       -0.7562  -11.4016  -48.7376 H         1 UNK         0.0600 
    171 H171       -2.0796  -12.2147  -46.7500 H         1 UNK         0.0600 
    172 H172       -0.6133  -12.1459  -45.7783 H         1 UNK         0.0600 
    173 H173       -1.2812  -10.6732  -46.4702 H         1 UNK         0.0600 
    174 H174        1.5703  -11.7583  -46.8930 H         1 UNK         0.3000 
    175 H175        3.7152   -9.9709  -49.0031 H         1 UNK         0.0600 
    176 H176        2.5187   -8.7888  -46.4367 H         1 UNK         0.0600 
    177 H177        4.0882   -8.3779  -47.1303 H         1 UNK         0.0600 
    178 H178        2.6129   -7.9700  -47.9913 H         1 UNK         0.0600 
    179 H179        3.8839  -10.8197  -46.2515 H         1 UNK         0.3000 
    180 H180        4.2904  -14.2171  -46.7906 H         1 UNK         0.0600 
    181 H181        6.6888  -12.3847  -46.2550 H         1 UNK         0.0600 
    182 H182        6.5974  -13.5935  -47.5305 H         1 UNK         0.0600 
    183 H183        6.5826  -14.0987  -45.8497 H         1 UNK         0.0600 
    184 H184        4.9795  -12.7771  -44.4821 H         1 UNK         0.3000 
    185 H185        3.4055  -13.2509  -42.6855 H         1 UNK         0.0600 
    186 H186        2.3460  -10.4660  -43.4859 H         1 UNK         0.0600 
    187 H187        2.8342  -10.9348  -41.8590 H         1 UNK         0.0600 
    188 H188        4.0288  -10.8511  -43.1408 H         1 UNK         0.0600 
    189 H189        0.7423  -12.9777  -43.7576 H         1 UNK         0.3000 
    190 H190       -0.1121  -22.6888  -43.8980 H         1 UNK         0.3000 
    191 H191       -1.7688  -24.7510  -42.9012 H         1 UNK         0.0600 
    192 H192        1.2023  -24.7699  -43.6547 H         1 UNK         0.0600 
    193 H193        0.5270  -24.3434  -42.0829 H         1 UNK         0.0600 
    194 H194        0.3998  -25.9923  -42.6743 H         1 UNK         0.0600 
    195 H195       -0.2605  -24.3362  -46.0855 H         1 UNK         0.3000 
    196 H196       -1.0440  -26.9315  -47.1273 H         1 UNK         0.0600 
    197 H197        0.9244  -25.6486  -47.9893 H         1 UNK         0.0600 
    198 H198       -0.1489  -24.3742  -48.5617 H         1 UNK         0.0600 
    199 H199       -0.2308  -25.9837  -49.2666 H         1 UNK         0.0600 
    200 H200       -2.9359  -24.3195  -46.2540 H         1 UNK         0.3000 
    201 H201       -4.9568  -23.5462  -46.6568 H         1 UNK         0.0600 
    202 H202       -6.7121  -25.1156  -47.4109 H         1 UNK         0.0600 
    203 H203       -5.6219  -25.9289  -46.3001 H         1 UNK         0.0600 
    204 H204       -5.5055  -26.2327  -48.0322 H         1 UNK         0.0600 
    205 H205       -3.0552  -22.5551  -48.3294 H         1 UNK         0.3000 
    206 H206       -2.6791  -21.3608  -50.1453 H         1 UNK         0.0600 
    207 H207       -4.9329  -20.3617  -49.6791 H         1 UNK         0.0600 
    208 H208       -5.6796  -21.5287  -50.7597 H         1 UNK         0.0600 
    209 H209       -4.5358  -20.3555  -51.3855 H         1 UNK         0.0600 
    210 H210       -2.2387  -24.0714  -50.2112 H         1 UNK         0.3000 
    211 H211       -1.6469  -25.8298  -51.4078 H         1 UNK         0.0600 
    212 H212       -0.4997  -24.1624  -52.9266 H         1 UNK         0.0600 
    213 H213       -1.0142  -25.6227  -53.7597 H         1 UNK         0.0600 
    214 H214       -1.9390  -24.1450  -53.9462 H         1 UNK         0.0600 
    215 H215       -4.0142  -26.0400  -50.4540 H         1 UNK         0.3000 
    216 H216       -6.1182  -26.7700  -50.5090 H         1 UNK         0.0600 
    217 H217       -6.6171  -28.7127  -51.9604 H         1 UNK         0.0600 
    218 H218       -5.2447  -28.3397  -52.9952 H         1 UNK         0.0600 
    219 H219       -4.9848  -28.8440  -51.3259 H         1 UNK         0.0600 
    220 H220       -5.9388  -24.2946  -51.4063 H         1 UNK         0.3000 
    221 H221       -6.8361  -22.5825  -52.4156 H         1 UNK         0.0600 
    222 H222       -9.1242  -24.4161  -53.2874 H         1 UNK         0.0600 
    223 H223       -8.9869  -23.6449  -51.7072 H         1 UNK         0.0600 
    224 H224       -9.1770  -22.6656  -53.1506 H         1 UNK         0.0600 
    225 H225       -5.2882  -24.7622  -54.2539 H         1 UNK         0.3000 
    226 H226       -6.1805  -23.9923  -56.9004 H         1 UNK         0.0600 
    227 H227       -5.1757  -26.2407  -56.3448 H         1 UNK         0.0600 
    228 H228       -4.3785  -25.4253  -57.6828 H         1 UNK         0.0600 
    229 H229       -3.6160  -25.4516  -56.1022 H         1 UNK         0.0600 
    230 H230       -3.6266  -22.8657  -54.6796 H         1 UNK         0.3000 
    231 H231       -2.3931  -21.1637  -56.7807 H         1 UNK         0.0600 
    232 H232       -0.7228  -20.6692  -55.0156 H         1 UNK         0.0600 
    233 H233       -0.8815  -22.3986  -55.2607 H         1 UNK         0.0600 
    234 H234       -1.6223  -21.6329  -53.8539 H         1 UNK         0.0600 
    235 H235       -4.5976  -20.9750  -54.0787 H         1 UNK         0.3000 
    236 H236       -5.7861  -19.3790  -53.0794 H         1 UNK         0.0600 
    237 H237       -6.6128  -18.9896  -55.4073 H         1 UNK         0.0600 
    238 H238       -6.6711  -17.5313  -54.4319 H         1 UNK         0.0600 
    239 H239       -5.3979  -17.7306  -55.6277 H         1 UNK         0.0600 
    240 H240       -2.8505  -19.3710  -52.7725 H         1 UNK         0.3000 
    241 H241       -1.1859  -18.3630  -51.7722 H         1 UNK         0.0600 
    242 H242       -0.9511  -16.1484  -54.9226 H         1 UNK         0.3800 
    243 H243       -2.0253  -17.5034  -54.6846 H         1 UNK         0.3800 
    244 H244       -1.4683  -16.4267  -50.2350 H         1 UNK         0.0800 
    245 H245       -3.0971  -16.1969  -50.7993 H         1 UNK         0.0800 
    246 H246       -5.1997  -17.9100  -48.8696 H         1 UNK         0.0800 
    247 H247       -4.4400  -16.3519  -49.0262 H         1 UNK         0.0800 
@<TRIPOS>BOND
     1    1    2 1    
     2    1  127 1    
     3    1  128 1    
     4    1  129 1    
     5    2    3 2    
     6    2    4 am   BACKBONE|DICT|INTERRES
     7    4    5 1    
     8    4  130 1    
     9    5    6 1    
    10    5   65 1    
    11    5  131 1    
    12    6    7 1    
    13    6  132 1    
    14    6  133 1    
    15    7    8 1    
    16    8    9 1    
    17    8  134 1    
    18    8  135 1    
    19    9   10 ar   
    20    9   14 ar   
    21   10   11 ar   
    22   10  136 1    
    23   11   12 ar   
    24   11  126 1    
    25   12   13 ar   
    26   12  137 1    
    27   13   14 ar   
    28   13   15 1    
    29   14  138 1    
    30   15   16 1    
    31   15  139 1    
    32   15  140 1    
    33   16   17 1    
    34   17   18 1    
    35   17  141 1    
    36   17  142 1    
    37   18   19 1    
    38   18   67 1    
    39   18  143 1    
    40   19   20 am   BACKBONE|DICT|INTERRES
    41   19  144 1    
    42   20   21 2    
    43   20   22 1    
    44   22   23 1    
    45   22   24 1    
    46   22  145 1    
    47   23  146 1    
    48   23  147 1    
    49   23  148 1    
    50   24   25 am   BACKBONE|DICT|INTERRES
    51   24  149 1    
    52   25   26 2    
    53   25   27 1    
    54   27   28 1    
    55   27   29 1    
    56   27  150 1    
    57   28  151 1    
    58   28  152 1    
    59   28  153 1    
    60   29   30 am   BACKBONE|DICT|INTERRES
    61   29  154 1    
    62   30   31 2    
    63   30   32 1    
    64   32   33 1    
    65   32   34 1    
    66   32  155 1    
    67   33  156 1    
    68   33  157 1    
    69   33  158 1    
    70   34   35 am   BACKBONE|DICT|INTERRES
    71   34  159 1    
    72   35   36 2    
    73   35   37 1    
    74   37   38 1    
    75   37   39 1    
    76   37  160 1    
    77   38  161 1    
    78   38  162 1    
    79   38  163 1    
    80   39   40 am   BACKBONE|DICT|INTERRES
    81   39  164 1    
    82   40   41 2    
    83   40   42 1    
    84   42   43 1    
    85   42   44 1    
    86   42  165 1    
    87   43  166 1    
    88   43  167 1    
    89   43  168 1    
    90   44   45 am   BACKBONE|DICT|INTERRES
    91   44  169 1    
    92   45   46 2    
    93   45   47 1    
    94   47   48 1    
    95   47   49 1    
    96   47  170 1    
    97   48  171 1    
    98   48  172 1    
    99   48  173 1    
   100   49   50 am   BACKBONE|DICT|INTERRES
   101   49  174 1    
   102   50   51 2    
   103   50   52 1    
   104   52   53 1    
   105   52   54 1    
   106   52  175 1    
   107   53  176 1    
   108   53  177 1    
   109   53  178 1    
   110   54   55 am   BACKBONE|DICT|INTERRES
   111   54  179 1    
   112   55   56 2    
   113   55   57 1    
   114   57   58 1    
   115   57   59 1    
   116   57  180 1    
   117   58  181 1    
   118   58  182 1    
   119   58  183 1    
   120   59   60 am   BACKBONE|DICT|INTERRES
   121   59  184 1    
   122   60   61 2    
   123   60   62 1    
   124   62   63 1    
   125   62   64 1    
   126   62  185 1    
   127   63  186 1    
   128   63  187 1    
   129   63  188 1    
   130   64   65 am   BACKBONE|DICT|INTERRES
   131   64  189 1    
   132   65   66 2    
   133   67   68 2    
   134   67   69 am   BACKBONE|DICT|INTERRES
   135   69   70 1    
   136   69  190 1    
   137   70   71 1    
   138   70   72 1    
   139   70  191 1    
   140   71  192 1    
   141   71  193 1    
   142   71  194 1    
   143   72   73 2    
   144   72   74 am   BACKBONE|DICT|INTERRES
   145   74   75 1    
   146   74  195 1    
   147   75   76 1    
   148   75   77 1    
   149   75  196 1    
   150   76  197 1    
   151   76  198 1    
   152   76  199 1    
   153   77   78 2    
   154   77   79 am   BACKBONE|DICT|INTERRES
   155   79   80 1    
   156   79  200 1    
   157   80   81 1    
   158   80   82 1    
   159   80  201 1    
   160   81  202 1    
   161   81  203 1    
   162   81  204 1    
   163   82   83 2    
   164   82   84 am   BACKBONE|DICT|INTERRES
   165   84   85 1    
   166   84  205 1    
   167   85   86 1    
   168   85   87 1    
   169   85  206 1    
   170   86  207 1    
   171   86  208 1    
   172   86  209 1    
   173   87   88 2    
   174   87   89 am   BACKBONE|DICT|INTERRES
   175   89   90 1    
   176   89  210 1    
   177   90   91 1    
   178   90   92 1    
   179   90  211 1    
   180   91  212 1    
   181   91  213 1    
   182   91  214 1    
   183   92   93 2    
   184   92   94 am   BACKBONE|DICT|INTERRES
   185   94   95 1    
   186   94  215 1    
   187   95   96 1    
   188   95   97 1    
   189   95  216 1    
   190   96  217 1    
   191   96  218 1    
   192   96  219 1    
   193   97   98 2    
   194   97   99 am   BACKBONE|DICT|INTERRES
   195   99  100 1    
   196   99  220 1    
   197  100  101 1    
   198  100  102 1    
   199  100  221 1    
   200  101  222 1    
   201  101  223 1    
   202  101  224 1    
   203  102  103 2    
   204  102  104 am   BACKBONE|DICT|INTERRES
   205  104  105 1    
   206  104  225 1    
   207  105  106 1    
   208  105  107 1    
   209  105  226 1    
   210  106  227 1    
   211  106  228 1    
   212  106  229 1    
   213  107  108 2    
   214  107  109 am   BACKBONE|DICT|INTERRES
   215  109  110 1    
   216  109  230 1    
   217  110  111 1    
   218  110  112 1    
   219  110  231 1    
   220  111  232 1    
   221  111  233 1    
   222  111  234 1    
   223  112  113 2    
   224  112  114 am   BACKBONE|DICT|INTERRES
   225  114  115 1    
   226  114  235 1    
   227  115  116 1    
   228  115  117 1    
   229  115  236 1    
   230  116  237 1    
   231  116  238 1    
   232  116  239 1    
   233  117  118 2    
   234  117  119 am   BACKBONE|DICT|INTERRES
   235  119  120 1    
   236  119  240 1    
   237  120  121 1    
   238  120  124 1    
   239  120  241 1    
   240  121  122 am   BACKBONE|DICT|INTERRES
   241  121  123 2    
   242  122  242 1    
   243  122  243 1    
   244  124  125 1    
   245  124  244 1    
   246  124  245 1    
   247  125  126 1    
   248  126  246 1    
   249  126  247 1    
@<TRIPOS>SUBSTRUCTURE
     1 UNK         1 GROUP             0       ****    0 ROOT    
