@<TRIPOS>MOLECULE
3R540
247   249    1
SMALL
USER_CHARGES


@<TRIPOS>ATOM
      1 CA          2.8803  -13.6048  -53.3946 C.3       0 UNK        -0.1800 
      2 C           2.6422  -14.2353  -52.0295 C.2       0 UNK         0.5000 
      3 O           3.2582  -15.2524  -51.7110 O.2       0 UNK        -0.5000 
      4 N           1.7452  -13.6412  -51.2326 N.am      1 UNK        -0.5000 
      5 CA          1.4077  -14.0847  -49.8767 C.3       1 UNK         0.1400 
      6 C6          0.0520  -13.4884  -49.4136 C.3       23 UNK        -0.0398 
      7 S7         -0.8071  -14.5517  -48.2006 S.3       23 UNK        -0.2404 
      8 C8         -1.9537  -15.4826  -49.2698 C.3       23 UNK        -0.0205 
      9 C9         -1.2148  -16.4553  -50.1760 C.ar      23 UNK        -0.0193 
     10 C10        -0.8966  -16.0962  -51.4906 C.ar      23 UNK        -0.1150 
     11 C11        -0.1961  -16.9800  -52.3150 C.ar      23 UNK        -0.0193 
     12 C12         0.1710  -18.2331  -51.8205 C.ar      23 UNK        -0.1150 
     13 C13        -0.1821  -18.6229  -50.5270 C.ar      23 UNK        -0.0193 
     14 C14        -0.8589  -17.7217  -49.7008 C.ar      23 UNK        -0.1150 
     15 C15         0.0966  -20.0449  -50.0667 C.3       23 UNK        -0.0205 
     16 S16         1.6312  -20.1957  -49.0978 S.3       23 UNK        -0.2404 
     17 C17         0.9959  -20.1926  -47.3876 C.3       23 UNK        -0.0398 
     18 CA          0.7246  -21.6179  -46.8349 C.3       11 UNK         0.1400 
     19 N           0.7227  -21.6506  -45.3701 N.am      11 UNK        -0.5000 
     20 C           0.5991  -22.7551  -44.6184 C.2       10 UNK         0.5000 
     21 O           0.5524  -23.8969  -45.0771 O.2       10 UNK        -0.5000 
     22 CA          0.4366  -22.5420  -43.1016 C.3       10 UNK         0.1400 
     23 CB          1.7954  -22.3039  -42.4268 C.3       10 UNK        -0.1800 
     24 N          -0.4753  -21.4392  -42.7890 N.am      10 UNK        -0.5000 
     25 C          -1.7801  -21.4304  -43.1002 C.2       9 UNK         0.5000 
     26 O          -2.3621  -22.3801  -43.6248 O.2       9 UNK        -0.5000 
     27 CA         -2.5558  -20.1290  -42.8268 C.3       9 UNK         0.1400 
     28 CB         -2.9645  -20.0363  -41.3494 C.3       9 UNK        -0.1800 
     29 N          -1.8066  -18.9325  -43.2155 N.am      9 UNK        -0.5000 
     30 C          -1.4464  -18.6400  -44.4743 C.2       8 UNK         0.5000 
     31 O          -1.7568  -19.3242  -45.4473 O.2       8 UNK        -0.5000 
     32 CA         -0.5370  -17.4162  -44.6816 C.3       8 UNK         0.1400 
     33 CB         -1.3552  -16.1177  -44.7121 C.3       8 UNK        -0.1800 
     34 N           0.5056  -17.3208  -43.6614 N.am      8 UNK        -0.5000 
     35 C           1.4829  -18.2201  -43.4832 C.2       7 UNK         0.5000 
     36 O           1.6450  -19.2016  -44.2062 O.2       7 UNK        -0.5000 
     37 CA          2.3969  -18.0219  -42.2627 C.3       7 UNK         0.1400 
     38 CB          3.5046  -17.0019  -42.5521 C.3       7 UNK        -0.1800 
     39 N           1.6449  -17.6017  -41.0832 N.am      7 UNK        -0.5000 
     40 C           0.8195  -18.4006  -40.3947 C.2       6 UNK         0.5000 
     41 O           0.6167  -19.5820  -40.6766 O.2       6 UNK        -0.5000 
     42 CA          0.0726  -17.7561  -39.2136 C.3       6 UNK         0.1400 
     43 CB          0.9542  -17.7434  -37.9560 C.3       6 UNK        -0.1800 
     44 N          -0.3761  -16.3933  -39.5076 N.am      6 UNK        -0.5000 
     45 C          -1.3259  -16.0960  -40.4044 C.2       5 UNK         0.5000 
     46 O          -1.9142  -16.9374  -41.0824 O.2       5 UNK        -0.5000 
     47 CA         -1.6465  -14.6048  -40.6047 C.3       5 UNK         0.1400 
     48 CB         -2.5677  -14.0935  -39.4866 C.3       5 UNK        -0.1800 
     49 N          -0.4660  -13.7396  -40.6994 N.am      5 UNK        -0.5000 
     50 C           0.4961  -13.8610  -41.6224 C.2       4 UNK         0.5000 
     51 O           0.5837  -14.8071  -42.4077 O.2       4 UNK        -0.5000 
     52 CA          1.5273  -12.7327  -41.7106 C.3       4 UNK         0.1400 
     53 CB          2.8574  -13.1334  -41.0533 C.3       4 UNK        -0.1800 
     54 N           1.7280  -12.4678  -43.1295 N.am      4 UNK        -0.5000 
     55 C           1.9497  -11.2728  -43.6849 C.2       3 UNK         0.5000 
     56 O           2.1288  -10.2438  -43.0305 O.2       3 UNK        -0.5000 
     57 CA          1.9230  -11.2137  -45.2293 C.3       3 UNK         0.1400 
     58 CB          2.7628  -10.0519  -45.8012 C.3       3 UNK        -0.1800 
     59 N           2.2639  -12.4826  -45.8879 N.am      3 UNK        -0.5000 
     60 C           3.4451  -13.1201  -45.8631 C.2       2 UNK         0.5000 
     61 O           4.4228  -12.7350  -45.2214 O.2       2 UNK        -0.5000 
     62 CA          3.5589  -14.4140  -46.6961 C.3       2 UNK         0.1400 
     63 CB          3.4343  -15.6446  -45.7882 C.3       2 UNK        -0.1800 
     64 N           2.5698  -14.5270  -47.7703 N.am      2 UNK        -0.5000 
     65 C           2.5425  -13.7733  -48.8767 C.2       1 UNK         0.5000 
     66 O           3.3419  -12.8611  -49.1039 O.2       1 UNK        -0.5000 
     67 C          -0.5792  -22.2098  -47.4084 C.2       11 UNK         0.5000 
     68 O          -0.5225  -23.0766  -48.2792 O.2       11 UNK        -0.5000 
     69 N          -1.7276  -21.7522  -46.8913 N.am      12 UNK        -0.5000 
     70 CA         -3.0595  -22.1982  -47.2919 C.3       12 UNK         0.1400 
     71 CB         -4.1265  -21.3448  -46.5905 C.3       12 UNK        -0.1800 
     72 C          -3.3020  -23.6953  -47.0477 C.2       12 UNK         0.5000 
     73 O          -3.8273  -24.3733  -47.9324 O.2       12 UNK        -0.5000 
     74 N          -2.8779  -24.1841  -45.8745 N.am      13 UNK        -0.5000 
     75 CA         -2.9354  -25.5938  -45.4896 C.3       13 UNK         0.1400 
     76 CB         -2.5368  -25.7343  -44.0127 C.3       13 UNK        -0.1800 
     77 C          -2.0600  -26.4966  -46.3784 C.2       13 UNK         0.5000 
     78 O          -2.4745  -27.6108  -46.6998 O.2       13 UNK        -0.5000 
     79 N          -0.8789  -25.9984  -46.7701 N.am      14 UNK        -0.5000 
     80 CA          0.0329  -26.6742  -47.6918 C.3       14 UNK         0.1400 
     81 CB          1.4191  -26.0151  -47.6179 C.3       14 UNK        -0.1800 
     82 C          -0.4939  -26.6871  -49.1393 C.2       14 UNK         0.5000 
     83 O          -0.3727  -27.7090  -49.8160 O.2       14 UNK        -0.5000 
     84 N          -1.0590  -25.5569  -49.5863 N.am      15 UNK        -0.5000 
     85 CA         -1.6117  -25.3687  -50.9263 C.3       15 UNK         0.1400 
     86 CB         -1.8854  -23.8762  -51.1656 C.3       15 UNK        -0.1800 
     87 C          -2.8784  -26.2056  -51.1745 C.2       15 UNK         0.5000 
     88 O          -2.9110  -26.9743  -52.1362 O.2       15 UNK        -0.5000 
     89 N          -3.8869  -26.0360  -50.3035 N.am      16 UNK        -0.5000 
     90 CA         -5.1879  -26.7201  -50.3085 C.3       16 UNK         0.1400 
     91 CB         -5.0124  -28.1811  -49.8465 C.3       16 UNK        -0.1800 
     92 C          -5.9612  -26.5998  -51.6455 C.2       16 UNK         0.5000 
     93 O          -6.5936  -27.5611  -52.0882 O.2       16 UNK        -0.5000 
     94 N          -5.8873  -25.4197  -52.2703 N.am      17 UNK        -0.5000 
     95 CA         -6.4602  -25.0794  -53.5721 C.3       17 UNK         0.1400 
     96 CB         -5.6031  -25.7004  -54.6950 C.3       17 UNK        -0.1800 
     97 C          -6.5240  -23.5458  -53.6831 C.2       17 UNK         0.5000 
     98 O          -6.2315  -22.8588  -52.7037 O.2       17 UNK        -0.5000 
     99 N          -6.8470  -23.0125  -54.8717 N.am      18 UNK        -0.5000 
    100 CA        -6.8622  -21.5690  -55.1704 C.3       18 UNK         0.1400 
    101 CB        -7.3316  -21.3563  -56.6168 C.3       18 UNK        -0.1800 
    102 C         -5.5068  -20.8644  -54.9362 C.2       18 UNK         0.5000 
    103 O         -5.4719  -19.6777  -54.6019 O.2       18 UNK        -0.5000 
    104 N         -4.4162  -21.6371  -55.0320 N.am      19 UNK        -0.5000 
    105 CA        -3.0511  -21.2637  -54.6592 C.3       19 UNK         0.1400 
    106 CB        -2.1059  -22.4046  -55.0687 C.3       19 UNK        -0.1800 
    107 C         -2.8664  -20.9120  -53.1658 C.2       19 UNK         0.5000 
    108 O         -1.8113  -20.3984  -52.8103 O.2       19 UNK        -0.5000 
    109 N         -3.8746  -21.1734  -52.3191 N.am      20 UNK        -0.5000 
    110 CA        -3.9381  -20.7286  -50.9260 C.3       20 UNK         0.1400 
    111 CB        -5.0765  -21.4783  -50.2156 C.3       20 UNK        -0.1800 
    112 C         -4.1556  -19.2114  -50.7705 C.2       20 UNK         0.5000 
    113 O         -3.9157  -18.6870  -49.6832 O.2       20 UNK        -0.5000 
    114 N         -4.6389  -18.5485  -51.8291 N.am      21 UNK        -0.5000 
    115 CA        -4.8943  -17.1098  -51.8623 C.3       21 UNK         0.1400 
    116 CB        -6.4129  -16.8726  -51.8551 C.3       21 UNK        -0.1800 
    117 C         -4.2482  -16.4301  -53.0798 C.2       21 UNK         0.5000 
    118 O         -3.9409  -15.2407  -52.9952 O.2       21 UNK        -0.5000 
    119 N         -4.0710  -17.1709  -54.1849 N.am      22 UNK        -0.5000 
    120 CA        -3.5506  -16.6833  -55.4765 C.3       22 UNK         0.1400 
    121 C         -4.5136  -15.7091  -56.2267 C.2       22 UNK         0.5000 
    122 N         -5.8002  -15.6693  -55.9005 N.am      22 UNK        -0.7600 
    123 O         -4.1043  -14.9999  -57.1423 O.2       22 UNK        -0.5000 
    124 C124       -2.0902  -16.1466  -55.4011 C.3       23 UNK        -0.0398 
    125 S125       -0.8804  -17.4406  -54.9626 S.3       23 UNK        -0.2404 
    126 C126        0.1755  -16.5975  -53.7386 C.3       23 UNK        -0.0205 
    127 H127        2.2455  -12.7330  -53.5556 H         1 UNK         0.0600 
    128 H128        2.6705  -14.3276  -54.1832 H         1 UNK         0.0600 
    129 H129        3.9200  -13.2905  -53.4862 H         1 UNK         0.0600 
    130 H130        1.3084  -12.7835  -51.5370 H         1 UNK         0.3000 
    131 H131        1.3119  -15.1716  -49.9225 H         1 UNK         0.0600 
    132 H132       -0.6146  -13.3492  -50.2655 H         1 UNK         0.0800 
    133 H133        0.1799  -12.4918  -48.9866 H         1 UNK         0.0800 
    134 H134       -2.5579  -14.7910  -49.8591 H         1 UNK         0.0800 
    135 H135       -2.6539  -16.0348  -48.6408 H         1 UNK         0.0800 
    136 H136       -1.1865  -15.1267  -51.8700 H         1 UNK         0.1150 
    137 H137        0.6881  -18.9286  -52.4665 H         1 UNK         0.1150 
    138 H138       -1.1391  -18.0150  -48.6990 H         1 UNK         0.1150 
    139 H139       -0.7612  -20.4104  -49.5044 H         1 UNK         0.0800 
    140 H140        0.1761  -20.7035  -50.9329 H         1 UNK         0.0800 
    141 H141        0.1178  -19.5508  -47.3126 H         1 UNK         0.0800 
    142 H142        1.7649  -19.7082  -46.7853 H         1 UNK         0.0800 
    143 H143        1.5439  -22.2674  -47.1509 H         1 UNK         0.0600 
    144 H144        0.8159  -20.7545  -44.8989 H         1 UNK         0.3000 
    145 H145        0.0083  -23.4554  -42.6837 H         1 UNK         0.0600 
    146 H146        1.6876  -22.2158  -41.3455 H         1 UNK         0.0600 
    147 H147        2.4766  -23.1334  -42.6199 H         1 UNK         0.0600 
    148 H148        2.2749  -21.3949  -42.7890 H         1 UNK         0.0600 
    149 H149       -0.0780  -20.6373  -42.3114 H         1 UNK         0.3000 
    150 H150       -3.4683  -20.1566  -43.4254 H         1 UNK         0.0600 
    151 H151       -3.5294  -20.9180  -41.0442 H         1 UNK         0.0600 
    152 H152       -3.5979  -19.1673  -41.1706 H         1 UNK         0.0600 
    153 H153       -2.0972  -19.9582  -40.6939 H         1 UNK         0.0600 
    154 H154       -1.5651  -18.2854  -42.4709 H         1 UNK         0.3000 
    155 H155       -0.0456  -17.5269  -45.6505 H         1 UNK         0.0600 
    156 H156       -1.8517  -15.9317  -43.7593 H         1 UNK         0.0600 
    157 H157       -2.1245  -16.1592  -45.4843 H         1 UNK         0.0600 
    158 H158       -0.7210  -15.2587  -44.9320 H         1 UNK         0.0600 
    159 H159        0.4675  -16.5074  -43.0505 H         1 UNK         0.3000 
    160 H160        2.8720  -18.9801  -42.0413 H         1 UNK         0.0600 
    161 H161        3.0952  -16.0278  -42.8198 H         1 UNK         0.0600 
    162 H162        4.1315  -17.3408  -43.3772 H         1 UNK         0.0600 
    163 H163        4.1544  -16.8670  -41.6874 H         1 UNK         0.0600 
    164 H164        1.7113  -16.6299  -40.8201 H         1 UNK         0.3000 
    165 H165       -0.8084  -18.3672  -39.0054 H         1 UNK         0.0600 
    166 H166        0.4063  -17.3610  -37.0946 H         1 UNK         0.0600 
    167 H167        1.2901  -18.7505  -37.7052 H         1 UNK         0.0600 
    168 H168        1.8425  -17.1250  -38.0909 H         1 UNK         0.0600 
    169 H169        0.0657  -15.6408  -39.0001 H         1 UNK         0.3000 
    170 H170       -2.1870  -14.5174  -41.5496 H         1 UNK         0.0600 
    171 H171       -3.4621  -14.7127  -39.4031 H         1 UNK         0.0600 
    172 H172       -2.0697  -14.1036  -38.5163 H         1 UNK         0.0600 
    173 H173       -2.8988  -13.0737  -39.6835 H         1 UNK         0.0600 
    174 H174       -0.4517  -12.9386  -40.0845 H         1 UNK         0.3000 
    175 H175        1.1271  -11.8451  -41.2159 H         1 UNK         0.0600 
    176 H176        3.2959  -14.0102  -41.5297 H         1 UNK         0.0600 
    177 H177        3.5843  -12.3235  -41.1162 H         1 UNK         0.0600 
    178 H178        2.7178  -13.3654  -39.9969 H         1 UNK         0.0600 
    179 H179        1.5521  -13.2643  -43.7278 H         1 UNK         0.3000 
    180 H180        0.8831  -11.0166  -45.4936 H         1 UNK         0.0600 
    181 H181        3.8110  -10.1274  -45.5109 H         1 UNK         0.0600 
    182 H182        2.3948   -9.0893  -45.4444 H         1 UNK         0.0600 
    183 H183        2.7168  -10.0313  -46.8902 H         1 UNK         0.0600 
    184 H184        1.5254  -12.9016  -46.4346 H         1 UNK         0.3000 
    185 H185        4.5517  -14.4235  -47.1508 H         1 UNK         0.0600 
    186 H186        3.5588  -16.5707  -46.3499 H         1 UNK         0.0600 
    187 H187        4.2069  -15.6266  -45.0195 H         1 UNK         0.0600 
    188 H188        2.4654  -15.6809  -45.2881 H         1 UNK         0.0600 
    189 H189        1.8645  -15.2411  -47.6550 H         1 UNK         0.3000 
    190 H190       -1.6936  -20.9994  -46.2068 H         1 UNK         0.3000 
    191 H191       -3.1340  -22.0339  -48.3649 H         1 UNK         0.0600 
    192 H192       -4.0360  -21.3973  -45.5061 H         1 UNK         0.0600 
    193 H193       -5.1319  -21.6793  -46.8482 H         1 UNK         0.0600 
    194 H194       -4.0450  -20.2975  -46.8830 H         1 UNK         0.0600 
    195 H195       -2.4981  -23.5395  -45.1864 H         1 UNK         0.3000 
    196 H196       -3.9700  -25.9259  -45.5973 H         1 UNK         0.0600 
    197 H197       -2.5873  -26.7751  -43.6907 H         1 UNK         0.0600 
    198 H198       -3.2039  -25.1611  -43.3686 H         1 UNK         0.0600 
    199 H199       -1.5196  -25.3831  -43.8359 H         1 UNK         0.0600 
    200 H200       -0.5897  -25.0899  -46.4248 H         1 UNK         0.3000 
    201 H201        0.1382  -27.7115  -47.3669 H         1 UNK         0.0600 
    202 H202        1.8258  -26.0673  -46.6079 H         1 UNK         0.0600 
    203 H203        1.3846  -24.9649  -47.9085 H         1 UNK         0.0600 
    204 H204        2.1256  -26.5164  -48.2804 H         1 UNK         0.0600 
    205 H205       -1.0517  -24.7396  -48.9810 H         1 UNK         0.3000 
    206 H206       -0.8571  -25.6885  -51.6480 H         1 UNK         0.0600 
    207 H207       -0.9641  -23.2941  -51.1347 H         1 UNK         0.0600 
    208 H208       -2.3396  -23.7166  -52.1431 H         1 UNK         0.0600 
    209 H209       -2.5618  -23.4658  -50.4164 H         1 UNK         0.0600 
    210 H210       -3.7487  -25.3897  -49.5292 H         1 UNK         0.3000 
    211 H211       -5.7983  -26.2110  -49.5613 H         1 UNK         0.0600 
    212 H212       -4.4377  -28.7646  -50.5665 H         1 UNK         0.0600 
    213 H213       -5.9774  -28.6727  -49.7189 H         1 UNK         0.0600 
    214 H214       -4.4951  -28.2300  -48.8879 H         1 UNK         0.0600 
    215 H215       -5.4190  -24.6464  -51.8154 H         1 UNK         0.3000 
    216 H216       -7.4805  -25.4631  -53.6284 H         1 UNK         0.0600 
    217 H217       -6.0285  -25.5074  -55.6800 H         1 UNK         0.0600 
    218 H218       -5.5343  -26.7831  -54.5892 H         1 UNK         0.0600 
    219 H219       -4.5867  -25.3041  -54.6873 H         1 UNK         0.0600 
    220 H220       -7.0803  -23.6294  -55.6365 H         1 UNK         0.3000 
    221 H221       -7.5875  -21.1009  -54.5019 H         1 UNK         0.0600 
    222 H222       -6.6589  -21.8311  -57.3322 H         1 UNK         0.0600 
    223 H223       -8.3306  -21.7644  -56.7718 H         1 UNK         0.0600 
    224 H224       -7.3748  -20.2940  -56.8615 H         1 UNK         0.0600 
    225 H225       -4.5512  -22.5967  -55.3126 H         1 UNK         0.3000 
    226 H226       -2.7819  -20.3723  -55.2296 H         1 UNK         0.0600 
    227 H227       -2.1449  -22.5816  -56.1436 H         1 UNK         0.0600 
    228 H228       -1.0709  -22.1670  -54.8189 H         1 UNK         0.0600 
    229 H229       -2.3595  -23.3383  -54.5656 H         1 UNK         0.0600 
    230 H230       -4.7017  -21.6501  -52.6649 H         1 UNK         0.3000 
    231 H231       -2.9917  -20.9759  -50.4431 H         1 UNK         0.0600 
    232 H232       -4.9116  -22.5559  -50.2174 H         1 UNK         0.0600 
    233 H233       -6.0394  -21.2799  -50.6868 H         1 UNK         0.0600 
    234 H234       -5.1719  -21.1606  -49.1790 H         1 UNK         0.0600 
    235 H235       -4.8361  -19.0689  -52.6745 H         1 UNK         0.3000 
    236 H236       -4.4683  -16.6281  -50.9796 H         1 UNK         0.0600 
    237 H237       -6.6439  -15.8071  -51.8916 H         1 UNK         0.0600 
    238 H238       -6.8977  -17.3461  -52.7097 H         1 UNK         0.0600 
    239 H239       -6.8675  -17.2726  -50.9486 H         1 UNK         0.0600 
    240 H240       -4.4290  -18.1192  -54.2073 H         1 UNK         0.3000 
    241 H241       -3.5282  -17.5646  -56.1184 H         1 UNK         0.0600 
    242 H242       -6.1628  -16.2609  -55.1707 H         1 UNK         0.3800 
    243 H243       -6.4183  -15.0464  -56.3965 H         1 UNK         0.3800 
    244 H244       -2.0215  -15.3097  -54.7066 H         1 UNK         0.0800 
    245 H245       -1.7736  -15.7538  -56.3683 H         1 UNK         0.0800 
    246 H246        0.1385  -15.5161  -53.8757 H         1 UNK         0.0800 
    247 H247        1.2126  -16.8842  -53.9194 H         1 UNK         0.0800 
@<TRIPOS>BOND
     1    1    2 1    
     2    1  127 1    
     3    1  128 1    
     4    1  129 1    
     5    2    3 2    
     6    2    4 am   BACKBONE|DICT|INTERRES
     7    4    5 1    
     8    4  130 1    
     9    5    6 1    
    10    5   65 1    
    11    5  131 1    
    12    6    7 1    
    13    6  132 1    
    14    6  133 1    
    15    7    8 1    
    16    8    9 1    
    17    8  134 1    
    18    8  135 1    
    19    9   10 ar   
    20    9   14 ar   
    21   10   11 ar   
    22   10  136 1    
    23   11   12 ar   
    24   11  126 1    
    25   12   13 ar   
    26   12  137 1    
    27   13   14 ar   
    28   13   15 1    
    29   14  138 1    
    30   15   16 1    
    31   15  139 1    
    32   15  140 1    
    33   16   17 1    
    34   17   18 1    
    35   17  141 1    
    36   17  142 1    
    37   18   19 1    
    38   18   67 1    
    39   18  143 1    
    40   19   20 am   BACKBONE|DICT|INTERRES
    41   19  144 1    
    42   20   21 2    
    43   20   22 1    
    44   22   23 1    
    45   22   24 1    
    46   22  145 1    
    47   23  146 1    
    48   23  147 1    
    49   23  148 1    
    50   24   25 am   BACKBONE|DICT|INTERRES
    51   24  149 1    
    52   25   26 2    
    53   25   27 1    
    54   27   28 1    
    55   27   29 1    
    56   27  150 1    
    57   28  151 1    
    58   28  152 1    
    59   28  153 1    
    60   29   30 am   BACKBONE|DICT|INTERRES
    61   29  154 1    
    62   30   31 2    
    63   30   32 1    
    64   32   33 1    
    65   32   34 1    
    66   32  155 1    
    67   33  156 1    
    68   33  157 1    
    69   33  158 1    
    70   34   35 am   BACKBONE|DICT|INTERRES
    71   34  159 1    
    72   35   36 2    
    73   35   37 1    
    74   37   38 1    
    75   37   39 1    
    76   37  160 1    
    77   38  161 1    
    78   38  162 1    
    79   38  163 1    
    80   39   40 am   BACKBONE|DICT|INTERRES
    81   39  164 1    
    82   40   41 2    
    83   40   42 1    
    84   42   43 1    
    85   42   44 1    
    86   42  165 1    
    87   43  166 1    
    88   43  167 1    
    89   43  168 1    
    90   44   45 am   BACKBONE|DICT|INTERRES
    91   44  169 1    
    92   45   46 2    
    93   45   47 1    
    94   47   48 1    
    95   47   49 1    
    96   47  170 1    
    97   48  171 1    
    98   48  172 1    
    99   48  173 1    
   100   49   50 am   BACKBONE|DICT|INTERRES
   101   49  174 1    
   102   50   51 2    
   103   50   52 1    
   104   52   53 1    
   105   52   54 1    
   106   52  175 1    
   107   53  176 1    
   108   53  177 1    
   109   53  178 1    
   110   54   55 am   BACKBONE|DICT|INTERRES
   111   54  179 1    
   112   55   56 2    
   113   55   57 1    
   114   57   58 1    
   115   57   59 1    
   116   57  180 1    
   117   58  181 1    
   118   58  182 1    
   119   58  183 1    
   120   59   60 am   BACKBONE|DICT|INTERRES
   121   59  184 1    
   122   60   61 2    
   123   60   62 1    
   124   62   63 1    
   125   62   64 1    
   126   62  185 1    
   127   63  186 1    
   128   63  187 1    
   129   63  188 1    
   130   64   65 am   BACKBONE|DICT|INTERRES
   131   64  189 1    
   132   65   66 2    
   133   67   68 2    
   134   67   69 am   BACKBONE|DICT|INTERRES
   135   69   70 1    
   136   69  190 1    
   137   70   71 1    
   138   70   72 1    
   139   70  191 1    
   140   71  192 1    
   141   71  193 1    
   142   71  194 1    
   143   72   73 2    
   144   72   74 am   BACKBONE|DICT|INTERRES
   145   74   75 1    
   146   74  195 1    
   147   75   76 1    
   148   75   77 1    
   149   75  196 1    
   150   76  197 1    
   151   76  198 1    
   152   76  199 1    
   153   77   78 2    
   154   77   79 am   BACKBONE|DICT|INTERRES
   155   79   80 1    
   156   79  200 1    
   157   80   81 1    
   158   80   82 1    
   159   80  201 1    
   160   81  202 1    
   161   81  203 1    
   162   81  204 1    
   163   82   83 2    
   164   82   84 am   BACKBONE|DICT|INTERRES
   165   84   85 1    
   166   84  205 1    
   167   85   86 1    
   168   85   87 1    
   169   85  206 1    
   170   86  207 1    
   171   86  208 1    
   172   86  209 1    
   173   87   88 2    
   174   87   89 am   BACKBONE|DICT|INTERRES
   175   89   90 1    
   176   89  210 1    
   177   90   91 1    
   178   90   92 1    
   179   90  211 1    
   180   91  212 1    
   181   91  213 1    
   182   91  214 1    
   183   92   93 2    
   184   92   94 am   BACKBONE|DICT|INTERRES
   185   94   95 1    
   186   94  215 1    
   187   95   96 1    
   188   95   97 1    
   189   95  216 1    
   190   96  217 1    
   191   96  218 1    
   192   96  219 1    
   193   97   98 2    
   194   97   99 am   BACKBONE|DICT|INTERRES
   195   99  100 1    
   196   99  220 1    
   197  100  101 1    
   198  100  102 1    
   199  100  221 1    
   200  101  222 1    
   201  101  223 1    
   202  101  224 1    
   203  102  103 2    
   204  102  104 am   BACKBONE|DICT|INTERRES
   205  104  105 1    
   206  104  225 1    
   207  105  106 1    
   208  105  107 1    
   209  105  226 1    
   210  106  227 1    
   211  106  228 1    
   212  106  229 1    
   213  107  108 2    
   214  107  109 am   BACKBONE|DICT|INTERRES
   215  109  110 1    
   216  109  230 1    
   217  110  111 1    
   218  110  112 1    
   219  110  231 1    
   220  111  232 1    
   221  111  233 1    
   222  111  234 1    
   223  112  113 2    
   224  112  114 am   BACKBONE|DICT|INTERRES
   225  114  115 1    
   226  114  235 1    
   227  115  116 1    
   228  115  117 1    
   229  115  236 1    
   230  116  237 1    
   231  116  238 1    
   232  116  239 1    
   233  117  118 2    
   234  117  119 am   BACKBONE|DICT|INTERRES
   235  119  120 1    
   236  119  240 1    
   237  120  121 1    
   238  120  124 1    
   239  120  241 1    
   240  121  122 am   BACKBONE|DICT|INTERRES
   241  121  123 2    
   242  122  242 1    
   243  122  243 1    
   244  124  125 1    
   245  124  244 1    
   246  124  245 1    
   247  125  126 1    
   248  126  246 1    
   249  126  247 1    
@<TRIPOS>SUBSTRUCTURE
     1 UNK         1 GROUP             0       ****    0 ROOT    
