@<TRIPOS>MOLECULE
3R540
247   249    1
SMALL
USER_CHARGES


@<TRIPOS>ATOM
      1 CA          6.1855  -12.8536  -51.5661 C.3       0 UNK        -0.1800 
      2 C           5.2740  -12.6470  -50.3648 C.2       0 UNK         0.5000 
      3 O           5.1876  -11.5348  -49.8444 O.2       0 UNK        -0.5000 
      4 N           4.5933  -13.7125  -49.9245 N.am      1 UNK        -0.5000 
      5 CA          3.6574  -13.7081  -48.7925 C.3       1 UNK         0.1400 
      6 C6          3.4472  -15.1245  -48.2004 C.3       23 UNK        -0.0398 
      7 S7          3.0136  -16.4112  -49.4236 S.3       23 UNK        -0.2404 
      8 C8          1.2313  -16.6293  -49.1280 C.3       23 UNK        -0.0205 
      9 C9          0.6611  -17.6816  -50.0665 C.ar      23 UNK        -0.0193 
     10 C10         0.3663  -17.3519  -51.3923 C.ar      23 UNK        -0.1150 
     11 C11        -0.1305  -18.3184  -52.2708 C.ar      23 UNK        -0.0193 
     12 C12        -0.3381  -19.6221  -51.8112 C.ar      23 UNK        -0.1150 
     13 C13        -0.0709  -19.9628  -50.4820 C.ar      23 UNK        -0.0193 
     14 C14         0.4315  -18.9847  -49.6152 C.ar      23 UNK        -0.1150 
     15 C15        -0.3579  -21.3789  -49.9944 C.3       23 UNK        -0.0205 
     16 S16         1.1371  -22.2516  -49.4285 S.3       23 UNK        -0.2404 
     17 C17         1.1457  -21.7911  -47.6619 C.3       23 UNK        -0.0398 
     18 CA          1.1528  -22.9733  -46.6660 C.3       11 UNK         0.1400 
     19 N           1.1691  -22.4724  -45.2942 N.am      11 UNK        -0.5000 
     20 C           1.4227  -23.1992  -44.2004 C.2       10 UNK         0.5000 
     21 O           1.7604  -24.3824  -44.2247 O.2       10 UNK        -0.5000 
     22 CA          1.2288  -22.4832  -42.8506 C.3       10 UNK         0.1400 
     23 CB          2.4787  -21.6701  -42.4827 C.3       10 UNK        -0.1800 
     24 N           0.0530  -21.6072  -42.8362 N.am      10 UNK        -0.5000 
     25 C          -1.2098  -22.0377  -42.9757 C.2       9 UNK         0.5000 
     26 O          -1.5153  -23.2228  -43.1088 O.2       9 UNK        -0.5000 
     27 CA         -2.3154  -20.9677  -43.0061 C.3       9 UNK         0.1400 
     28 CB         -2.6258  -20.4661  -41.5881 C.3       9 UNK        -0.1800 
     29 N          -1.9878  -19.8342  -43.8712 N.am      9 UNK        -0.5000 
     30 C          -1.8351  -19.9110  -45.2011 C.2       8 UNK         0.5000 
     31 O          -1.9781  -20.9453  -45.8496 O.2       8 UNK        -0.5000 
     32 CA         -1.3933  -18.6304  -45.9284 C.3       8 UNK         0.1400 
     33 CB         -2.5695  -17.6587  -46.0965 C.3       8 UNK        -0.1800 
     34 N          -0.2944  -17.9524  -45.2457 N.am      8 UNK        -0.5000 
     35 C           0.9079  -18.4874  -44.9934 C.2       7 UNK         0.5000 
     36 O           1.2515  -19.6096  -45.3601 O.2       7 UNK        -0.5000 
     37 CA          1.8702  -17.6431  -44.1448 C.3       7 UNK         0.1400 
     38 CB          2.5656  -16.5804  -45.0037 C.3       7 UNK        -0.1800 
     39 N           1.1850  -16.9952  -43.0287 N.am      7 UNK        -0.5000 
     40 C           0.6924  -17.6432  -41.9649 C.2       6 UNK         0.5000 
     41 O           0.7820  -18.8603  -41.7987 O.2       6 UNK        -0.5000 
     42 CA         -0.0626  -16.7831  -40.9362 C.3       6 UNK         0.1400 
     43 CB          0.9203  -16.0456  -40.0145 C.3       6 UNK        -0.1800 
     44 N          -0.9617  -15.8143  -41.5676 N.am      6 UNK        -0.5000 
     45 C          -2.0547  -16.1546  -42.2634 C.2       5 UNK         0.5000 
     46 O          -2.4105  -17.3176  -42.4511 O.2       5 UNK        -0.5000 
     47 CA         -2.8780  -15.0079  -42.8753 C.3       5 UNK         0.1400 
     48 CB         -3.8133  -14.3960  -41.8214 C.3       5 UNK        -0.1800 
     49 N          -2.0926  -13.9411  -43.5043 N.am      5 UNK        -0.5000 
     50 C          -1.1975  -14.1114  -44.4863 C.2       4 UNK         0.5000 
     51 O          -0.7683  -15.2071  -44.8502 O.2       4 UNK        -0.5000 
     52 CA         -0.7170  -12.8419  -45.2126 C.3       4 UNK         0.1400 
     53 CB          0.7796  -12.6058  -44.9587 C.3       4 UNK        -0.1800 
     54 N          -0.9557  -12.9461  -46.6548 N.am      4 UNK        -0.5000 
     55 C          -2.1686  -13.0595  -47.2214 C.2       3 UNK         0.5000 
     56 O          -3.2220  -12.9593  -46.5902 O.2       3 UNK        -0.5000 
     57 CA         -2.2104  -13.3224  -48.7376 C.3       3 UNK         0.1400 
     58 CB         -3.5642  -12.9831  -49.3924 C.3       3 UNK        -0.1800 
     59 N          -1.1292  -12.6156  -49.4147 N.am      3 UNK        -0.5000 
     60 C          -0.4778  -13.0605  -50.4940 C.2       2 UNK         0.5000 
     61 O          -0.7856  -14.0797  -51.1103 O.2       2 UNK        -0.5000 
     62 CA          0.7598  -12.2584  -50.9409 C.3       2 UNK         0.1400 
     63 CB          0.6723  -10.7500  -50.6191 C.3       2 UNK        -0.1800 
     64 N           1.9939  -12.8358  -50.3985 N.am      2 UNK        -0.5000 
     65 C           2.3067  -13.0294  -49.1066 C.2       1 UNK         0.5000 
     66 O           1.5762  -12.7087  -48.1678 O.2       1 UNK        -0.5000 
     67 C          -0.0085  -23.9703  -46.8773 C.2       11 UNK         0.5000 
     68 O           0.2252  -25.0631  -47.3922 O.2       11 UNK        -0.5000 
     69 N          -1.2237  -23.6157  -46.4310 N.am      12 UNK        -0.5000 
     70 CA         -2.4147  -24.4650  -46.5192 C.3       12 UNK         0.1400 
     71 CB         -3.6541  -23.6966  -46.0433 C.3       12 UNK        -0.1800 
     72 C          -2.2804  -25.7962  -45.7606 C.2       12 UNK         0.5000 
     73 O          -2.7311  -26.8281  -46.2608 O.2       12 UNK        -0.5000 
     74 N          -1.6073  -25.7604  -44.6020 N.am      13 UNK        -0.5000 
     75 CA         -1.2629  -26.9253  -43.7834 C.3       13 UNK         0.1400 
     76 CB         -0.6711  -26.4467  -42.4490 C.3       13 UNK        -0.1800 
     77 C          -0.3131  -27.9275  -44.4751 C.2       13 UNK         0.5000 
     78 O          -0.2625  -29.0852  -44.0589 O.2       13 UNK        -0.5000 
     79 N           0.3860  -27.4943  -45.5344 N.am      14 UNK        -0.5000 
     80 CA          1.2074  -28.3354  -46.4079 C.3       14 UNK         0.1400 
     81 CB          2.4475  -27.5395  -46.8531 C.3       14 UNK        -0.1800 
     82 C           0.4083  -28.8893  -47.6111 C.2       14 UNK         0.5000 
     83 O           1.0200  -29.3192  -48.5899 O.2       14 UNK        -0.5000 
     84 N          -0.9309  -28.8846  -47.5112 N.am      15 UNK        -0.5000 
     85 CA         -1.9218  -29.3390  -48.4899 C.3       15 UNK         0.1400 
     86 CB         -1.7313  -30.8282  -48.8507 C.3       15 UNK        -0.1800 
     87 C          -1.9740  -28.4086  -49.7147 C.2       15 UNK         0.5000 
     88 O          -1.6106  -28.8060  -50.8238 O.2       15 UNK        -0.5000 
     89 N          -2.4316  -27.1760  -49.4773 N.am      16 UNK        -0.5000 
     90 CA         -2.6492  -26.1429  -50.4872 C.3       16 UNK         0.1400 
     91 CB         -1.3976  -25.2500  -50.5795 C.3       16 UNK        -0.1800 
     92 C          -3.8971  -25.3227  -50.1207 C.2       16 UNK         0.5000 
     93 O          -4.4705  -25.5149  -49.0450 O.2       16 UNK        -0.5000 
     94 N          -4.2883  -24.4049  -51.0119 N.am      17 UNK        -0.5000 
     95 CA         -5.2875  -23.3726  -50.7342 C.3       17 UNK         0.1400 
     96 CB         -5.7780  -22.7809  -52.0645 C.3       17 UNK        -0.1800 
     97 C          -4.6795  -22.2684  -49.8509 C.2       17 UNK         0.5000 
     98 O          -3.4875  -21.9805  -49.9737 O.2       17 UNK        -0.5000 
     99 N          -5.5030  -21.6411  -49.0036 N.am      18 UNK        -0.5000 
    100 CA        -5.1031  -20.5703  -48.0861 C.3       18 UNK         0.1400 
    101 CB        -6.0907  -20.5279  -46.9064 C.3       18 UNK        -0.1800 
    102 C         -4.9536  -19.2086  -48.7960 C.2       18 UNK         0.5000 
    103 O         -5.6555  -18.2540  -48.4586 O.2       18 UNK        -0.5000 
    104 N         -4.0218  -19.1542  -49.7561 N.am      19 UNK        -0.5000 
    105 CA        -3.6168  -17.9951  -50.5516 C.3       19 UNK         0.1400 
    106 CB        -2.8513  -16.9868  -49.6693 C.3       19 UNK        -0.1800 
    107 C         -4.7964  -17.3789  -51.3342 C.2       19 UNK         0.5000 
    108 O         -5.3273  -18.0339  -52.2327 O.2       19 UNK        -0.5000 
    109 N         -5.1837  -16.1468  -50.9742 N.am      20 UNK        -0.5000 
    110 CA        -6.2707  -15.3454  -51.5358 C.3       20 UNK         0.1400 
    111 CB        -7.6423  -16.0166  -51.2970 C.3       20 UNK        -0.1800 
    112 C         -6.0022  -14.9637  -53.0035 C.2       20 UNK         0.5000 
    113 O         -5.2199  -14.0436  -53.2458 O.2       20 UNK        -0.5000 
    114 N         -6.6533  -15.6566  -53.9480 N.am      21 UNK        -0.5000 
    115 CA        -6.6714  -15.3580  -55.3841 C.3       21 UNK         0.1400 
    116 CB        -7.5870  -16.3704  -56.0893 C.3       21 UNK        -0.1800 
    117 C         -5.2902  -15.3163  -56.0676 C.2       21 UNK         0.5000 
    118 O         -5.1256  -14.5806  -57.0419 O.2       21 UNK        -0.5000 
    119 N         -4.3275  -16.0863  -55.5472 N.am      22 UNK        -0.5000 
    120 CA        -2.9233  -16.0751  -55.9870 C.3       22 UNK         0.1400 
    121 C         -2.0644  -14.9133  -55.4007 C.2       22 UNK         0.5000 
    122 N         -2.5774  -14.0793  -54.5035 N.am      22 UNK        -0.7600 
    123 O         -0.9081  -14.7550  -55.7830 O.2       22 UNK        -0.5000 
    124 C124       -2.2556  -17.4612  -55.8001 C.3       23 UNK        -0.0398 
    125 S125       -2.2165  -18.0327  -54.0674 S.3       23 UNK        -0.2404 
    126 C126       -0.4326  -17.9610  -53.7179 C.3       23 UNK        -0.0205 
    127 H127        7.2146  -12.6091  -51.3026 H         1 UNK         0.0600 
    128 H128        5.8788  -12.2042  -52.3861 H         1 UNK         0.0600 
    129 H129        6.1613  -13.8842  -51.9211 H         1 UNK         0.0600 
    130 H130        4.7023  -14.6045  -50.3878 H         1 UNK         0.3000 
    131 H131        4.1087  -13.1041  -48.0021 H         1 UNK         0.0600 
    132 H132        4.3689  -15.4437  -47.7123 H         1 UNK         0.0800 
    133 H133        2.6968  -15.0998  -47.4106 H         1 UNK         0.0800 
    134 H134        1.0637  -16.9138  -48.0877 H         1 UNK         0.0800 
    135 H135        0.7117  -15.6825  -49.2797 H         1 UNK         0.0800 
    136 H136        0.5352  -16.3423  -51.7400 H         1 UNK         0.1150 
    137 H137       -0.7275  -20.3670  -52.4911 H         1 UNK         0.1150 
    138 H138        0.6545  -19.2319  -48.5891 H         1 UNK         0.1150 
    139 H139       -1.1019  -21.3456  -49.1980 H         1 UNK         0.0800 
    140 H140       -0.8077  -21.9700  -50.7934 H         1 UNK         0.0800 
    141 H141        2.0290  -21.1730  -47.4956 H         1 UNK         0.0800 
    142 H142        0.2931  -21.1486  -47.4430 H         1 UNK         0.0800 
    143 H143        2.0815  -23.5268  -46.8208 H         1 UNK         0.0600 
    144 H144        0.9635  -21.4834  -45.1793 H         1 UNK         0.3000 
    145 H145        1.0835  -23.2502  -42.0871 H         1 UNK         0.0600 
    146 H146        2.3828  -21.2281  -41.4908 H         1 UNK         0.0600 
    147 H147        3.3679  -22.3017  -42.4732 H         1 UNK         0.0600 
    148 H148        2.6560  -20.8616  -43.1927 H         1 UNK         0.0600 
    149 H149        0.2243  -20.6166  -42.6961 H         1 UNK         0.3000 
    150 H150       -3.2183  -21.4369  -43.4021 H         1 UNK         0.0600 
    151 H151       -2.8709  -21.2957  -40.9238 H         1 UNK         0.0600 
    152 H152       -3.4794  -19.7881  -41.5897 H         1 UNK         0.0600 
    153 H153       -1.7784  -19.9344  -41.1538 H         1 UNK         0.0600 
    154 H154       -1.8941  -18.9306  -43.4160 H         1 UNK         0.3000 
    155 H155       -1.0441  -18.9147  -46.9222 H         1 UNK         0.0600 
    156 H156       -2.2746  -16.7765  -46.6647 H         1 UNK         0.0600 
    157 H157       -2.9540  -17.3208  -45.1351 H         1 UNK         0.0600 
    158 H158       -3.3944  -18.1308  -46.6277 H         1 UNK         0.0600 
    159 H159       -0.4744  -16.9969  -44.9424 H         1 UNK         0.3000 
    160 H160        2.6346  -18.3097  -43.7400 H         1 UNK         0.0600 
    161 H161        1.8481  -15.8654  -45.4055 H         1 UNK         0.0600 
    162 H162        3.0855  -17.0410  -45.8448 H         1 UNK         0.0600 
    163 H163        3.3054  -16.0261  -44.4261 H         1 UNK         0.0600 
    164 H164        1.0061  -16.0058  -43.1175 H         1 UNK         0.3000 
    165 H165       -0.6654  -17.4553  -40.3217 H         1 UNK         0.0600 
    166 H166        1.5340  -15.3315  -40.5649 H         1 UNK         0.0600 
    167 H167        0.3925  -15.5011  -39.2313 H         1 UNK         0.0600 
    168 H168        1.5947  -16.7478  -39.5225 H         1 UNK         0.0600 
    169 H169       -0.7337  -14.8360  -41.4687 H         1 UNK         0.3000 
    170 H170       -3.5010  -15.4443  -43.6584 H         1 UNK         0.0600 
    171 H171       -4.4247  -15.1649  -41.3469 H         1 UNK         0.0600 
    172 H172       -3.2557  -13.8875  -41.0339 H         1 UNK         0.0600 
    173 H173       -4.4953  -13.6737  -42.2704 H         1 UNK         0.0600 
    174 H174       -2.3738  -12.9991  -43.2743 H         1 UNK         0.3000 
    175 H175       -1.2713  -11.9792  -44.8376 H         1 UNK         0.0600 
    176 H176        1.1177  -11.6835  -45.4315 H         1 UNK         0.0600 
    177 H177        0.9881  -12.5208  -43.8915 H         1 UNK         0.0600 
    178 H178        1.3886  -13.4215  -45.3500 H         1 UNK         0.0600 
    179 H179       -0.1262  -13.0265  -47.2360 H         1 UNK         0.3000 
    180 H180       -2.0413  -14.3946  -48.8385 H         1 UNK         0.0600 
    181 H181       -3.5689  -13.2470  -50.4504 H         1 UNK         0.0600 
    182 H182       -4.3801  -13.5316  -48.9204 H         1 UNK         0.0600 
    183 H183       -3.7896  -11.9194  -49.3114 H         1 UNK         0.0600 
    184 H184       -0.7783  -11.7906  -48.9476 H         1 UNK         0.3000 
    185 H185        0.8176  -12.3593  -52.0258 H         1 UNK         0.0600 
    186 H186        1.5045  -10.2104  -51.0714 H         1 UNK         0.0600 
    187 H187       -0.2461  -10.3179  -51.0185 H         1 UNK         0.0600 
    188 H188        0.6960  -10.5463  -49.5484 H         1 UNK         0.0600 
    189 H189        2.6561  -13.1675  -51.0848 H         1 UNK         0.3000 
    190 H190       -1.3650  -22.6840  -46.0472 H         1 UNK         0.3000 
    191 H191       -2.5471  -24.7030  -47.5727 H         1 UNK         0.0600 
    192 H192       -4.5496  -24.3151  -46.1162 H         1 UNK         0.0600 
    193 H193       -3.8227  -22.8158  -46.6581 H         1 UNK         0.0600 
    194 H194       -3.5569  -23.3725  -45.0072 H         1 UNK         0.0600 
    195 H195       -1.3238  -24.8548  -44.2391 H         1 UNK         0.3000 
    196 H196       -2.1907  -27.4595  -43.5693 H         1 UNK         0.0600 
    197 H197       -0.4420  -27.2901  -41.7966 H         1 UNK         0.0600 
    198 H198       -1.3712  -25.8043  -41.9146 H         1 UNK         0.0600 
    199 H199        0.2518  -25.8860  -42.5965 H         1 UNK         0.0600 
    200 H200        0.2690  -26.5341  -45.8385 H         1 UNK         0.3000 
    201 H201        1.5632  -29.1994  -45.8433 H         1 UNK         0.0600 
    202 H202        2.9645  -27.1010  -45.9992 H         1 UNK         0.0600 
    203 H203        2.1885  -26.7332  -47.5387 H         1 UNK         0.0600 
    204 H204        3.1609  -28.1847  -47.3668 H         1 UNK         0.0600 
    205 H205       -1.3280  -28.4314  -46.6976 H         1 UNK         0.3000 
    206 H206       -2.8912  -29.2552  -47.9959 H         1 UNK         0.0600 
    207 H207       -1.7237  -31.4520  -47.9570 H         1 UNK         0.0600 
    208 H208       -2.5473  -31.1778  -49.4841 H         1 UNK         0.0600 
    209 H209       -0.8033  -31.0081  -49.3934 H         1 UNK         0.0600 
    210 H210       -2.7625  -26.9408  -48.5477 H         1 UNK         0.3000 
    211 H211       -2.8352  -26.6080  -51.4576 H         1 UNK         0.0600 
    212 H212       -1.2392  -24.6834  -49.6620 H         1 UNK         0.0600 
    213 H213       -1.4826  -24.5302  -51.3939 H         1 UNK         0.0600 
    214 H214       -0.5004  -25.8411  -50.7638 H         1 UNK         0.0600 
    215 H215       -3.7475  -24.2819  -51.8552 H         1 UNK         0.3000 
    216 H216       -6.1357  -23.8230  -50.2141 H         1 UNK         0.0600 
    217 H217       -6.5423  -22.0209  -51.8964 H         1 UNK         0.0600 
    218 H218       -6.2187  -23.5494  -52.6998 H         1 UNK         0.0600 
    219 H219       -4.9659  -22.3099  -52.6203 H         1 UNK         0.0600 
    220 H220       -6.4791  -21.8991  -48.9873 H         1 UNK         0.3000 
    221 H221       -4.1194  -20.8065  -47.6762 H         1 UNK         0.0600 
    222 H222       -7.1043  -20.2978  -47.2365 H         1 UNK         0.0600 
    223 H223       -6.1163  -21.4821  -46.3799 H         1 UNK         0.0600 
    224 H224       -5.7987  -19.7679  -46.1804 H         1 UNK         0.0600 
    225 H225       -3.5557  -20.0277  -49.9842 H         1 UNK         0.3000 
    226 H226       -2.9177  -18.3760  -51.2937 H         1 UNK         0.0600 
    227 H227       -2.0219  -17.4720  -49.1571 H         1 UNK         0.0600 
    228 H228       -2.4271  -16.1899  -50.2809 H         1 UNK         0.0600 
    229 H229       -3.4840  -16.5349  -48.9049 H         1 UNK         0.0600 
    230 H230       -4.6666  -15.7038  -50.2297 H         1 UNK         0.3000 
    231 H231       -6.2735  -14.4078  -50.9779 H         1 UNK         0.0600 
    232 H232       -8.4530  -15.3948  -51.6790 H         1 UNK         0.0600 
    233 H233       -7.8214  -16.1589  -50.2311 H         1 UNK         0.0600 
    234 H234       -7.7233  -16.9936  -51.7734 H         1 UNK         0.0600 
    235 H235       -7.2294  -16.4294  -53.6470 H         1 UNK         0.3000 
    236 H236       -7.1125  -14.3658  -55.4984 H         1 UNK         0.0600 
    237 H237       -7.2210  -17.3912  -55.9718 H         1 UNK         0.0600 
    238 H238       -8.6019  -16.3288  -55.6936 H         1 UNK         0.0600 
    239 H239       -7.6488  -16.1646  -57.1589 H         1 UNK         0.0600 
    240 H240       -4.5368  -16.6503  -54.7352 H         1 UNK         0.3000 
    241 H241       -2.9254  -15.8935  -57.0635 H         1 UNK         0.0600 
    242 H242       -3.5309  -14.1775  -54.1679 H         1 UNK         0.3800 
    243 H243       -1.9991  -13.3432  -54.1339 H         1 UNK         0.3800 
    244 H244       -2.8042  -18.2051  -56.3790 H         1 UNK         0.0800 
    245 H245       -1.2468  -17.4599  -56.2165 H         1 UNK         0.0800 
    246 H246        0.0954  -18.6517  -54.3768 H         1 UNK         0.0800 
    247 H247       -0.0618  -16.9612  -53.9503 H         1 UNK         0.0800 
@<TRIPOS>BOND
     1    1    2 1    
     2    1  127 1    
     3    1  128 1    
     4    1  129 1    
     5    2    3 2    
     6    2    4 am   BACKBONE|DICT|INTERRES
     7    4    5 1    
     8    4  130 1    
     9    5    6 1    
    10    5   65 1    
    11    5  131 1    
    12    6    7 1    
    13    6  132 1    
    14    6  133 1    
    15    7    8 1    
    16    8    9 1    
    17    8  134 1    
    18    8  135 1    
    19    9   10 ar   
    20    9   14 ar   
    21   10   11 ar   
    22   10  136 1    
    23   11   12 ar   
    24   11  126 1    
    25   12   13 ar   
    26   12  137 1    
    27   13   14 ar   
    28   13   15 1    
    29   14  138 1    
    30   15   16 1    
    31   15  139 1    
    32   15  140 1    
    33   16   17 1    
    34   17   18 1    
    35   17  141 1    
    36   17  142 1    
    37   18   19 1    
    38   18   67 1    
    39   18  143 1    
    40   19   20 am   BACKBONE|DICT|INTERRES
    41   19  144 1    
    42   20   21 2    
    43   20   22 1    
    44   22   23 1    
    45   22   24 1    
    46   22  145 1    
    47   23  146 1    
    48   23  147 1    
    49   23  148 1    
    50   24   25 am   BACKBONE|DICT|INTERRES
    51   24  149 1    
    52   25   26 2    
    53   25   27 1    
    54   27   28 1    
    55   27   29 1    
    56   27  150 1    
    57   28  151 1    
    58   28  152 1    
    59   28  153 1    
    60   29   30 am   BACKBONE|DICT|INTERRES
    61   29  154 1    
    62   30   31 2    
    63   30   32 1    
    64   32   33 1    
    65   32   34 1    
    66   32  155 1    
    67   33  156 1    
    68   33  157 1    
    69   33  158 1    
    70   34   35 am   BACKBONE|DICT|INTERRES
    71   34  159 1    
    72   35   36 2    
    73   35   37 1    
    74   37   38 1    
    75   37   39 1    
    76   37  160 1    
    77   38  161 1    
    78   38  162 1    
    79   38  163 1    
    80   39   40 am   BACKBONE|DICT|INTERRES
    81   39  164 1    
    82   40   41 2    
    83   40   42 1    
    84   42   43 1    
    85   42   44 1    
    86   42  165 1    
    87   43  166 1    
    88   43  167 1    
    89   43  168 1    
    90   44   45 am   BACKBONE|DICT|INTERRES
    91   44  169 1    
    92   45   46 2    
    93   45   47 1    
    94   47   48 1    
    95   47   49 1    
    96   47  170 1    
    97   48  171 1    
    98   48  172 1    
    99   48  173 1    
   100   49   50 am   BACKBONE|DICT|INTERRES
   101   49  174 1    
   102   50   51 2    
   103   50   52 1    
   104   52   53 1    
   105   52   54 1    
   106   52  175 1    
   107   53  176 1    
   108   53  177 1    
   109   53  178 1    
   110   54   55 am   BACKBONE|DICT|INTERRES
   111   54  179 1    
   112   55   56 2    
   113   55   57 1    
   114   57   58 1    
   115   57   59 1    
   116   57  180 1    
   117   58  181 1    
   118   58  182 1    
   119   58  183 1    
   120   59   60 am   BACKBONE|DICT|INTERRES
   121   59  184 1    
   122   60   61 2    
   123   60   62 1    
   124   62   63 1    
   125   62   64 1    
   126   62  185 1    
   127   63  186 1    
   128   63  187 1    
   129   63  188 1    
   130   64   65 am   BACKBONE|DICT|INTERRES
   131   64  189 1    
   132   65   66 2    
   133   67   68 2    
   134   67   69 am   BACKBONE|DICT|INTERRES
   135   69   70 1    
   136   69  190 1    
   137   70   71 1    
   138   70   72 1    
   139   70  191 1    
   140   71  192 1    
   141   71  193 1    
   142   71  194 1    
   143   72   73 2    
   144   72   74 am   BACKBONE|DICT|INTERRES
   145   74   75 1    
   146   74  195 1    
   147   75   76 1    
   148   75   77 1    
   149   75  196 1    
   150   76  197 1    
   151   76  198 1    
   152   76  199 1    
   153   77   78 2    
   154   77   79 am   BACKBONE|DICT|INTERRES
   155   79   80 1    
   156   79  200 1    
   157   80   81 1    
   158   80   82 1    
   159   80  201 1    
   160   81  202 1    
   161   81  203 1    
   162   81  204 1    
   163   82   83 2    
   164   82   84 am   BACKBONE|DICT|INTERRES
   165   84   85 1    
   166   84  205 1    
   167   85   86 1    
   168   85   87 1    
   169   85  206 1    
   170   86  207 1    
   171   86  208 1    
   172   86  209 1    
   173   87   88 2    
   174   87   89 am   BACKBONE|DICT|INTERRES
   175   89   90 1    
   176   89  210 1    
   177   90   91 1    
   178   90   92 1    
   179   90  211 1    
   180   91  212 1    
   181   91  213 1    
   182   91  214 1    
   183   92   93 2    
   184   92   94 am   BACKBONE|DICT|INTERRES
   185   94   95 1    
   186   94  215 1    
   187   95   96 1    
   188   95   97 1    
   189   95  216 1    
   190   96  217 1    
   191   96  218 1    
   192   96  219 1    
   193   97   98 2    
   194   97   99 am   BACKBONE|DICT|INTERRES
   195   99  100 1    
   196   99  220 1    
   197  100  101 1    
   198  100  102 1    
   199  100  221 1    
   200  101  222 1    
   201  101  223 1    
   202  101  224 1    
   203  102  103 2    
   204  102  104 am   BACKBONE|DICT|INTERRES
   205  104  105 1    
   206  104  225 1    
   207  105  106 1    
   208  105  107 1    
   209  105  226 1    
   210  106  227 1    
   211  106  228 1    
   212  106  229 1    
   213  107  108 2    
   214  107  109 am   BACKBONE|DICT|INTERRES
   215  109  110 1    
   216  109  230 1    
   217  110  111 1    
   218  110  112 1    
   219  110  231 1    
   220  111  232 1    
   221  111  233 1    
   222  111  234 1    
   223  112  113 2    
   224  112  114 am   BACKBONE|DICT|INTERRES
   225  114  115 1    
   226  114  235 1    
   227  115  116 1    
   228  115  117 1    
   229  115  236 1    
   230  116  237 1    
   231  116  238 1    
   232  116  239 1    
   233  117  118 2    
   234  117  119 am   BACKBONE|DICT|INTERRES
   235  119  120 1    
   236  119  240 1    
   237  120  121 1    
   238  120  124 1    
   239  120  241 1    
   240  121  122 am   BACKBONE|DICT|INTERRES
   241  121  123 2    
   242  122  242 1    
   243  122  243 1    
   244  124  125 1    
   245  124  244 1    
   246  124  245 1    
   247  125  126 1    
   248  126  246 1    
   249  126  247 1    
@<TRIPOS>SUBSTRUCTURE
     1 UNK         1 GROUP             0       ****    0 ROOT    
