@<TRIPOS>MOLECULE
3R540
247   249    1
SMALL
USER_CHARGES


@<TRIPOS>ATOM
      1 CA         -0.3268  -13.5838  -48.5346 C.3       0 UNK        -0.1800 
      2 C           1.1811  -13.4574  -48.6605 C.2       0 UNK         0.5000 
      3 O           1.6602  -12.5987  -49.4020 O.2       0 UNK        -0.5000 
      4 N           1.9322  -14.2937  -47.9340 N.am      1 UNK        -0.5000 
      5 CA          3.3987  -14.3451  -47.9486 C.3       1 UNK         0.1400 
      6 C6          3.9706  -15.6448  -47.3165 C.3       23 UNK        -0.0398 
      7 S7          3.0647  -17.1645  -47.7668 S.3       23 UNK        -0.2404 
      8 C8          3.4498  -17.3379  -49.5323 C.3       23 UNK        -0.0205 
      9 C9          2.3827  -18.1762  -50.2115 C.ar      23 UNK        -0.0193 
     10 C10         1.2227  -17.5667  -50.6985 C.ar      23 UNK        -0.1150 
     11 C11         0.2122  -18.3261  -51.3037 C.ar      23 UNK        -0.0193 
     12 C12         0.4006  -19.7067  -51.4270 C.ar      23 UNK        -0.1150 
     13 C13         1.5430  -20.3366  -50.9225 C.ar      23 UNK        -0.0193 
     14 C14         2.5395  -19.5584  -50.3276 C.ar      23 UNK        -0.1150 
     15 C15         1.6886  -21.8534  -51.0345 C.3       23 UNK        -0.0205 
     16 S16         2.2316  -22.6663  -49.4893 S.3       23 UNK        -0.2404 
     17 C17         0.9912  -22.0828  -48.2865 C.3       23 UNK        -0.0398 
     18 CA          0.5143  -23.1902  -47.3110 C.3       11 UNK         0.1400 
     19 N           0.1196  -22.6320  -46.0115 N.am      11 UNK        -0.5000 
     20 C          -0.2202  -23.3465  -44.9288 C.2       10 UNK         0.5000 
     21 O          -0.1671  -24.5730  -44.8783 O.2       10 UNK        -0.5000 
     22 CA         -0.7782  -22.5720  -43.7199 C.3       10 UNK         0.1400 
     23 CB          0.3517  -22.0248  -42.8357 C.3       10 UNK        -0.1800 
     24 N          -1.6746  -21.4879  -44.1232 N.am      10 UNK        -0.5000 
     25 C          -2.8505  -21.6787  -44.7395 C.2       9 UNK         0.5000 
     26 O          -3.3348  -22.7914  -44.9449 O.2       9 UNK        -0.5000 
     27 CA         -3.5808  -20.4240  -45.2565 C.3       9 UNK         0.1400 
     28 CB         -4.3876  -19.7686  -44.1254 C.3       9 UNK        -0.1800 
     29 N          -2.6630  -19.4456  -45.8459 N.am      9 UNK        -0.5000 
     30 C          -1.9050  -19.6703  -46.9298 C.2       8 UNK         0.5000 
     31 O          -1.9598  -20.7057  -47.5903 O.2       8 UNK        -0.5000 
     32 CA         -0.8624  -18.5960  -47.2930 C.3       8 UNK         0.1400 
     33 CB         -1.4804  -17.4775  -48.1344 C.3       8 UNK        -0.1800 
     34 N          -0.2219  -18.0242  -46.1092 N.am      8 UNK        -0.5000 
     35 C           0.6032  -18.7080  -45.3047 C.2       7 UNK         0.5000 
     36 O           0.9669  -19.8620  -45.5274 O.2       7 UNK        -0.5000 
     37 CA          1.0321  -18.0159  -43.9990 C.3       7 UNK         0.1400 
     38 CB          2.2812  -17.1491  -44.2043 C.3       7 UNK        -0.1800 
     39 N          -0.0499  -17.2026  -43.4431 N.am      7 UNK        -0.5000 
     40 C          -1.1292  -17.7197  -42.8383 C.2       6 UNK         0.5000 
     41 O          -1.2816  -18.9251  -42.6441 O.2       6 UNK        -0.5000 
     42 CA         -2.2390  -16.7390  -42.4117 C.3       6 UNK         0.1400 
     43 CB         -1.9906  -16.2368  -40.9820 C.3       6 UNK        -0.1800 
     44 N          -2.3673  -15.5900  -43.3090 N.am      6 UNK        -0.5000 
     45 C          -2.7578  -15.6575  -44.5900 C.2       5 UNK         0.5000 
     46 O          -3.1128  -16.7003  -45.1363 O.2       5 UNK        -0.5000 
     47 CA         -2.6850  -14.3542  -45.4108 C.3       5 UNK         0.1400 
     48 CB         -4.0435  -13.6399  -45.4128 C.3       5 UNK        -0.1800 
     49 N          -1.6484  -13.4286  -44.9385 N.am      5 UNK        -0.5000 
     50 C          -0.3368  -13.6983  -44.9274 C.2       4 UNK         0.5000 
     51 O           0.1415  -14.7486  -45.3629 O.2       4 UNK        -0.5000 
     52 CA          0.5821  -12.6174  -44.3318 C.3       4 UNK         0.1400 
     53 CB          1.7776  -13.2363  -43.5880 C.3       4 UNK        -0.1800 
     54 N           1.0563  -11.7215  -45.3865 N.am      4 UNK        -0.5000 
     55 C           0.3334  -10.7070  -45.8859 C.2       3 UNK         0.5000 
     56 O          -0.7720  -10.3962  -45.4388 O.2       3 UNK        -0.5000 
     57 CA          0.8826   -9.9326  -47.1044 C.3       3 UNK         0.1400 
     58 CB          0.7527   -8.4039  -46.9393 C.3       3 UNK        -0.1800 
     59 N           2.2307  -10.3259  -47.5283 N.am      3 UNK        -0.5000 
     60 C           3.4097  -10.0501  -46.9490 C.2       2 UNK         0.5000 
     61 O           3.5404   -9.3586  -45.9383 O.2       2 UNK        -0.5000 
     62 CA          4.6419  -10.7073  -47.6162 C.3       2 UNK         0.1400 
     63 CB          5.9146  -10.6466  -46.7451 C.3       2 UNK        -0.1800 
     64 N           4.3588  -12.0842  -48.0482 N.am      2 UNK        -0.5000 
     65 C           3.9520  -13.0863  -47.2550 C.2       1 UNK         0.5000 
     66 O           3.9052  -13.0058  -46.0283 O.2       1 UNK        -0.5000 
     67 C          -0.6064  -24.0601  -47.9253 C.2       11 UNK         0.5000 
     68 O          -0.3397  -25.1786  -48.3691 O.2       11 UNK        -0.5000 
     69 N          -1.8486  -23.5534  -47.8720 N.am      12 UNK        -0.5000 
     70 CA         -3.0678  -24.2431  -48.2975 C.3       12 UNK         0.1400 
     71 CB         -4.2788  -23.3023  -48.1556 C.3       12 UNK        -0.1800 
     72 C          -3.3156  -25.5499  -47.5238 C.2       12 UNK         0.5000 
     73 O          -3.6809  -26.5545  -48.1329 O.2       12 UNK        -0.5000 
     74 N          -3.1044  -25.5095  -46.2016 N.am      13 UNK        -0.5000 
     75 CA         -3.2332  -26.6574  -45.3065 C.3       13 UNK         0.1400 
     76 CB         -3.2813  -26.1634  -43.8524 C.3       13 UNK        -0.1800 
     77 C          -2.1083  -27.6921  -45.4966 C.2       13 UNK         0.5000 
     78 O          -2.3829  -28.8928  -45.4833 O.2       13 UNK        -0.5000 
     79 N          -0.8670  -27.2136  -45.6580 N.am      14 UNK        -0.5000 
     80 CA          0.3322  -28.0373  -45.8132 C.3       14 UNK         0.1400 
     81 CB          1.5821  -27.1608  -45.6391 C.3       14 UNK        -0.1800 
     82 C           0.3917  -28.7889  -47.1537 C.2       14 UNK         0.5000 
     83 O           0.8442  -29.9348  -47.1797 O.2       14 UNK        -0.5000 
     84 N          -0.0523  -28.1389  -48.2350 N.am      15 UNK        -0.5000 
     85 CA         -0.0428  -28.6868  -49.5855 C.3       15 UNK         0.1400 
     86 CB          1.2905  -28.3387  -50.2794 C.3       15 UNK        -0.1800 
     87 C          -1.2791  -28.1855  -50.3415 C.2       15 UNK         0.5000 
     88 O          -2.3103  -28.8589  -50.3343 O.2       15 UNK        -0.5000 
     89 N          -1.1511  -27.0210  -50.9805 N.am      16 UNK        -0.5000 
     90 CA         -2.1718  -26.3382  -51.7626 C.3       16 UNK         0.1400 
     91 CB         -2.3848  -27.0504  -53.1118 C.3       16 UNK        -0.1800 
     92 C          -1.7020  -24.8939  -51.9739 C.2       16 UNK         0.5000 
     93 O          -0.5026  -24.6204  -51.8754 O.2       16 UNK        -0.5000 
     94 N          -2.6471  -23.9977  -52.2648 N.am      17 UNK        -0.5000 
     95 CA         -2.4015  -22.5767  -52.4697 C.3       17 UNK         0.1400 
     96 CB         -2.3919  -21.8637  -51.1105 C.3       17 UNK        -0.1800 
     97 C          -3.4989  -22.0078  -53.3736 C.2       17 UNK         0.5000 
     98 O          -4.6655  -22.3814  -53.2194 O.2       17 UNK        -0.5000 
     99 N          -3.1124  -21.1050  -54.2833 N.am      18 UNK        -0.5000 
    100 CA        -4.0085  -20.3968  -55.1965 C.3       18 UNK         0.1400 
    101 CB        -3.1701  -19.5924  -56.2032 C.3       18 UNK        -0.1800 
    102 C         -4.9714  -19.4841  -54.4180 C.2       18 UNK         0.5000 
    103 O         -4.5201  -18.5221  -53.7966 O.2       18 UNK        -0.5000 
    104 N         -6.2642  -19.8372  -54.4354 N.am      19 UNK        -0.5000 
    105 CA        -7.3584  -19.2123  -53.6804 C.3       19 UNK         0.1400 
    106 CB        -7.5898  -17.7569  -54.1412 C.3       19 UNK        -0.1800 
    107 C         -7.2010  -19.3367  -52.1470 C.2       19 UNK         0.5000 
    108 O         -7.7465  -18.5123  -51.4115 O.2       19 UNK        -0.5000 
    109 N         -6.4783  -20.3754  -51.6961 N.am      20 UNK        -0.5000 
    110 CA        -6.1343  -20.6812  -50.3062 C.3       20 UNK         0.1400 
    111 CB        -7.3835  -21.1235  -49.5115 C.3       20 UNK        -0.1800 
    112 C         -5.3377  -19.5326  -49.6519 C.2       20 UNK         0.5000 
    113 O         -4.1848  -19.3118  -50.0215 O.2       20 UNK        -0.5000 
    114 N         -5.9570  -18.8199  -48.7038 N.am      21 UNK        -0.5000 
    115 CA        -5.4088  -17.6477  -48.0268 C.3       21 UNK         0.1400 
    116 CB        -6.2394  -17.3935  -46.7567 C.3       21 UNK        -0.1800 
    117 C         -5.3836  -16.4247  -48.9683 C.2       21 UNK         0.5000 
    118 O         -6.2637  -15.5653  -48.8839 O.2       21 UNK        -0.5000 
    119 N         -4.4030  -16.3972  -49.8792 N.am      22 UNK        -0.5000 
    120 CA        -4.1702  -15.3169  -50.8492 C.3       22 UNK         0.1400 
    121 C         -3.8621  -13.9269  -50.2116 C.2       22 UNK         0.5000 
    122 N         -3.9607  -12.8525  -50.9840 N.am      22 UNK        -0.7600 
    123 O         -3.5248  -13.8053  -49.0363 O.2       22 UNK        -0.5000 
    124 C124       -3.1299  -15.7253  -51.9300 C.3       23 UNK        -0.0398 
    125 S125       -1.4325  -15.9971  -51.3078 S.3       23 UNK        -0.2404 
    126 C126       -1.0913  -17.7153  -51.8361 C.3       23 UNK        -0.0205 
    127 H127       -0.7378  -12.7421  -47.9785 H         1 UNK         0.0600 
    128 H128       -0.6135  -14.5028  -48.0260 H         1 UNK         0.0600 
    129 H129       -0.7823  -13.5915  -49.5241 H         1 UNK         0.0600 
    130 H130        1.4819  -14.9330  -47.2912 H         1 UNK         0.3000 
    131 H131        3.7177  -14.3207  -48.9921 H         1 UNK         0.0600 
    132 H132        5.0197  -15.7666  -47.5902 H         1 UNK         0.0800 
    133 H133        3.9527  -15.5884  -46.2272 H         1 UNK         0.0800 
    134 H134        3.4998  -16.3617  -50.0140 H         1 UNK         0.0800 
    135 H135        4.4341  -17.7937  -49.6488 H         1 UNK         0.0800 
    136 H136        1.1170  -16.4977  -50.5876 H         1 UNK         0.1150 
    137 H137       -0.3515  -20.2984  -51.9218 H         1 UNK         0.1150 
    138 H138        3.4308  -20.0304  -49.9388 H         1 UNK         0.1150 
    139 H139        0.7477  -22.3070  -51.3462 H         1 UNK         0.0800 
    140 H140        2.4107  -22.0777  -51.8202 H         1 UNK         0.0800 
    141 H141        1.4703  -21.2745  -47.7329 H         1 UNK         0.0800 
    142 H142        0.1517  -21.6209  -48.8071 H         1 UNK         0.0800 
    143 H143        1.3590  -23.8510  -47.1054 H         1 UNK         0.0600 
    144 H144        0.1040  -21.6198  -45.9404 H         1 UNK         0.3000 
    145 H145       -1.3598  -23.2741  -43.1188 H         1 UNK         0.0600 
    146 H146       -0.0463  -21.5034  -41.9650 H         1 UNK         0.0600 
    147 H147        0.9834  -22.8351  -42.4698 H         1 UNK         0.0600 
    148 H148        0.9938  -21.3310  -43.3761 H         1 UNK         0.0600 
    149 H149       -1.3738  -20.5410  -43.9212 H         1 UNK         0.3000 
    150 H150       -4.2762  -20.7334  -46.0396 H         1 UNK         0.0600 
    151 H151       -5.1999  -20.4210  -43.8036 H         1 UNK         0.0600 
    152 H152       -4.8297  -18.8245  -44.4391 H         1 UNK         0.0600 
    153 H153       -3.7701  -19.5662  -43.2511 H         1 UNK         0.0600 
    154 H154       -2.6199  -18.5325  -45.4030 H         1 UNK         0.3000 
    155 H155       -0.0905  -19.0767  -47.8986 H         1 UNK         0.0600 
    156 H156       -0.7063  -16.8086  -48.5080 H         1 UNK         0.0600 
    157 H157       -2.1975  -16.8803  -47.5742 H         1 UNK         0.0600 
    158 H158       -1.9976  -17.8927  -48.9988 H         1 UNK         0.0600 
    159 H159       -0.4685  -17.0766  -45.8595 H         1 UNK         0.3000 
    160 H160        1.2852  -18.7955  -43.2772 H         1 UNK         0.0600 
    161 H161        2.1031  -16.3522  -44.9243 H         1 UNK         0.0600 
    162 H162        3.1122  -17.7480  -44.5787 H         1 UNK         0.0600 
    163 H163        2.6035  -16.6903  -43.2697 H         1 UNK         0.0600 
    164 H164       -0.0122  -16.2100  -43.6301 H         1 UNK         0.3000 
    165 H165       -3.1856  -17.2829  -42.4238 H         1 UNK         0.0600 
    166 H166       -1.0661  -15.6623  -40.9110 H         1 UNK         0.0600 
    167 H167       -2.8082  -15.6027  -40.6387 H         1 UNK         0.0600 
    168 H168       -1.9131  -17.0713  -40.2836 H         1 UNK         0.0600 
    169 H169       -2.1019  -14.6904  -42.9371 H         1 UNK         0.3000 
    170 H170       -2.4467  -14.6292  -46.4398 H         1 UNK         0.0600 
    171 H171       -4.8276  -14.2954  -45.7940 H         1 UNK         0.0600 
    172 H172       -4.3352  -13.3216  -44.4113 H         1 UNK         0.0600 
    173 H173       -4.0220  -12.7594  -46.0555 H         1 UNK         0.0600 
    174 H174       -1.9598  -12.5207  -44.6207 H         1 UNK         0.3000 
    175 H175        0.0135  -12.0403  -43.5993 H         1 UNK         0.0600 
    176 H176        2.4533  -12.4667  -43.2147 H         1 UNK         0.0600 
    177 H177        1.4392  -13.8181  -42.7300 H         1 UNK         0.0600 
    178 H178        2.3546  -13.9084  -44.2223 H         1 UNK         0.0600 
    179 H179        1.9600  -11.9393  -45.7873 H         1 UNK         0.3000 
    180 H180        0.2354  -10.2152  -47.9359 H         1 UNK         0.0600 
    181 H181        1.1420   -7.8768  -47.8104 H         1 UNK         0.0600 
    182 H182       -0.2920   -8.1120  -46.8264 H         1 UNK         0.0600 
    183 H183        1.2840   -8.0413  -46.0593 H         1 UNK         0.0600 
    184 H184        2.2456  -10.9481  -48.3309 H         1 UNK         0.3000 
    185 H185        4.8379  -10.1335  -48.5231 H         1 UNK         0.0600 
    186 H186        6.7584  -11.1196  -47.2471 H         1 UNK         0.0600 
    187 H187        6.1970   -9.6132  -46.5410 H         1 UNK         0.0600 
    188 H188        5.7761  -11.1412  -45.7834 H         1 UNK         0.0600 
    189 H189        4.3153  -12.2230  -49.0490 H         1 UNK         0.3000 
    190 H190       -1.9620  -22.5998  -47.5369 H         1 UNK         0.3000 
    191 H191       -2.9449  -24.4880  -49.3522 H         1 UNK         0.0600 
    192 H192       -5.1090  -23.6505  -48.7707 H         1 UNK         0.0600 
    193 H193       -4.0449  -22.2835  -48.4597 H         1 UNK         0.0600 
    194 H194       -4.6416  -23.2514  -47.1295 H         1 UNK         0.0600 
    195 H195       -2.8624  -24.6201  -45.7774 H         1 UNK         0.3000 
    196 H196       -4.1816  -27.1527  -45.5251 H         1 UNK         0.0600 
    197 H197       -3.4130  -26.9966  -43.1611 H         1 UNK         0.0600 
    198 H198       -4.1131  -25.4760  -43.6974 H         1 UNK         0.0600 
    199 H199       -2.3642  -25.6451  -43.5714 H         1 UNK         0.0600 
    200 H200       -0.7171  -26.2096  -45.5909 H         1 UNK         0.3000 
    201 H201        0.3313  -28.7839  -45.0163 H         1 UNK         0.0600 
    202 H202        1.6086  -26.7046  -44.6494 H         1 UNK         0.0600 
    203 H203        1.6161  -26.3597  -46.3786 H         1 UNK         0.0600 
    204 H204        2.4934  -27.7499  -45.7491 H         1 UNK         0.0600 
    205 H205       -0.3933  -27.1860  -48.1397 H         1 UNK         0.3000 
    206 H206       -0.1293  -29.7749  -49.5460 H         1 UNK         0.0600 
    207 H207        2.1240  -28.8506  -49.7981 H         1 UNK         0.0600 
    208 H208        1.2821  -28.6485  -51.3252 H         1 UNK         0.0600 
    209 H209        1.5013  -27.2689  -50.2486 H         1 UNK         0.0600 
    210 H210       -0.2907  -26.4914  -50.8951 H         1 UNK         0.3000 
    211 H211       -3.1048  -26.3264  -51.1951 H         1 UNK         0.0600 
    212 H212       -1.4605  -27.0981  -53.6889 H         1 UNK         0.0600 
    213 H213       -3.1251  -26.5280  -53.7188 H         1 UNK         0.0600 
    214 H214       -2.7454  -28.0696  -52.9735 H         1 UNK         0.0600 
    215 H215       -3.6104  -24.2824  -52.3899 H         1 UNK         0.3000 
    216 H216       -1.4372  -22.4348  -52.9627 H         1 UNK         0.0600 
    217 H217       -2.3730  -20.7811  -51.2240 H         1 UNK         0.0600 
    218 H218       -1.5308  -22.1528  -50.5096 H         1 UNK         0.0600 
    219 H219       -3.2849  -22.1047  -50.5428 H         1 UNK         0.0600 
    220 H220       -2.1408  -20.8357  -54.3246 H         1 UNK         0.3000 
    221 H221       -4.5860  -21.1385  -55.7524 H         1 UNK         0.0600 
    222 H222       -2.5353  -18.8577  -55.7058 H         1 UNK         0.0600 
    223 H223       -2.5277  -20.2460  -56.7935 H         1 UNK         0.0600 
    224 H224       -3.8121  -19.0523  -56.9002 H         1 UNK         0.0600 
    225 H225       -6.5215  -20.6653  -54.9551 H         1 UNK         0.3000 
    226 H226       -8.2564  -19.7785  -53.9316 H         1 UNK         0.0600 
    227 H227       -7.6887  -17.6965  -55.2249 H         1 UNK         0.0600 
    228 H228       -8.5061  -17.3517  -53.7106 H         1 UNK         0.0600 
    229 H229       -6.7727  -17.1005  -53.8406 H         1 UNK         0.0600 
    230 H230       -6.0423  -20.9789  -52.3845 H         1 UNK         0.3000 
    231 H231       -5.4635  -21.5377  -50.3466 H         1 UNK         0.0600 
    232 H232       -7.1203  -21.3968  -48.4887 H         1 UNK         0.0600 
    233 H233       -7.8400  -22.0017  -49.9681 H         1 UNK         0.0600 
    234 H234       -8.1464  -20.3462  -49.4636 H         1 UNK         0.0600 
    235 H235       -6.9242  -19.0325  -48.5093 H         1 UNK         0.3000 
    236 H236       -4.3862  -17.8680  -47.7175 H         1 UNK         0.0600 
    237 H237       -6.2682  -18.2779  -46.1222 H         1 UNK         0.0600 
    238 H238       -5.8104  -16.5818  -46.1685 H         1 UNK         0.0600 
    239 H239       -7.2704  -17.1251  -46.9903 H         1 UNK         0.0600 
    240 H240       -3.7758  -17.1897  -49.9313 H         1 UNK         0.3000 
    241 H241       -5.1228  -15.1914  -51.3676 H         1 UNK         0.0600 
    242 H242       -4.2390  -12.9126  -51.9508 H         1 UNK         0.3800 
    243 H243       -3.7606  -11.9497  -50.5835 H         1 UNK         0.3800 
    244 H244       -3.4731  -16.6297  -52.4301 H         1 UNK         0.0800 
    245 H245       -3.0813  -14.9679  -52.7133 H         1 UNK         0.0800 
    246 H246       -1.0750  -17.7490  -52.9262 H         1 UNK         0.0800 
    247 H247       -1.9272  -18.3405  -51.5179 H         1 UNK         0.0800 
@<TRIPOS>BOND
     1    1    2 1    
     2    1  127 1    
     3    1  128 1    
     4    1  129 1    
     5    2    3 2    
     6    2    4 am   BACKBONE|DICT|INTERRES
     7    4    5 1    
     8    4  130 1    
     9    5    6 1    
    10    5   65 1    
    11    5  131 1    
    12    6    7 1    
    13    6  132 1    
    14    6  133 1    
    15    7    8 1    
    16    8    9 1    
    17    8  134 1    
    18    8  135 1    
    19    9   10 ar   
    20    9   14 ar   
    21   10   11 ar   
    22   10  136 1    
    23   11   12 ar   
    24   11  126 1    
    25   12   13 ar   
    26   12  137 1    
    27   13   14 ar   
    28   13   15 1    
    29   14  138 1    
    30   15   16 1    
    31   15  139 1    
    32   15  140 1    
    33   16   17 1    
    34   17   18 1    
    35   17  141 1    
    36   17  142 1    
    37   18   19 1    
    38   18   67 1    
    39   18  143 1    
    40   19   20 am   BACKBONE|DICT|INTERRES
    41   19  144 1    
    42   20   21 2    
    43   20   22 1    
    44   22   23 1    
    45   22   24 1    
    46   22  145 1    
    47   23  146 1    
    48   23  147 1    
    49   23  148 1    
    50   24   25 am   BACKBONE|DICT|INTERRES
    51   24  149 1    
    52   25   26 2    
    53   25   27 1    
    54   27   28 1    
    55   27   29 1    
    56   27  150 1    
    57   28  151 1    
    58   28  152 1    
    59   28  153 1    
    60   29   30 am   BACKBONE|DICT|INTERRES
    61   29  154 1    
    62   30   31 2    
    63   30   32 1    
    64   32   33 1    
    65   32   34 1    
    66   32  155 1    
    67   33  156 1    
    68   33  157 1    
    69   33  158 1    
    70   34   35 am   BACKBONE|DICT|INTERRES
    71   34  159 1    
    72   35   36 2    
    73   35   37 1    
    74   37   38 1    
    75   37   39 1    
    76   37  160 1    
    77   38  161 1    
    78   38  162 1    
    79   38  163 1    
    80   39   40 am   BACKBONE|DICT|INTERRES
    81   39  164 1    
    82   40   41 2    
    83   40   42 1    
    84   42   43 1    
    85   42   44 1    
    86   42  165 1    
    87   43  166 1    
    88   43  167 1    
    89   43  168 1    
    90   44   45 am   BACKBONE|DICT|INTERRES
    91   44  169 1    
    92   45   46 2    
    93   45   47 1    
    94   47   48 1    
    95   47   49 1    
    96   47  170 1    
    97   48  171 1    
    98   48  172 1    
    99   48  173 1    
   100   49   50 am   BACKBONE|DICT|INTERRES
   101   49  174 1    
   102   50   51 2    
   103   50   52 1    
   104   52   53 1    
   105   52   54 1    
   106   52  175 1    
   107   53  176 1    
   108   53  177 1    
   109   53  178 1    
   110   54   55 am   BACKBONE|DICT|INTERRES
   111   54  179 1    
   112   55   56 2    
   113   55   57 1    
   114   57   58 1    
   115   57   59 1    
   116   57  180 1    
   117   58  181 1    
   118   58  182 1    
   119   58  183 1    
   120   59   60 am   BACKBONE|DICT|INTERRES
   121   59  184 1    
   122   60   61 2    
   123   60   62 1    
   124   62   63 1    
   125   62   64 1    
   126   62  185 1    
   127   63  186 1    
   128   63  187 1    
   129   63  188 1    
   130   64   65 am   BACKBONE|DICT|INTERRES
   131   64  189 1    
   132   65   66 2    
   133   67   68 2    
   134   67   69 am   BACKBONE|DICT|INTERRES
   135   69   70 1    
   136   69  190 1    
   137   70   71 1    
   138   70   72 1    
   139   70  191 1    
   140   71  192 1    
   141   71  193 1    
   142   71  194 1    
   143   72   73 2    
   144   72   74 am   BACKBONE|DICT|INTERRES
   145   74   75 1    
   146   74  195 1    
   147   75   76 1    
   148   75   77 1    
   149   75  196 1    
   150   76  197 1    
   151   76  198 1    
   152   76  199 1    
   153   77   78 2    
   154   77   79 am   BACKBONE|DICT|INTERRES
   155   79   80 1    
   156   79  200 1    
   157   80   81 1    
   158   80   82 1    
   159   80  201 1    
   160   81  202 1    
   161   81  203 1    
   162   81  204 1    
   163   82   83 2    
   164   82   84 am   BACKBONE|DICT|INTERRES
   165   84   85 1    
   166   84  205 1    
   167   85   86 1    
   168   85   87 1    
   169   85  206 1    
   170   86  207 1    
   171   86  208 1    
   172   86  209 1    
   173   87   88 2    
   174   87   89 am   BACKBONE|DICT|INTERRES
   175   89   90 1    
   176   89  210 1    
   177   90   91 1    
   178   90   92 1    
   179   90  211 1    
   180   91  212 1    
   181   91  213 1    
   182   91  214 1    
   183   92   93 2    
   184   92   94 am   BACKBONE|DICT|INTERRES
   185   94   95 1    
   186   94  215 1    
   187   95   96 1    
   188   95   97 1    
   189   95  216 1    
   190   96  217 1    
   191   96  218 1    
   192   96  219 1    
   193   97   98 2    
   194   97   99 am   BACKBONE|DICT|INTERRES
   195   99  100 1    
   196   99  220 1    
   197  100  101 1    
   198  100  102 1    
   199  100  221 1    
   200  101  222 1    
   201  101  223 1    
   202  101  224 1    
   203  102  103 2    
   204  102  104 am   BACKBONE|DICT|INTERRES
   205  104  105 1    
   206  104  225 1    
   207  105  106 1    
   208  105  107 1    
   209  105  226 1    
   210  106  227 1    
   211  106  228 1    
   212  106  229 1    
   213  107  108 2    
   214  107  109 am   BACKBONE|DICT|INTERRES
   215  109  110 1    
   216  109  230 1    
   217  110  111 1    
   218  110  112 1    
   219  110  231 1    
   220  111  232 1    
   221  111  233 1    
   222  111  234 1    
   223  112  113 2    
   224  112  114 am   BACKBONE|DICT|INTERRES
   225  114  115 1    
   226  114  235 1    
   227  115  116 1    
   228  115  117 1    
   229  115  236 1    
   230  116  237 1    
   231  116  238 1    
   232  116  239 1    
   233  117  118 2    
   234  117  119 am   BACKBONE|DICT|INTERRES
   235  119  120 1    
   236  119  240 1    
   237  120  121 1    
   238  120  124 1    
   239  120  241 1    
   240  121  122 am   BACKBONE|DICT|INTERRES
   241  121  123 2    
   242  122  242 1    
   243  122  243 1    
   244  124  125 1    
   245  124  244 1    
   246  124  245 1    
   247  125  126 1    
   248  126  246 1    
   249  126  247 1    
@<TRIPOS>SUBSTRUCTURE
     1 UNK         1 GROUP             0       ****    0 ROOT    
