@<TRIPOS>MOLECULE
3R540
247   249    1
SMALL
USER_CHARGES


@<TRIPOS>ATOM
      1 CA          3.8128  -13.5878  -46.6468 C.3       0 UNK        -0.1800 
      2 C           2.5609  -13.5080  -45.7872 C.2       0 UNK         0.5000 
      3 O           2.6526  -13.2564  -44.5874 O.2       0 UNK        -0.5000 
      4 N           1.3831  -13.7082  -46.3939 N.am      1 UNK        -0.5000 
      5 CA          0.0803  -13.7777  -45.7136 C.3       1 UNK         0.1400 
      6 C6         -1.0501  -14.2597  -46.6544 C.3       23 UNK        -0.0398 
      7 S7         -0.7526  -15.9297  -47.3349 S.3       23 UNK        -0.2404 
      8 C8         -0.2018  -15.5184  -49.0202 C.3       23 UNK        -0.0205 
      9 C9         -0.0883  -16.7523  -49.9016 C.ar      23 UNK        -0.0193 
     10 C10        -1.0583  -17.0122  -50.8738 C.ar      23 UNK        -0.1150 
     11 C11        -0.9346  -18.1140  -51.7248 C.ar      23 UNK        -0.0193 
     12 C12         0.1600  -18.9713  -51.5852 C.ar      23 UNK        -0.1150 
     13 C13         1.1345  -18.7262  -50.6134 C.ar      23 UNK        -0.0193 
     14 C14         1.0071  -17.6117  -49.7776 C.ar      23 UNK        -0.1150 
     15 C15         2.3424  -19.6454  -50.4924 C.3       23 UNK        -0.0205 
     16 S16         1.9118  -21.2949  -49.8493 S.3       23 UNK        -0.2404 
     17 C17         1.3733  -20.9001  -48.1513 C.3       23 UNK        -0.0398 
     18 CA          0.1895  -21.7669  -47.6578 C.3       11 UNK         0.1400 
     19 N           0.0457  -21.6447  -46.2049 N.am      11 UNK        -0.5000 
     20 C          -0.7544  -22.3907  -45.4320 C.2       10 UNK         0.5000 
     21 O          -1.4480  -23.3121  -45.8548 O.2       10 UNK        -0.5000 
     22 CA         -0.8408  -21.9903  -43.9470 C.3       10 UNK         0.1400 
     23 CB          0.2293  -22.7238  -43.1261 C.3       10 UNK        -0.1800 
     24 N          -0.7027  -20.5469  -43.7393 N.am      10 UNK        -0.5000 
     25 C          -1.5190  -19.6094  -44.2362 C.2       9 UNK         0.5000 
     26 O          -2.5108  -19.8681  -44.9172 O.2       9 UNK        -0.5000 
     27 CA         -1.1276  -18.1406  -43.9955 C.3       9 UNK         0.1400 
     28 CB         -1.4304  -17.7120  -42.5484 C.3       9 UNK        -0.1800 
     29 N           0.2511  -17.8245  -44.4039 N.am      9 UNK        -0.5000 
     30 C           1.4112  -18.2565  -43.8834 C.2       8 UNK         0.5000 
     31 O           1.4900  -18.9718  -42.8847 O.2       8 UNK        -0.5000 
     32 CA          2.7021  -17.8896  -44.6318 C.3       8 UNK         0.1400 
     33 CB          2.4739  -17.2741  -46.0288 C.3       8 UNK        -0.1800 
     34 N           3.5286  -17.0139  -43.8024 N.am      8 UNK        -0.5000 
     35 C           4.8605  -16.9227  -43.9199 C.2       7 UNK         0.5000 
     36 O           5.5050  -17.5649  -44.7509 O.2       7 UNK        -0.5000 
     37 CA          5.6315  -15.9883  -42.9722 C.3       7 UNK         0.1400 
     38 CB          5.8596  -14.6091  -43.6089 C.3       7 UNK        -0.1800 
     39 N           5.0096  -15.8307  -41.6553 N.am      7 UNK        -0.5000 
     40 C           5.7082  -15.7774  -40.5097 C.2       6 UNK         0.5000 
     41 O           6.9365  -15.8621  -40.4576 O.2       6 UNK        -0.5000 
     42 CA          4.9321  -15.5933  -39.1896 C.3       6 UNK         0.1400 
     43 CB          5.0490  -14.1426  -38.6985 C.3       6 UNK        -0.1800 
     44 N           3.5194  -15.9538  -39.2865 N.am      6 UNK        -0.5000 
     45 C           3.0602  -17.2051  -39.4269 C.2       5 UNK         0.5000 
     46 O           3.7863  -18.1995  -39.4030 O.2       5 UNK        -0.5000 
     47 CA          1.5435  -17.3864  -39.6424 C.3       5 UNK         0.1400 
     48 CB          0.8881  -17.9850  -38.3884 C.3       5 UNK        -0.1800 
     49 N           0.8146  -16.1690  -40.0129 N.am      5 UNK        -0.5000 
     50 C           1.0251  -15.4130  -41.0986 C.2       4 UNK         0.5000 
     51 O           1.9287  -15.6251  -41.9120 O.2       4 UNK        -0.5000 
     52 CA          0.0690  -14.2207  -41.3149 C.3       4 UNK         0.1400 
     53 CB         -0.8692  -13.9247  -40.1234 C.3       4 UNK        -0.1800 
     54 N           0.7845  -13.0122  -41.7143 N.am      4 UNK        -0.5000 
     55 C           1.7535  -12.3698  -41.0469 C.2       3 UNK         0.5000 
     56 O           2.1513  -12.7077  -39.9312 O.2       3 UNK        -0.5000 
     57 CA          2.3890  -11.1474  -41.7425 C.3       3 UNK         0.1400 
     58 CB          3.9035  -11.3464  -41.9166 C.3       3 UNK        -0.1800 
     59 N           1.7929  -10.8976  -43.0587 N.am      3 UNK        -0.5000 
     60 C           0.7969  -10.0331  -43.3026 C.2       2 UNK         0.5000 
     61 O           0.3348   -9.2686  -42.4552 O.2       2 UNK        -0.5000 
     62 CA          0.1896  -10.0383  -44.7229 C.3       2 UNK         0.1400 
     63 CB          0.8572   -8.9652  -45.5961 C.3       2 UNK        -0.1800 
     64 N           0.2952  -11.3347  -45.3981 N.am      2 UNK        -0.5000 
     65 C          -0.3175  -12.4618  -45.0060 C.2       1 UNK         0.5000 
     66 O          -1.1259  -12.5021  -44.0795 O.2       1 UNK        -0.5000 
     67 C          -1.1261  -21.4478  -48.4095 C.2       11 UNK         0.5000 
     68 O          -1.4220  -22.0968  -49.4123 O.2       11 UNK        -0.5000 
     69 N          -1.9051  -20.4855  -47.8931 N.am      12 UNK        -0.5000 
     70 CA         -3.2062  -20.1031  -48.4417 C.3       12 UNK         0.1400 
     71 CB         -3.4901  -18.6338  -48.0963 C.3       12 UNK        -0.1800 
     72 C          -4.3465  -21.0160  -47.9504 C.2       12 UNK         0.5000 
     73 O          -5.3569  -21.1392  -48.6405 O.2       12 UNK        -0.5000 
     74 N          -4.1809  -21.6384  -46.7745 N.am      13 UNK        -0.5000 
     75 CA         -5.0956  -22.6552  -46.2495 C.3       13 UNK         0.1400 
     76 CB         -4.8506  -22.8368  -44.7440 C.3       13 UNK        -0.1800 
     77 C          -4.9489  -23.9947  -46.9975 C.2       13 UNK         0.5000 
     78 O          -5.9494  -24.6608  -47.2678 O.2       13 UNK        -0.5000 
     79 N          -3.7023  -24.3490  -47.3324 N.am      14 UNK        -0.5000 
     80 CA         -3.3257  -25.4820  -48.1737 C.3       14 UNK         0.1400 
     81 CB         -1.8283  -25.7648  -47.9527 C.3       14 UNK        -0.1800 
     82 C          -3.6361  -25.2353  -49.6660 C.2       14 UNK         0.5000 
     83 O          -4.2102  -24.2057  -50.0299 O.2       14 UNK        -0.5000 
     84 N          -3.2508  -26.2049  -50.5099 N.am      15 UNK        -0.5000 
     85 CA         -3.3539  -26.1820  -51.9749 C.3       15 UNK         0.1400 
     86 CB         -2.4175  -25.1039  -52.5570 C.3       15 UNK        -0.1800 
     87 C          -4.8084  -26.0427  -52.4673 C.2       15 UNK         0.5000 
     88 O          -5.0792  -25.2686  -53.3870 O.2       15 UNK        -0.5000 
     89 N          -5.7146  -26.7854  -51.8120 N.am      16 UNK        -0.5000 
     90 CA         -7.1687  -26.7781  -52.0065 C.3       16 UNK         0.1400 
     91 CB         -7.5378  -27.3496  -53.3923 C.3       16 UNK        -0.1800 
     92 C          -7.7845  -25.3901  -51.7293 C.2       16 UNK         0.5000 
     93 O          -8.5842  -24.8965  -52.5248 O.2       16 UNK        -0.5000 
     94 N          -7.3665  -24.7799  -50.6088 N.am      17 UNK        -0.5000 
     95 CA         -7.6882  -23.4171  -50.1709 C.3       17 UNK         0.1400 
     96 CB         -9.1817  -23.2879  -49.8051 C.3       17 UNK        -0.1800 
     97 C          -7.2130  -22.3718  -51.1986 C.2       17 UNK         0.5000 
     98 O          -8.0109  -21.5787  -51.7016 O.2       17 UNK        -0.5000 
     99 N          -5.9137  -22.4445  -51.5177 N.am      18 UNK        -0.5000 
    100 CA        -5.1494  -21.6169  -52.4540 C.3       18 UNK         0.1400 
    101 CB        -5.2419  -20.1209  -52.0910 C.3       18 UNK        -0.1800 
    102 C         -5.4703  -21.8339  -53.9448 C.2       18 UNK         0.5000 
    103 O         -4.7750  -21.2532  -54.7796 O.2       18 UNK        -0.5000 
    104 N         -6.4730  -22.6552  -54.2824 N.am      19 UNK        -0.5000 
    105 CA        -6.9508  -22.8774  -55.6494 C.3       19 UNK         0.1400 
    106 CB        -8.1987  -23.7700  -55.6171 C.3       19 UNK        -0.1800 
    107 C         -5.8938  -23.4611  -56.6058 C.2       19 UNK         0.5000 
    108 O         -5.8920  -23.1047  -57.7844 O.2       19 UNK        -0.5000 
    109 N         -5.0074  -24.3204  -56.0872 N.am      20 UNK        -0.5000 
    110 CA        -3.9098  -24.9197  -56.8477 C.3       20 UNK         0.1400 
    111 CB        -3.6889  -26.3587  -56.3538 C.3       20 UNK        -0.1800 
    112 C         -2.6037  -24.1031  -56.7669 C.2       20 UNK         0.5000 
    113 O         -1.7086  -24.3373  -57.5801 O.2       20 UNK        -0.5000 
    114 N         -2.4986  -23.1817  -55.7984 N.am      21 UNK        -0.5000 
    115 CA        -1.3091  -22.3576  -55.5693 C.3       21 UNK         0.1400 
    116 CB        -1.0885  -22.1631  -54.0600 C.3       21 UNK        -0.1800 
    117 C         -1.4082  -21.0011  -56.2828 C.2       21 UNK         0.5000 
    118 O         -0.5197  -20.6590  -57.0644 O.2       21 UNK        -0.5000 
    119 N         -2.4814  -20.2597  -55.9927 N.am      22 UNK        -0.5000 
    120 CA        -2.7705  -18.9239  -56.5355 C.3       22 UNK         0.1400 
    121 C         -4.0083  -18.9199  -57.4741 C.2       22 UNK         0.5000 
    122 N         -4.9373  -19.8594  -57.3488 N.am      22 UNK        -0.7600 
    123 O         -4.1213  -18.0554  -58.3388 O.2       22 UNK        -0.5000 
    124 C124       -2.9597  -17.8779  -55.4068 C.3       23 UNK        -0.0398 
    125 S125       -1.4615  -17.6338  -54.3905 S.3       23 UNK        -0.2404 
    126 C126       -1.9744  -18.3632  -52.8045 C.3       23 UNK        -0.0205 
    127 H127        4.4339  -12.7061  -46.4895 H         1 UNK         0.0600 
    128 H128        4.3934  -14.4693  -46.3754 H         1 UNK         0.0600 
    129 H129        3.5718  -13.6513  -47.7080 H         1 UNK         0.0600 
    130 H130        1.3669  -13.8907  -47.3859 H         1 UNK         0.3000 
    131 H131        0.1841  -14.5215  -44.9200 H         1 UNK         0.0600 
    132 H132       -1.2054  -13.5469  -47.4660 H         1 UNK         0.0800 
    133 H133       -1.9969  -14.3050  -46.1128 H         1 UNK         0.0800 
    134 H134       -0.8989  -14.8070  -49.4659 H         1 UNK         0.0800 
    135 H135        0.7652  -15.0167  -48.9779 H         1 UNK         0.0800 
    136 H136       -1.9013  -16.3445  -50.9828 H         1 UNK         0.1150 
    137 H137        0.2622  -19.8239  -52.2405 H         1 UNK         0.1150 
    138 H138        1.7650  -17.4036  -49.0360 H         1 UNK         0.1150 
    139 H139        2.7988  -19.7613  -51.4764 H         1 UNK         0.0800 
    140 H140        3.1072  -19.2010  -49.8534 H         1 UNK         0.0800 
    141 H141        1.1257  -19.8421  -48.0661 H         1 UNK         0.0800 
    142 H142        2.2398  -21.0554  -47.5069 H         1 UNK         0.0800 
    143 H143        0.4292  -22.8130  -47.8615 H         1 UNK         0.0600 
    144 H144        0.5745  -20.9115  -45.7586 H         1 UNK         0.3000 
    145 H145       -1.8234  -22.2886  -43.5773 H         1 UNK         0.0600 
    146 H146        0.1262  -22.5074  -42.0626 H         1 UNK         0.0600 
    147 H147        0.1426  -23.8044  -43.2475 H         1 UNK         0.0600 
    148 H148        1.2370  -22.4374  -43.4300 H         1 UNK         0.0600 
    149 H149        0.1078  -20.2270  -43.2151 H         1 UNK         0.3000 
    150 H150       -1.7699  -17.5440  -44.6458 H         1 UNK         0.0600 
    151 H151       -2.4561  -17.9636  -42.2757 H         1 UNK         0.0600 
    152 H152       -1.3285  -16.6358  -42.4349 H         1 UNK         0.0600 
    153 H153       -0.7763  -18.1952  -41.8231 H         1 UNK         0.0600 
    154 H154        0.3128  -17.2621  -45.2417 H         1 UNK         0.3000 
    155 H155        3.2311  -18.8348  -44.7712 H         1 UNK         0.0600 
    156 H156        3.4162  -17.1088  -46.5509 H         1 UNK         0.0600 
    157 H157        1.9613  -16.3179  -45.9648 H         1 UNK         0.0600 
    158 H158        1.8756  -17.9337  -46.6574 H         1 UNK         0.0600 
    159 H159        3.0244  -16.4743  -43.1012 H         1 UNK         0.3000 
    160 H160        6.6108  -16.4567  -42.8519 H         1 UNK         0.0600 
    161 H161        4.9224  -14.0709  -43.7300 H         1 UNK         0.0600 
    162 H162        6.3182  -14.7002  -44.5942 H         1 UNK         0.0600 
    163 H163        6.5209  -13.9954  -42.9971 H         1 UNK         0.0600 
    164 H164        3.9994  -15.7548  -41.6232 H         1 UNK         0.3000 
    165 H165        5.3957  -16.2415  -38.4429 H         1 UNK         0.0600 
    166 H166        4.6532  -13.4391  -39.4307 H         1 UNK         0.0600 
    167 H167        4.5106  -13.9942  -37.7624 H         1 UNK         0.0600 
    168 H168        6.0911  -13.8745  -38.5204 H         1 UNK         0.0600 
    169 H169        2.8596  -15.1890  -39.3306 H         1 UNK         0.3000 
    170 H170        1.4240  -18.1002  -40.4574 H         1 UNK         0.0600 
    171 H171        1.3759  -18.9162  -38.0968 H         1 UNK         0.0600 
    172 H172        0.9486  -17.3028  -37.5395 H         1 UNK         0.0600 
    173 H173       -0.1633  -18.2141  -38.5634 H         1 UNK         0.0600 
    174 H174        0.0669  -15.8997  -39.3903 H         1 UNK         0.3000 
    175 H175       -0.5559  -14.4851  -42.1676 H         1 UNK         0.0600 
    176 H176       -1.5130  -13.0722  -40.3412 H         1 UNK         0.0600 
    177 H177       -1.5263  -14.7696  -39.9143 H         1 UNK         0.0600 
    178 H178       -0.3160  -13.6936  -39.2122 H         1 UNK         0.0600 
    179 H179        0.5298  -12.6486  -42.6220 H         1 UNK         0.3000 
    180 H180        2.2346  -10.2850  -41.0911 H         1 UNK         0.0600 
    181 H181        4.1255  -12.2392  -42.5002 H         1 UNK         0.0600 
    182 H182        4.3986  -11.4547  -40.9511 H         1 UNK         0.0600 
    183 H183        4.3591  -10.4938  -42.4202 H         1 UNK         0.0600 
    184 H184        2.0976  -11.5262  -43.7964 H         1 UNK         0.3000 
    185 H185       -0.8703   -9.7930  -44.6287 H         1 UNK         0.0600 
    186 H186        0.3861   -8.9052  -46.5774 H         1 UNK         0.0600 
    187 H187        0.7736   -7.9797  -45.1361 H         1 UNK         0.0600 
    188 H188        1.9185   -9.1697  -45.7438 H         1 UNK         0.0600 
    189 H189        0.9531  -11.3940  -46.1616 H         1 UNK         0.3000 
    190 H190       -1.6350  -20.0362  -47.0300 H         1 UNK         0.3000 
    191 H191       -3.1642  -20.1854  -49.5296 H         1 UNK         0.0600 
    192 H192       -2.7222  -17.9799  -48.5093 H         1 UNK         0.0600 
    193 H193       -4.4457  -18.3134  -48.5129 H         1 UNK         0.0600 
    194 H194       -3.5289  -18.4692  -47.0193 H         1 UNK         0.0600 
    195 H195       -3.3597  -21.4244  -46.2240 H         1 UNK         0.3000 
    196 H196       -6.1205  -22.3034  -46.3854 H         1 UNK         0.0600 
    197 H197       -5.5760  -23.5286  -44.3144 H         1 UNK         0.0600 
    198 H198       -4.9456  -21.8906  -44.2107 H         1 UNK         0.0600 
    199 H199       -3.8580  -23.2383  -44.5412 H         1 UNK         0.0600 
    200 H200       -2.9369  -23.7607  -47.0194 H         1 UNK         0.3000 
    201 H201       -3.8979  -26.3547  -47.8532 H         1 UNK         0.0600 
    202 H202       -1.6092  -25.9158  -46.8954 H         1 UNK         0.0600 
    203 H203       -1.2106  -24.9374  -48.3051 H         1 UNK         0.0600 
    204 H204       -1.5037  -26.6652  -48.4744 H         1 UNK         0.0600 
    205 H205       -2.8043  -27.0242  -50.1224 H         1 UNK         0.3000 
    206 H206       -3.0021  -27.1516  -52.3298 H         1 UNK         0.0600 
    207 H207       -1.4003  -25.2236  -52.1843 H         1 UNK         0.0600 
    208 H208       -2.3704  -25.1638  -53.6432 H         1 UNK         0.0600 
    209 H209       -2.7497  -24.0979  -52.2998 H         1 UNK         0.0600 
    210 H210       -5.3781  -27.3788  -51.0671 H         1 UNK         0.3000 
    211 H211       -7.5872  -27.4492  -51.2551 H         1 UNK         0.0600 
    212 H212       -7.1521  -26.7340  -54.2045 H         1 UNK         0.0600 
    213 H213       -8.6196  -27.4132  -53.5147 H         1 UNK         0.0600 
    214 H214       -7.1382  -28.3554  -53.5200 H         1 UNK         0.0600 
    215 H215       -6.6751  -25.2527  -50.0440 H         1 UNK         0.3000 
    216 H216       -7.1127  -23.2367  -49.2625 H         1 UNK         0.0600 
    217 H217       -9.4674  -24.0250  -49.0548 H         1 UNK         0.0600 
    218 H218       -9.8295  -23.4218  -50.6717 H         1 UNK         0.0600 
    219 H219       -9.3935  -22.3022  -49.3893 H         1 UNK         0.0600 
    220 H220       -5.3549  -23.1400  -51.0244 H         1 UNK         0.3000 
    221 H221       -4.1108  -21.9219  -52.3236 H         1 UNK         0.0600 
    222 H222       -6.2535  -19.7325  -52.2060 H         1 UNK         0.0600 
    223 H223       -4.9290  -19.9380  -51.0648 H         1 UNK         0.0600 
    224 H224       -4.6031  -19.5240  -52.7389 H         1 UNK         0.0600 
    225 H225       -6.9741  -23.1299  -53.5439 H         1 UNK         0.3000 
    226 H226       -7.2454  -21.9043  -56.0477 H         1 UNK         0.0600 
    227 H227       -8.9805  -23.3349  -54.9941 H         1 UNK         0.0600 
    228 H228       -8.6132  -23.9003  -56.6175 H         1 UNK         0.0600 
    229 H229       -7.9707  -24.7607  -55.2249 H         1 UNK         0.0600 
    230 H230       -5.0856  -24.5814  -55.1050 H         1 UNK         0.3000 
    231 H231       -4.1849  -24.9782  -57.9029 H         1 UNK         0.0600 
    232 H232       -4.5956  -26.9540  -56.4623 H         1 UNK         0.0600 
    233 H233       -3.3951  -26.3900  -55.3060 H         1 UNK         0.0600 
    234 H234       -2.9051  -26.8537  -56.9284 H         1 UNK         0.0600 
    235 H235       -3.3055  -23.0019  -55.2187 H         1 UNK         0.3000 
    236 H236       -0.4246  -22.8664  -55.9589 H         1 UNK         0.0600 
    237 H237       -0.7908  -23.0969  -53.5859 H         1 UNK         0.0600 
    238 H238       -0.2892  -21.4458  -53.8724 H         1 UNK         0.0600 
    239 H239       -1.9841  -21.7988  -53.5574 H         1 UNK         0.0600 
    240 H240       -3.2020  -20.6468  -55.3899 H         1 UNK         0.3000 
    241 H241       -1.9319  -18.5906  -57.1496 H         1 UNK         0.0600 
    242 H242       -4.8832  -20.5348  -56.5960 H         1 UNK         0.3800 
    243 H243       -5.7271  -19.8646  -57.9739 H         1 UNK         0.3800 
    244 H244       -3.2156  -16.9057  -55.8319 H         1 UNK         0.0800 
    245 H245       -3.8002  -18.1561  -54.7688 H         1 UNK         0.0800 
    246 H246       -2.9273  -17.9293  -52.4993 H         1 UNK         0.0800 
    247 H247       -2.1379  -19.4340  -52.9290 H         1 UNK         0.0800 
@<TRIPOS>BOND
     1    1    2 1    
     2    1  127 1    
     3    1  128 1    
     4    1  129 1    
     5    2    3 2    
     6    2    4 am   BACKBONE|DICT|INTERRES
     7    4    5 1    
     8    4  130 1    
     9    5    6 1    
    10    5   65 1    
    11    5  131 1    
    12    6    7 1    
    13    6  132 1    
    14    6  133 1    
    15    7    8 1    
    16    8    9 1    
    17    8  134 1    
    18    8  135 1    
    19    9   10 ar   
    20    9   14 ar   
    21   10   11 ar   
    22   10  136 1    
    23   11   12 ar   
    24   11  126 1    
    25   12   13 ar   
    26   12  137 1    
    27   13   14 ar   
    28   13   15 1    
    29   14  138 1    
    30   15   16 1    
    31   15  139 1    
    32   15  140 1    
    33   16   17 1    
    34   17   18 1    
    35   17  141 1    
    36   17  142 1    
    37   18   19 1    
    38   18   67 1    
    39   18  143 1    
    40   19   20 am   BACKBONE|DICT|INTERRES
    41   19  144 1    
    42   20   21 2    
    43   20   22 1    
    44   22   23 1    
    45   22   24 1    
    46   22  145 1    
    47   23  146 1    
    48   23  147 1    
    49   23  148 1    
    50   24   25 am   BACKBONE|DICT|INTERRES
    51   24  149 1    
    52   25   26 2    
    53   25   27 1    
    54   27   28 1    
    55   27   29 1    
    56   27  150 1    
    57   28  151 1    
    58   28  152 1    
    59   28  153 1    
    60   29   30 am   BACKBONE|DICT|INTERRES
    61   29  154 1    
    62   30   31 2    
    63   30   32 1    
    64   32   33 1    
    65   32   34 1    
    66   32  155 1    
    67   33  156 1    
    68   33  157 1    
    69   33  158 1    
    70   34   35 am   BACKBONE|DICT|INTERRES
    71   34  159 1    
    72   35   36 2    
    73   35   37 1    
    74   37   38 1    
    75   37   39 1    
    76   37  160 1    
    77   38  161 1    
    78   38  162 1    
    79   38  163 1    
    80   39   40 am   BACKBONE|DICT|INTERRES
    81   39  164 1    
    82   40   41 2    
    83   40   42 1    
    84   42   43 1    
    85   42   44 1    
    86   42  165 1    
    87   43  166 1    
    88   43  167 1    
    89   43  168 1    
    90   44   45 am   BACKBONE|DICT|INTERRES
    91   44  169 1    
    92   45   46 2    
    93   45   47 1    
    94   47   48 1    
    95   47   49 1    
    96   47  170 1    
    97   48  171 1    
    98   48  172 1    
    99   48  173 1    
   100   49   50 am   BACKBONE|DICT|INTERRES
   101   49  174 1    
   102   50   51 2    
   103   50   52 1    
   104   52   53 1    
   105   52   54 1    
   106   52  175 1    
   107   53  176 1    
   108   53  177 1    
   109   53  178 1    
   110   54   55 am   BACKBONE|DICT|INTERRES
   111   54  179 1    
   112   55   56 2    
   113   55   57 1    
   114   57   58 1    
   115   57   59 1    
   116   57  180 1    
   117   58  181 1    
   118   58  182 1    
   119   58  183 1    
   120   59   60 am   BACKBONE|DICT|INTERRES
   121   59  184 1    
   122   60   61 2    
   123   60   62 1    
   124   62   63 1    
   125   62   64 1    
   126   62  185 1    
   127   63  186 1    
   128   63  187 1    
   129   63  188 1    
   130   64   65 am   BACKBONE|DICT|INTERRES
   131   64  189 1    
   132   65   66 2    
   133   67   68 2    
   134   67   69 am   BACKBONE|DICT|INTERRES
   135   69   70 1    
   136   69  190 1    
   137   70   71 1    
   138   70   72 1    
   139   70  191 1    
   140   71  192 1    
   141   71  193 1    
   142   71  194 1    
   143   72   73 2    
   144   72   74 am   BACKBONE|DICT|INTERRES
   145   74   75 1    
   146   74  195 1    
   147   75   76 1    
   148   75   77 1    
   149   75  196 1    
   150   76  197 1    
   151   76  198 1    
   152   76  199 1    
   153   77   78 2    
   154   77   79 am   BACKBONE|DICT|INTERRES
   155   79   80 1    
   156   79  200 1    
   157   80   81 1    
   158   80   82 1    
   159   80  201 1    
   160   81  202 1    
   161   81  203 1    
   162   81  204 1    
   163   82   83 2    
   164   82   84 am   BACKBONE|DICT|INTERRES
   165   84   85 1    
   166   84  205 1    
   167   85   86 1    
   168   85   87 1    
   169   85  206 1    
   170   86  207 1    
   171   86  208 1    
   172   86  209 1    
   173   87   88 2    
   174   87   89 am   BACKBONE|DICT|INTERRES
   175   89   90 1    
   176   89  210 1    
   177   90   91 1    
   178   90   92 1    
   179   90  211 1    
   180   91  212 1    
   181   91  213 1    
   182   91  214 1    
   183   92   93 2    
   184   92   94 am   BACKBONE|DICT|INTERRES
   185   94   95 1    
   186   94  215 1    
   187   95   96 1    
   188   95   97 1    
   189   95  216 1    
   190   96  217 1    
   191   96  218 1    
   192   96  219 1    
   193   97   98 2    
   194   97   99 am   BACKBONE|DICT|INTERRES
   195   99  100 1    
   196   99  220 1    
   197  100  101 1    
   198  100  102 1    
   199  100  221 1    
   200  101  222 1    
   201  101  223 1    
   202  101  224 1    
   203  102  103 2    
   204  102  104 am   BACKBONE|DICT|INTERRES
   205  104  105 1    
   206  104  225 1    
   207  105  106 1    
   208  105  107 1    
   209  105  226 1    
   210  106  227 1    
   211  106  228 1    
   212  106  229 1    
   213  107  108 2    
   214  107  109 am   BACKBONE|DICT|INTERRES
   215  109  110 1    
   216  109  230 1    
   217  110  111 1    
   218  110  112 1    
   219  110  231 1    
   220  111  232 1    
   221  111  233 1    
   222  111  234 1    
   223  112  113 2    
   224  112  114 am   BACKBONE|DICT|INTERRES
   225  114  115 1    
   226  114  235 1    
   227  115  116 1    
   228  115  117 1    
   229  115  236 1    
   230  116  237 1    
   231  116  238 1    
   232  116  239 1    
   233  117  118 2    
   234  117  119 am   BACKBONE|DICT|INTERRES
   235  119  120 1    
   236  119  240 1    
   237  120  121 1    
   238  120  124 1    
   239  120  241 1    
   240  121  122 am   BACKBONE|DICT|INTERRES
   241  121  123 2    
   242  122  242 1    
   243  122  243 1    
   244  124  125 1    
   245  124  244 1    
   246  124  245 1    
   247  125  126 1    
   248  126  246 1    
   249  126  247 1    
@<TRIPOS>SUBSTRUCTURE
     1 UNK         1 GROUP             0       ****    0 ROOT    
