@<TRIPOS>MOLECULE
3R540
247   249    1
SMALL
USER_CHARGES


@<TRIPOS>ATOM
      1 CA         -4.2979  -15.8715  -47.5914 C.3       0 UNK        -0.1800 
      2 C          -3.5327  -14.6296  -48.0272 C.2       0 UNK         0.5000 
      3 O          -4.1357  -13.6634  -48.4943 O.2       0 UNK        -0.5000 
      4 N          -2.2036  -14.6654  -47.8873 N.am      1 UNK        -0.5000 
      5 CA         -1.2892  -13.5541  -48.1713 C.3       1 UNK         0.1400 
      6 C6          0.1685  -14.0612  -48.3223 C.3       23 UNK        -0.0398 
      7 S7          0.4113  -15.0756  -49.8174 S.3       23 UNK        -0.2404 
      8 C8          0.3052  -16.7700  -49.1639 C.3       23 UNK        -0.0205 
      9 C9          1.3226  -17.6743  -49.8381 C.ar      23 UNK        -0.0193 
     10 C10         1.0226  -18.3028  -51.0505 C.ar      23 UNK        -0.1150 
     11 C11         1.9600  -19.1314  -51.6733 C.ar      23 UNK        -0.0193 
     12 C12         3.2035  -19.3345  -51.0682 C.ar      23 UNK        -0.1150 
     13 C13         3.5137  -18.7148  -49.8530 C.ar      23 UNK        -0.0193 
     14 C14         2.5714  -17.8808  -49.2464 C.ar      23 UNK        -0.1150 
     15 C15         4.8584  -18.9662  -49.1827 C.3       23 UNK        -0.0205 
     16 S16         4.6943  -19.9452  -47.6524 S.3       23 UNK        -0.2404 
     17 C17         3.6339  -21.3093  -48.2318 C.3       23 UNK        -0.0398 
     18 CA          3.7791  -22.6085  -47.4082 C.3       11 UNK         0.1400 
     19 N           3.3531  -22.4281  -46.0138 N.am      11 UNK        -0.5000 
     20 C           3.7079  -23.2226  -44.9949 C.2       10 UNK         0.5000 
     21 O           4.5091  -24.1513  -45.1037 O.2       10 UNK        -0.5000 
     22 CA          3.0177  -22.9749  -43.6377 C.3       10 UNK         0.1400 
     23 CB          3.8154  -21.9720  -42.7911 C.3       10 UNK        -0.1800 
     24 N           1.6278  -22.5243  -43.7673 N.am      10 UNK        -0.5000 
     25 C           0.6351  -23.2682  -44.2789 C.2       9 UNK         0.5000 
     26 O           0.7852  -24.4275  -44.6637 O.2       9 UNK        -0.5000 
     27 CA         -0.7438  -22.6006  -44.4397 C.3       9 UNK         0.1400 
     28 CB         -1.5514  -22.6983  -43.1374 C.3       9 UNK        -0.1800 
     29 N          -0.6627  -21.2027  -44.8613 N.am      9 UNK        -0.5000 
     30 C          -0.1310  -20.7837  -46.0176 C.2       8 UNK         0.5000 
     31 O           0.3406  -21.5423  -46.8646 O.2       8 UNK        -0.5000 
     32 CA         -0.0432  -19.2586  -46.2257 C.3       8 UNK         0.1400 
     33 CB         -1.4160  -18.6453  -46.5477 C.3       8 UNK        -0.1800 
     34 N           0.5207  -18.5791  -45.0597 N.am      8 UNK        -0.5000 
     35 C           1.7445  -18.8122  -44.5643 C.2       7 UNK         0.5000 
     36 O           2.5511  -19.5925  -45.0662 O.2       7 UNK        -0.5000 
     37 CA          2.1016  -18.0932  -43.2549 C.3       7 UNK         0.1400 
     38 CB          2.5696  -16.6597  -43.5341 C.3       7 UNK        -0.1800 
     39 N           0.9714  -18.0735  -42.3265 N.am      7 UNK        -0.5000 
     40 C           0.5141  -19.1566  -41.6817 C.2       6 UNK         0.5000 
     41 O           1.0254  -20.2728  -41.7729 O.2       6 UNK        -0.5000 
     42 CA         -0.7524  -18.9693  -40.8260 C.3       6 UNK         0.1400 
     43 CB         -0.3992  -18.3735  -39.4550 C.3       6 UNK        -0.1800 
     44 N          -1.7554  -18.1259  -41.4779 N.am      6 UNK        -0.5000 
     45 C          -2.3900  -18.4445  -42.6147 C.2       5 UNK         0.5000 
     46 O          -2.2214  -19.5038  -43.2144 O.2       5 UNK        -0.5000 
     47 CA         -3.3452  -17.3926  -43.2065 C.3       5 UNK         0.1400 
     48 CB         -4.7791  -17.6261  -42.7073 C.3       5 UNK        -0.1800 
     49 N          -2.9608  -16.0105  -42.9159 N.am      5 UNK        -0.5000 
     50 C          -1.8135  -15.4213  -43.2783 C.2       4 UNK         0.5000 
     51 O          -0.9093  -15.9973  -43.8910 O.2       4 UNK        -0.5000 
     52 CA         -1.6948  -13.9414  -42.8764 C.3       4 UNK         0.1400 
     53 CB         -1.7230  -13.7443  -41.3450 C.3       4 UNK        -0.1800 
     54 N          -0.5631  -13.2625  -43.5104 N.am      4 UNK        -0.5000 
     55 C           0.7314  -13.2340  -43.1590 C.2       3 UNK         0.5000 
     56 O           1.1907  -13.8102  -42.1726 O.2       3 UNK        -0.5000 
     57 CA          1.6891  -12.4073  -44.0528 C.3       3 UNK         0.1400 
     58 CB          2.8046  -13.2908  -44.6350 C.3       3 UNK        -0.1800 
     59 N           1.0238  -11.7216  -45.1640 N.am      3 UNK        -0.5000 
     60 C           0.2452  -10.6337  -45.0722 C.2       2 UNK         0.5000 
     61 O           0.0941   -9.9881  -44.0352 O.2       2 UNK        -0.5000 
     62 CA         -0.5352  -10.2309  -46.3449 C.3       2 UNK         0.1400 
     63 CB          0.1562   -9.0531  -47.0482 C.3       2 UNK        -0.1800 
     64 N          -0.7129  -11.3259  -47.3108 N.am      2 UNK        -0.5000 
     65 C          -1.3665  -12.4729  -47.0693 C.2       1 UNK         0.5000 
     66 O          -1.9393  -12.7059  -46.0021 O.2       1 UNK        -0.5000 
     67 C           3.0127  -23.7437  -48.1267 C.2       11 UNK         0.5000 
     68 O           3.3923  -24.1010  -49.2425 O.2       11 UNK        -0.5000 
     69 N           1.9452  -24.2646  -47.5042 N.am      12 UNK        -0.5000 
     70 CA          0.9742  -25.2178  -48.0472 C.3       12 UNK         0.1400 
     71 CB          1.6375  -26.5574  -48.4328 C.3       12 UNK        -0.1800 
     72 C           0.1021  -24.6143  -49.1692 C.2       12 UNK         0.5000 
     73 O          -0.3271  -25.3352  -50.0720 O.2       12 UNK        -0.5000 
     74 N          -0.1856  -23.3089  -49.0669 N.am      13 UNK        -0.5000 
     75 CA         -1.2399  -22.6339  -49.8217 C.3       13 UNK         0.1400 
     76 CB         -0.9936  -21.1183  -49.7800 C.3       13 UNK        -0.1800 
     77 C          -2.6180  -22.9699  -49.2177 C.2       13 UNK         0.5000 
     78 O          -2.6971  -23.5478  -48.1293 O.2       13 UNK        -0.5000 
     79 N          -3.6900  -22.5896  -49.9242 N.am      14 UNK        -0.5000 
     80 CA         -5.0697  -22.8486  -49.5035 C.3       14 UNK         0.1400 
     81 CB         -6.0203  -22.5160  -50.6589 C.3       14 UNK        -0.1800 
     82 C          -5.4858  -22.0928  -48.2275 C.2       14 UNK         0.5000 
     83 O          -6.3620  -22.5718  -47.5073 O.2       14 UNK        -0.5000 
     84 N          -4.8707  -20.9248  -47.9851 N.am      15 UNK        -0.5000 
     85 CA         -5.0106  -20.0209  -46.8322 C.3       15 UNK         0.1400 
     86 CB         -4.6236  -20.7279  -45.5206 C.3       15 UNK        -0.1800 
     87 C          -6.3789  -19.3168  -46.7223 C.2       15 UNK         0.5000 
     88 O          -6.4258  -18.1423  -46.3585 O.2       15 UNK        -0.5000 
     89 N          -7.4581  -20.0148  -47.0945 N.am      16 UNK        -0.5000 
     90 CA         -8.7838  -19.4541  -47.3630 C.3       16 UNK         0.1400 
     91 CB         -9.8117  -20.5957  -47.3657 C.3       16 UNK        -0.1800 
     92 C          -8.8277  -18.6821  -48.6996 C.2       16 UNK         0.5000 
     93 O          -9.7188  -17.8552  -48.8962 O.2       16 UNK        -0.5000 
     94 N          -7.8562  -18.9565  -49.5780 N.am      17 UNK        -0.5000 
     95 CA         -7.5488  -18.2136  -50.7925 C.3       17 UNK         0.1400 
     96 CB         -7.8610  -19.0860  -52.0196 C.3       17 UNK        -0.1800 
     97 C          -6.0606  -17.8335  -50.7460 C.2       17 UNK         0.5000 
     98 O          -5.2911  -18.4397  -49.9943 O.2       17 UNK        -0.5000 
     99 N          -5.6834  -16.8359  -51.5538 N.am      18 UNK        -0.5000 
    100 CA        -4.3525  -16.2212  -51.5661 C.3       18 UNK         0.1400 
    101 CB        -4.4096  -14.9338  -52.4028 C.3       18 UNK        -0.1800 
    102 C         -3.2085  -17.1310  -52.0540 C.2       18 UNK         0.5000 
    103 O         -2.0503  -16.8133  -51.7946 O.2       18 UNK        -0.5000 
    104 N         -3.5356  -18.2242  -52.7506 N.am      19 UNK        -0.5000 
    105 CA        -2.5870  -19.2047  -53.2632 C.3       19 UNK         0.1400 
    106 CB        -1.8889  -18.6678  -54.5318 C.3       19 UNK        -0.1800 
    107 C         -3.3458  -20.5199  -53.4755 C.2       19 UNK         0.5000 
    108 O         -3.5016  -21.2871  -52.5227 O.2       19 UNK        -0.5000 
    109 N         -3.8248  -20.7314  -54.7101 N.am      20 UNK        -0.5000 
    110 CA        -4.6182  -21.8558  -55.2195 C.3       20 UNK         0.1400 
    111 CB        -6.0064  -21.9106  -54.5533 C.3       20 UNK        -0.1800 
    112 C         -3.8796  -23.2057  -55.1620 C.2       20 UNK         0.5000 
    113 O         -3.4663  -23.7172  -56.2039 O.2       20 UNK        -0.5000 
    114 N         -3.6797  -23.7368  -53.9490 N.am      21 UNK        -0.5000 
    115 CA        -2.9669  -24.9901  -53.6785 C.3       21 UNK         0.1400 
    116 CB        -3.1955  -25.3971  -52.2166 C.3       21 UNK        -0.1800 
    117 C         -1.4602  -24.9308  -54.0099 C.2       21 UNK         0.5000 
    118 O         -0.8348  -25.9810  -54.1603 O.2       21 UNK        -0.5000 
    119 N         -0.9194  -23.7140  -54.1650 N.am      22 UNK        -0.5000 
    120 CA         0.4125  -23.4469  -54.7314 C.3       22 UNK         0.1400 
    121 C          0.5621  -23.8474  -56.2320 C.2       22 UNK         0.5000 
    122 N         -0.5136  -24.0476  -56.9871 N.am      22 UNK        -0.7600 
    123 O          1.6808  -23.9781  -56.7207 O.2       22 UNK        -0.5000 
    124 C124        0.8348  -21.9663  -54.5475 C.3       23 UNK        -0.0398 
    125 S125        0.8738  -21.4211  -52.8087 S.3       23 UNK        -0.2404 
    126 C126        1.6438  -19.7843  -53.0107 C.3       23 UNK        -0.0205 
    127 H127       -4.6159  -15.7741  -46.5534 H         1 UNK         0.0600 
    128 H128       -3.6869  -16.7696  -47.6820 H         1 UNK         0.0600 
    129 H129       -5.1866  -16.0111  -48.2070 H         1 UNK         0.0600 
    130 H130       -1.7795  -15.4754  -47.4639 H         1 UNK         0.3000 
    131 H131       -1.5961  -13.0849  -49.1087 H         1 UNK         0.0600 
    132 H132        0.8639  -13.2263  -48.4208 H         1 UNK         0.0800 
    133 H133        0.4898  -14.6061  -47.4329 H         1 UNK         0.0800 
    134 H134        0.4729  -16.7765  -48.0870 H         1 UNK         0.0800 
    135 H135       -0.7037  -17.1538  -49.3237 H         1 UNK         0.0800 
    136 H136        0.0617  -18.1412  -51.5145 H         1 UNK         0.1150 
    137 H137        3.9278  -19.9811  -51.5434 H         1 UNK         0.1150 
    138 H138        2.8087  -17.4035  -48.3058 H         1 UNK         0.1150 
    139 H139        5.5370  -19.4836  -49.8625 H         1 UNK         0.0800 
    140 H140        5.3298  -18.0114  -48.9462 H         1 UNK         0.0800 
    141 H141        2.5980  -20.9650  -48.2300 H         1 UNK         0.0800 
    142 H142        3.8900  -21.4998  -49.2758 H         1 UNK         0.0800 
    143 H143        4.8339  -22.8913  -47.4107 H         1 UNK         0.0600 
    144 H144        2.7367  -21.6439  -45.8300 H         1 UNK         0.3000 
    145 H145        3.0045  -23.9261  -43.1015 H         1 UNK         0.0600 
    146 H146        3.3670  -21.8419  -41.8061 H         1 UNK         0.0600 
    147 H147        3.8702  -20.9933  -43.2666 H         1 UNK         0.0600 
    148 H148        4.8383  -22.3184  -42.6391 H         1 UNK         0.0600 
    149 H149        1.4187  -21.5901  -43.4346 H         1 UNK         0.3000 
    150 H150       -1.2851  -23.1455  -45.2165 H         1 UNK         0.0600 
    151 H151       -1.6367  -23.7337  -42.8056 H         1 UNK         0.0600 
    152 H152       -2.5632  -22.3156  -43.2729 H         1 UNK         0.0600 
    153 H153       -1.0845  -22.1304  -42.3319 H         1 UNK         0.0600 
    154 H154       -1.0642  -20.5173  -44.2249 H         1 UNK         0.3000 
    155 H155        0.6249  -19.0751  -47.0695 H         1 UNK         0.0600 
    156 H156       -1.7830  -18.9755  -47.5178 H         1 UNK         0.0600 
    157 H157       -1.3681  -17.5571  -46.5752 H         1 UNK         0.0600 
    158 H158       -2.1630  -18.9227  -45.8062 H         1 UNK         0.0600 
    159 H159       -0.0686  -17.9052  -44.5856 H         1 UNK         0.3000 
    160 H160        2.9256  -18.6346  -42.7853 H         1 UNK         0.0600 
    161 H161        1.7846  -16.0683  -44.0048 H         1 UNK         0.0600 
    162 H162        3.4317  -16.6528  -44.2021 H         1 UNK         0.0600 
    163 H163        2.8643  -16.1539  -42.6146 H         1 UNK         0.0600 
    164 H164        0.4651  -17.2025  -42.2473 H         1 UNK         0.3000 
    165 H165       -1.1938  -19.9555  -40.6669 H         1 UNK         0.0600 
    166 H166       -1.2779  -18.3153  -38.8124 H         1 UNK         0.0600 
    167 H167        0.3383  -18.9907  -38.9402 H         1 UNK         0.0600 
    168 H168        0.0180  -17.3698  -39.5457 H         1 UNK         0.0600 
    169 H169       -1.9527  -17.2335  -41.0504 H         1 UNK         0.3000 
    170 H170       -3.3386  -17.5158  -44.2908 H         1 UNK         0.0600 
    171 H171       -5.0947  -18.6566  -42.8712 H         1 UNK         0.0600 
    172 H172       -4.8708  -17.4254  -41.6391 H         1 UNK         0.0600 
    173 H173       -5.4876  -16.9854  -43.2329 H         1 UNK         0.0600 
    174 H174       -3.6475  -15.4603  -42.4206 H         1 UNK         0.3000 
    175 H175       -2.5765  -13.4440  -43.2835 H         1 UNK         0.0600 
    176 H176       -0.9646  -14.3441  -40.8412 H         1 UNK         0.0600 
    177 H177       -1.5592  -12.7002  -41.0775 H         1 UNK         0.0600 
    178 H178       -2.6882  -14.0327  -40.9281 H         1 UNK         0.0600 
    179 H179       -0.8148  -12.8123  -44.3837 H         1 UNK         0.3000 
    180 H180        2.1517  -11.6538  -43.4123 H         1 UNK         0.0600 
    181 H181        3.3643  -13.7901  -43.8433 H         1 UNK         0.0600 
    182 H182        3.5188  -12.6982  -45.2068 H         1 UNK         0.0600 
    183 H183        2.4043  -14.0616  -45.2945 H         1 UNK         0.0600 
    184 H184        1.1021  -12.1641  -46.0661 H         1 UNK         0.3000 
    185 H185       -1.5275   -9.9054  -46.0260 H         1 UNK         0.0600 
    186 H186        0.2783   -8.2085  -46.3685 H         1 UNK         0.0600 
    187 H187        1.1473   -9.3272  -47.4121 H         1 UNK         0.0600 
    188 H188       -0.4293   -8.7011  -47.8978 H         1 UNK         0.0600 
    189 H189       -0.2764  -11.1909  -48.2119 H         1 UNK         0.3000 
    190 H190        1.7218  -23.9104  -46.5824 H         1 UNK         0.3000 
    191 H191        0.2854  -25.4286  -47.2282 H         1 UNK         0.0600 
    192 H192        0.8836  -27.3139  -48.6529 H         1 UNK         0.0600 
    193 H193        2.2533  -26.9414  -47.6195 H         1 UNK         0.0600 
    194 H194        2.2670  -26.4627  -49.3176 H         1 UNK         0.0600 
    195 H195        0.1640  -22.7956  -48.2617 H         1 UNK         0.3000 
    196 H196       -1.2067  -22.9675  -50.8608 H         1 UNK         0.0600 
    197 H197       -1.2227  -20.7059  -48.8014 H         1 UNK         0.0600 
    198 H198        0.0440  -20.8743  -50.0063 H         1 UNK         0.0600 
    199 H199       -1.6201  -20.5986  -50.5036 H         1 UNK         0.0600 
    200 H200       -3.5669  -22.0957  -50.8051 H         1 UNK         0.3000 
    201 H201       -5.1617  -23.9154  -49.2886 H         1 UNK         0.0600 
    202 H202       -7.0643  -22.6238  -50.3615 H         1 UNK         0.0600 
    203 H203       -5.8530  -23.1890  -51.4992 H         1 UNK         0.0600 
    204 H204       -5.8763  -21.4929  -51.0048 H         1 UNK         0.0600 
    205 H205       -4.2296  -20.6006  -48.6958 H         1 UNK         0.3000 
    206 H206       -4.2822  -19.2280  -47.0031 H         1 UNK         0.0600 
    207 H207       -3.6318  -21.1753  -45.5915 H         1 UNK         0.0600 
    208 H208       -4.5995  -20.0215  -44.6924 H         1 UNK         0.0600 
    209 H209       -5.3290  -21.5157  -45.2562 H         1 UNK         0.0600 
    210 H210       -7.3176  -20.9978  -47.3145 H         1 UNK         0.3000 
    211 H211       -9.0399  -18.7562  -46.5633 H         1 UNK         0.0600 
    212 H212       -9.5963  -21.3286  -48.1444 H         1 UNK         0.0600 
    213 H213      -10.8188  -20.2150  -47.5410 H         1 UNK         0.0600 
    214 H214       -9.8238  -21.1171  -46.4084 H         1 UNK         0.0600 
    215 H215       -7.1191  -19.5801  -49.2801 H         1 UNK         0.3000 
    216 H216       -8.1382  -17.2954  -50.8387 H         1 UNK         0.0600 
    217 H217       -8.9069  -19.3934  -52.0254 H         1 UNK         0.0600 
    218 H218       -7.2498  -19.9872  -52.0469 H         1 UNK         0.0600 
    219 H219       -7.6794  -18.5402  -52.9460 H         1 UNK         0.0600 
    220 H220       -6.3737  -16.4073  -52.1536 H         1 UNK         0.3000 
    221 H221       -4.1096  -15.9433  -50.5406 H         1 UNK         0.0600 
    222 H222       -3.4441  -14.4257  -52.4060 H         1 UNK         0.0600 
    223 H223       -4.6760  -15.1399  -53.4401 H         1 UNK         0.0600 
    224 H224       -5.1397  -14.2323  -51.9983 H         1 UNK         0.0600 
    225 H225       -4.5133  -18.4362  -52.8885 H         1 UNK         0.3000 
    226 H226       -1.8233  -19.3992  -52.5084 H         1 UNK         0.0600 
    227 H227       -1.2293  -17.8347  -54.2887 H         1 UNK         0.0600 
    228 H228       -1.2721  -19.4344  -55.0003 H         1 UNK         0.0600 
    229 H229       -2.6032  -18.3109  -55.2744 H         1 UNK         0.0600 
    230 H230       -3.6092  -20.0292  -55.4040 H         1 UNK         0.3000 
    231 H231       -4.7845  -21.6466  -56.2776 H         1 UNK         0.0600 
    232 H232       -6.5878  -22.7544  -54.9269 H         1 UNK         0.0600 
    233 H233       -6.5757  -21.0055  -54.7649 H         1 UNK         0.0600 
    234 H234       -5.9416  -22.0102  -53.4726 H         1 UNK         0.0600 
    235 H235       -3.9629  -23.1857  -53.1479 H         1 UNK         0.3000 
    236 H236       -3.4053  -25.7616  -54.3148 H         1 UNK         0.0600 
    237 H237       -4.2576  -25.4540  -51.9778 H         1 UNK         0.0600 
    238 H238       -2.7614  -26.3767  -52.0125 H         1 UNK         0.0600 
    239 H239       -2.7316  -24.6915  -51.5319 H         1 UNK         0.0600 
    240 H240       -1.5038  -22.9100  -53.9979 H         1 UNK         0.3000 
    241 H241        1.1232  -24.0648  -54.1793 H         1 UNK         0.0600 
    242 H242       -1.4506  -23.9472  -56.6141 H         1 UNK         0.3800 
    243 H243       -0.3928  -24.3081  -57.9531 H         1 UNK         0.3800 
    244 H244        0.1651  -21.3097  -55.1039 H         1 UNK         0.0800 
    245 H245        1.8317  -21.8084  -54.9638 H         1 UNK         0.0800 
    246 H246        0.9803  -19.1417  -53.5908 H         1 UNK         0.0800 
    247 H247        2.5606  -19.8835  -53.5938 H         1 UNK         0.0800 
@<TRIPOS>BOND
     1    1    2 1    
     2    1  127 1    
     3    1  128 1    
     4    1  129 1    
     5    2    3 2    
     6    2    4 am   BACKBONE|DICT|INTERRES
     7    4    5 1    
     8    4  130 1    
     9    5    6 1    
    10    5   65 1    
    11    5  131 1    
    12    6    7 1    
    13    6  132 1    
    14    6  133 1    
    15    7    8 1    
    16    8    9 1    
    17    8  134 1    
    18    8  135 1    
    19    9   10 ar   
    20    9   14 ar   
    21   10   11 ar   
    22   10  136 1    
    23   11   12 ar   
    24   11  126 1    
    25   12   13 ar   
    26   12  137 1    
    27   13   14 ar   
    28   13   15 1    
    29   14  138 1    
    30   15   16 1    
    31   15  139 1    
    32   15  140 1    
    33   16   17 1    
    34   17   18 1    
    35   17  141 1    
    36   17  142 1    
    37   18   19 1    
    38   18   67 1    
    39   18  143 1    
    40   19   20 am   BACKBONE|DICT|INTERRES
    41   19  144 1    
    42   20   21 2    
    43   20   22 1    
    44   22   23 1    
    45   22   24 1    
    46   22  145 1    
    47   23  146 1    
    48   23  147 1    
    49   23  148 1    
    50   24   25 am   BACKBONE|DICT|INTERRES
    51   24  149 1    
    52   25   26 2    
    53   25   27 1    
    54   27   28 1    
    55   27   29 1    
    56   27  150 1    
    57   28  151 1    
    58   28  152 1    
    59   28  153 1    
    60   29   30 am   BACKBONE|DICT|INTERRES
    61   29  154 1    
    62   30   31 2    
    63   30   32 1    
    64   32   33 1    
    65   32   34 1    
    66   32  155 1    
    67   33  156 1    
    68   33  157 1    
    69   33  158 1    
    70   34   35 am   BACKBONE|DICT|INTERRES
    71   34  159 1    
    72   35   36 2    
    73   35   37 1    
    74   37   38 1    
    75   37   39 1    
    76   37  160 1    
    77   38  161 1    
    78   38  162 1    
    79   38  163 1    
    80   39   40 am   BACKBONE|DICT|INTERRES
    81   39  164 1    
    82   40   41 2    
    83   40   42 1    
    84   42   43 1    
    85   42   44 1    
    86   42  165 1    
    87   43  166 1    
    88   43  167 1    
    89   43  168 1    
    90   44   45 am   BACKBONE|DICT|INTERRES
    91   44  169 1    
    92   45   46 2    
    93   45   47 1    
    94   47   48 1    
    95   47   49 1    
    96   47  170 1    
    97   48  171 1    
    98   48  172 1    
    99   48  173 1    
   100   49   50 am   BACKBONE|DICT|INTERRES
   101   49  174 1    
   102   50   51 2    
   103   50   52 1    
   104   52   53 1    
   105   52   54 1    
   106   52  175 1    
   107   53  176 1    
   108   53  177 1    
   109   53  178 1    
   110   54   55 am   BACKBONE|DICT|INTERRES
   111   54  179 1    
   112   55   56 2    
   113   55   57 1    
   114   57   58 1    
   115   57   59 1    
   116   57  180 1    
   117   58  181 1    
   118   58  182 1    
   119   58  183 1    
   120   59   60 am   BACKBONE|DICT|INTERRES
   121   59  184 1    
   122   60   61 2    
   123   60   62 1    
   124   62   63 1    
   125   62   64 1    
   126   62  185 1    
   127   63  186 1    
   128   63  187 1    
   129   63  188 1    
   130   64   65 am   BACKBONE|DICT|INTERRES
   131   64  189 1    
   132   65   66 2    
   133   67   68 2    
   134   67   69 am   BACKBONE|DICT|INTERRES
   135   69   70 1    
   136   69  190 1    
   137   70   71 1    
   138   70   72 1    
   139   70  191 1    
   140   71  192 1    
   141   71  193 1    
   142   71  194 1    
   143   72   73 2    
   144   72   74 am   BACKBONE|DICT|INTERRES
   145   74   75 1    
   146   74  195 1    
   147   75   76 1    
   148   75   77 1    
   149   75  196 1    
   150   76  197 1    
   151   76  198 1    
   152   76  199 1    
   153   77   78 2    
   154   77   79 am   BACKBONE|DICT|INTERRES
   155   79   80 1    
   156   79  200 1    
   157   80   81 1    
   158   80   82 1    
   159   80  201 1    
   160   81  202 1    
   161   81  203 1    
   162   81  204 1    
   163   82   83 2    
   164   82   84 am   BACKBONE|DICT|INTERRES
   165   84   85 1    
   166   84  205 1    
   167   85   86 1    
   168   85   87 1    
   169   85  206 1    
   170   86  207 1    
   171   86  208 1    
   172   86  209 1    
   173   87   88 2    
   174   87   89 am   BACKBONE|DICT|INTERRES
   175   89   90 1    
   176   89  210 1    
   177   90   91 1    
   178   90   92 1    
   179   90  211 1    
   180   91  212 1    
   181   91  213 1    
   182   91  214 1    
   183   92   93 2    
   184   92   94 am   BACKBONE|DICT|INTERRES
   185   94   95 1    
   186   94  215 1    
   187   95   96 1    
   188   95   97 1    
   189   95  216 1    
   190   96  217 1    
   191   96  218 1    
   192   96  219 1    
   193   97   98 2    
   194   97   99 am   BACKBONE|DICT|INTERRES
   195   99  100 1    
   196   99  220 1    
   197  100  101 1    
   198  100  102 1    
   199  100  221 1    
   200  101  222 1    
   201  101  223 1    
   202  101  224 1    
   203  102  103 2    
   204  102  104 am   BACKBONE|DICT|INTERRES
   205  104  105 1    
   206  104  225 1    
   207  105  106 1    
   208  105  107 1    
   209  105  226 1    
   210  106  227 1    
   211  106  228 1    
   212  106  229 1    
   213  107  108 2    
   214  107  109 am   BACKBONE|DICT|INTERRES
   215  109  110 1    
   216  109  230 1    
   217  110  111 1    
   218  110  112 1    
   219  110  231 1    
   220  111  232 1    
   221  111  233 1    
   222  111  234 1    
   223  112  113 2    
   224  112  114 am   BACKBONE|DICT|INTERRES
   225  114  115 1    
   226  114  235 1    
   227  115  116 1    
   228  115  117 1    
   229  115  236 1    
   230  116  237 1    
   231  116  238 1    
   232  116  239 1    
   233  117  118 2    
   234  117  119 am   BACKBONE|DICT|INTERRES
   235  119  120 1    
   236  119  240 1    
   237  120  121 1    
   238  120  124 1    
   239  120  241 1    
   240  121  122 am   BACKBONE|DICT|INTERRES
   241  121  123 2    
   242  122  242 1    
   243  122  243 1    
   244  124  125 1    
   245  124  244 1    
   246  124  245 1    
   247  125  126 1    
   248  126  246 1    
   249  126  247 1    
@<TRIPOS>SUBSTRUCTURE
     1 UNK         1 GROUP             0       ****    0 ROOT    
