@<TRIPOS>MOLECULE
3R540
247   249    1
SMALL
USER_CHARGES


@<TRIPOS>ATOM
      1 CA          3.8545  -14.8256  -47.2222 C.3       0 UNK        -0.1800 
      2 C           2.9589  -15.5575  -48.2213 C.2       0 UNK         0.5000 
      3 O           3.4785  -16.2165  -49.1184 O.2       0 UNK        -0.5000 
      4 N           1.6253  -15.4977  -48.0993 N.am      1 UNK        -0.5000 
      5 CA          0.8575  -14.6480  -47.1842 C.3       1 UNK         0.1400 
      6 C6         -0.6346  -15.0549  -47.1215 C.3       23 UNK        -0.0398 
      7 S7         -0.8822  -16.7075  -46.3902 S.3       23 UNK        -0.2404 
      8 C8         -1.7299  -17.5931  -47.7376 C.3       23 UNK        -0.0205 
      9 C9         -0.7995  -18.0265  -48.8645 C.ar      23 UNK        -0.0193 
     10 C10        -1.2004  -17.8765  -50.1943 C.ar      23 UNK        -0.1150 
     11 C11        -0.3767  -18.2976  -51.2441 C.ar      23 UNK        -0.0193 
     12 C12         0.8643  -18.8684  -50.9488 C.ar      23 UNK        -0.1150 
     13 C13         1.2767  -19.0322  -49.6245 C.ar      23 UNK        -0.0193 
     14 C14         0.4387  -18.6142  -48.5901 C.ar      23 UNK        -0.1150 
     15 C15         2.6267  -19.6611  -49.3121 C.3       23 UNK        -0.0205 
     16 S16         2.4757  -21.2610  -48.4548 S.3       23 UNK        -0.2404 
     17 C17         1.5471  -22.2654  -49.6715 C.3       23 UNK        -0.0398 
     18 CA          0.4819  -23.1923  -49.0379 C.3       11 UNK         0.1400 
     19 N           1.0792  -24.1190  -48.0735 N.am      11 UNK        -0.5000 
     20 C           0.4667  -25.1860  -47.5458 C.2       10 UNK         0.5000 
     21 O          -0.6596  -25.5566  -47.8732 O.2       10 UNK        -0.5000 
     22 CA          1.2165  -25.9462  -46.4324 C.3       10 UNK         0.1400 
     23 CB          1.9635  -27.1510  -47.0219 C.3       10 UNK        -0.1800 
     24 N           2.1560  -25.1303  -45.6509 N.am      10 UNK        -0.5000 
     25 C           1.8481  -24.0073  -44.9868 C.2       9 UNK         0.5000 
     26 O           0.7205  -23.5071  -44.9961 O.2       9 UNK        -0.5000 
     27 CA          2.9965  -23.3145  -44.2292 C.3       9 UNK         0.1400 
     28 CB          4.1314  -22.9065  -45.1843 C.3       9 UNK        -0.1800 
     29 N           2.5196  -22.1090  -43.5570 N.am      9 UNK        -0.5000 
     30 C           1.9570  -22.0530  -42.3444 C.2       8 UNK         0.5000 
     31 O           1.8453  -23.0322  -41.6048 O.2       8 UNK        -0.5000 
     32 CA          1.4008  -20.6831  -41.8854 C.3       8 UNK         0.1400 
     33 CB          1.8332  -20.3354  -40.4464 C.3       8 UNK        -0.1800 
     34 N           1.6758  -19.5624  -42.8003 N.am      8 UNK        -0.5000 
     35 C           2.8658  -19.0285  -43.1220 C.2       7 UNK         0.5000 
     36 O           3.9441  -19.4078  -42.6662 O.2       7 UNK        -0.5000 
     37 CA          2.8427  -17.9010  -44.1703 C.3       7 UNK         0.1400 
     38 CB          2.9054  -18.5083  -45.5802 C.3       7 UNK        -0.1800 
     39 N           1.6606  -17.0404  -44.0645 N.am      7 UNK        -0.5000 
     40 C           1.4474  -16.1821  -43.0578 C.2       6 UNK         0.5000 
     41 O           2.2178  -16.0350  -42.1057 O.2       6 UNK        -0.5000 
     42 CA          0.1366  -15.3753  -43.1160 C.3       6 UNK         0.1400 
     43 CB         -1.0140  -16.1660  -42.4754 C.3       6 UNK        -0.1800 
     44 N           0.2516  -14.0780  -42.4555 N.am      6 UNK        -0.5000 
     45 C           0.9997  -13.0608  -42.8972 C.2       5 UNK         0.5000 
     46 O           1.6256  -13.0808  -43.9603 O.2       5 UNK        -0.5000 
     47 CA          0.9839  -11.7944  -42.0246 C.3       5 UNK         0.1400 
     48 CB          2.2361  -10.9223  -42.2117 C.3       5 UNK        -0.1800 
     49 N          -0.2068  -11.0083  -42.3373 N.am      5 UNK        -0.5000 
     50 C          -1.4149  -11.2162  -41.7945 C.2       4 UNK         0.5000 
     51 O          -1.6256  -12.0470  -40.9092 O.2       4 UNK        -0.5000 
     52 CA         -2.5906  -10.3701  -42.3233 C.3       4 UNK         0.1400 
     53 CB         -2.8420   -9.1662  -41.4026 C.3       4 UNK        -0.1800 
     54 N          -2.4024   -9.8886  -43.6927 N.am      4 UNK        -0.5000 
     55 C          -2.3893  -10.6626  -44.7860 C.2       3 UNK         0.5000 
     56 O          -2.5583  -11.8828  -44.7626 O.2       3 UNK        -0.5000 
     57 CA         -2.1192   -9.9717  -46.1389 C.3       3 UNK         0.1400 
     58 CB         -2.2425   -8.4308  -46.1059 C.3       3 UNK        -0.1800 
     59 N          -0.8209  -10.3779  -46.6827 N.am      3 UNK        -0.5000 
     60 C           0.3789  -10.2226  -46.1047 C.2       2 UNK         0.5000 
     61 O           0.5571   -9.6576  -45.0235 O.2       2 UNK        -0.5000 
     62 CA          1.5535  -10.8788  -46.8455 C.3       2 UNK         0.1400 
     63 CB          2.9299  -10.4279  -46.3263 C.3       2 UNK        -0.1800 
     64 N           1.4353  -12.3229  -46.6780 N.am      2 UNK        -0.5000 
     65 C           0.9835  -13.1714  -47.6054 C.2       1 UNK         0.5000 
     66 O           0.6585  -12.8332  -48.7452 O.2       1 UNK        -0.5000 
     67 C          -0.7150  -22.4042  -48.4494 C.2       11 UNK         0.5000 
     68 O          -1.6905  -22.1541  -49.1590 O.2       11 UNK        -0.5000 
     69 N          -0.6342  -22.0624  -47.1568 N.am      12 UNK        -0.5000 
     70 CA         -1.6808  -21.3656  -46.4157 C.3       12 UNK         0.1400 
     71 CB         -1.0308  -20.4602  -45.3556 C.3       12 UNK        -0.1800 
     72 C          -2.6515  -22.3505  -45.7486 C.2       12 UNK         0.5000 
     73 O          -3.8508  -22.0812  -45.7128 O.2       12 UNK        -0.5000 
     74 N          -2.1133  -23.4545  -45.2156 N.am      13 UNK        -0.5000 
     75 CA         -2.8494  -24.4798  -44.4846 C.3       13 UNK         0.1400 
     76 CB         -1.8911  -25.1830  -43.5046 C.3       13 UNK        -0.1800 
     77 C          -3.5586  -25.4582  -45.4387 C.2       13 UNK         0.5000 
     78 O          -4.7398  -25.2730  -45.7294 O.2       13 UNK        -0.5000 
     79 N          -2.8354  -26.4917  -45.8906 N.am      14 UNK        -0.5000 
     80 CA         -3.3481  -27.6162  -46.6785 C.3       14 UNK         0.1400 
     81 CB         -2.2323  -28.6589  -46.8516 C.3       14 UNK        -0.1800 
     82 C          -3.9347  -27.2171  -48.0448 C.2       14 UNK         0.5000 
     83 O          -4.9940  -27.7206  -48.4206 O.2       14 UNK        -0.5000 
     84 N          -3.2498  -26.3099  -48.7521 N.am      15 UNK        -0.5000 
     85 CA         -3.6881  -25.7635  -50.0395 C.3       15 UNK         0.1400 
     86 CB         -2.4585  -25.2699  -50.8122 C.3       15 UNK        -0.1800 
     87 C          -4.7311  -24.6368  -49.8925 C.2       15 UNK         0.5000 
     88 O          -5.3299  -24.2363  -50.8930 O.2       15 UNK        -0.5000 
     89 N          -4.9266  -24.1468  -48.6581 N.am      16 UNK        -0.5000 
     90 CA         -5.9297  -23.1660  -48.2332 C.3       16 UNK         0.1400 
     91 CB         -7.3352  -23.7999  -48.2970 C.3       16 UNK        -0.1800 
     92 C          -5.8561  -21.8212  -48.9871 C.2       16 UNK         0.5000 
     93 O          -6.8937  -21.1901  -49.1952 O.2       16 UNK        -0.5000 
     94 N          -4.6525  -21.4320  -49.4412 N.am      17 UNK        -0.5000 
     95 CA         -4.3249  -20.2952  -50.3168 C.3       17 UNK         0.1400 
     96 CB         -4.7544  -18.9569  -49.6855 C.3       17 UNK        -0.1800 
     97 C          -4.8618  -20.4291  -51.7599 C.2       17 UNK         0.5000 
     98 O          -4.1703  -20.0400  -52.7021 O.2       17 UNK        -0.5000 
     99 N          -6.0675  -20.9881  -51.9149 N.am      18 UNK        -0.5000 
    100 CA        -6.7804  -21.2035  -53.1702 C.3       18 UNK         0.1400 
    101 CB        -8.1766  -21.7679  -52.8671 C.3       18 UNK        -0.1800 
    102 C         -6.0220  -22.1111  -54.1511 C.2       18 UNK         0.5000 
    103 O         -5.7880  -21.7048  -55.2899 O.2       18 UNK        -0.5000 
    104 N         -5.6066  -23.3005  -53.6898 N.am      19 UNK        -0.5000 
    105 CA        -4.8567  -24.2655  -54.5032 C.3       19 UNK         0.1400 
    106 CB        -5.0038  -25.6760  -53.9133 C.3       19 UNK        -0.1800 
    107 C         -3.3761  -23.8744  -54.6818 C.2       19 UNK         0.5000 
    108 O         -2.7159  -24.3975  -55.5794 O.2       19 UNK        -0.5000 
    109 N         -2.8969  -22.9285  -53.8614 N.am      20 UNK        -0.5000 
    110 CA        -1.6064  -22.2545  -54.0129 C.3       20 UNK         0.1400 
    111 CB        -1.1012  -21.8252  -52.6253 C.3       20 UNK        -0.1800 
    112 C         -1.6671  -21.0694  -55.0066 C.2       20 UNK         0.5000 
    113 O         -0.6467  -20.4144  -55.2174 O.2       20 UNK        -0.5000 
    114 N         -2.8422  -20.8344  -55.6129 N.am      21 UNK        -0.5000 
    115 CA        -3.1455  -19.8601  -56.6654 C.3       21 UNK         0.1400 
    116 CB        -2.2264  -20.0375  -57.8935 C.3       21 UNK        -0.1800 
    117 C         -3.2422  -18.3998  -56.1796 C.2       21 UNK         0.5000 
    118 O         -3.0776  -17.4831  -56.9871 O.2       21 UNK        -0.5000 
    119 N         -3.5627  -18.2009  -54.8951 N.am      22 UNK        -0.5000 
    120 CA        -3.9022  -16.8899  -54.3092 C.3       22 UNK         0.1400 
    121 C         -5.4381  -16.6726  -54.1616 C.2       22 UNK         0.5000 
    122 N         -6.2915  -17.5853  -54.6114 N.am      22 UNK        -0.7600 
    123 O         -5.8701  -15.6439  -53.6486 O.2       22 UNK        -0.5000 
    124 C124       -3.1672  -16.6504  -52.9665 C.3       23 UNK        -0.0398 
    125 S125       -1.3585  -16.5168  -53.1747 S.3       23 UNK        -0.2404 
    126 C126       -0.8244  -18.1891  -52.6970 C.3       23 UNK        -0.0205 
    127 H127        3.8872  -13.7586  -47.4415 H         1 UNK         0.0600 
    128 H128        3.5165  -14.9671  -46.1959 H         1 UNK         0.0600 
    129 H129        4.8741  -15.2070  -47.2809 H         1 UNK         0.0600 
    130 H130        1.0670  -16.0189  -48.7603 H         1 UNK         0.3000 
    131 H131        1.2700  -14.7614  -46.1808 H         1 UNK         0.0600 
    132 H132       -1.0845  -15.0161  -48.1154 H         1 UNK         0.0800 
    133 H133       -1.1973  -14.3482  -46.5077 H         1 UNK         0.0800 
    134 H134       -2.5400  -16.9690  -48.1177 H         1 UNK         0.0800 
    135 H135       -2.2045  -18.4792  -47.3207 H         1 UNK         0.0800 
    136 H136       -2.1596  -17.4338  -50.4090 H         1 UNK         0.1150 
    137 H137        1.5067  -19.2004  -51.7522 H         1 UNK         0.1150 
    138 H138        0.7557  -18.7501  -47.5689 H         1 UNK         0.1150 
    139 H139        3.2120  -19.7990  -50.2224 H         1 UNK         0.0800 
    140 H140        3.1982  -18.9778  -48.6830 H         1 UNK         0.0800 
    141 H141        1.0803  -21.6250  -50.4195 H         1 UNK         0.0800 
    142 H142        2.2707  -22.8684  -50.2215 H         1 UNK         0.0800 
    143 H143        0.0877  -23.8039  -49.8496 H         1 UNK         0.0600 
    144 H144        2.0018  -23.8793  -47.7417 H         1 UNK         0.3000 
    145 H145        0.4630  -26.3249  -45.7407 H         1 UNK         0.0600 
    146 H146        2.4057  -27.7648  -46.2369 H         1 UNK         0.0600 
    147 H147        1.2873  -27.7919  -47.5898 H         1 UNK         0.0600 
    148 H148        2.7624  -26.8383  -47.6955 H         1 UNK         0.0600 
    149 H149        3.1046  -25.4736  -45.6044 H         1 UNK         0.3000 
    150 H150        3.3901  -24.0156  -43.4906 H         1 UNK         0.0600 
    151 H151        4.9362  -22.4080  -44.6433 H         1 UNK         0.0600 
    152 H152        3.7812  -22.2227  -45.9574 H         1 UNK         0.0600 
    153 H153        4.5707  -23.7714  -45.6821 H         1 UNK         0.0600 
    154 H154        2.5388  -21.2607  -44.1002 H         1 UNK         0.3000 
    155 H155        0.3159  -20.7970  -41.8793 H         1 UNK         0.0600 
    156 H156        1.4157  -19.3796  -40.1295 H         1 UNK         0.0600 
    157 H157        2.9176  -20.2765  -40.3508 H         1 UNK         0.0600 
    158 H158        1.4859  -21.0899  -39.7397 H         1 UNK         0.0600 
    159 H159        0.8612  -19.1646  -43.2445 H         1 UNK         0.3000 
    160 H160        3.7302  -17.2817  -44.0231 H         1 UNK         0.0600 
    161 H161        2.0835  -19.2016  -45.7583 H         1 UNK         0.0600 
    162 H162        3.8331  -19.0636  -45.7249 H         1 UNK         0.0600 
    163 H163        2.8676  -17.7383  -46.3483 H         1 UNK         0.0600 
    164 H164        0.9776  -17.1098  -44.8071 H         1 UNK         0.3000 
    165 H165       -0.1116  -15.1807  -44.1580 H         1 UNK         0.0600 
    166 H166       -1.9539  -15.6176  -42.5427 H         1 UNK         0.0600 
    167 H167       -1.1617  -17.1216  -42.9803 H         1 UNK         0.0600 
    168 H168       -0.8209  -16.3759  -41.4226 H         1 UNK         0.0600 
    169 H169       -0.2577  -13.9619  -41.5901 H         1 UNK         0.3000 
    170 H170        0.9611  -12.1048  -40.9777 H         1 UNK         0.0600 
    171 H171        3.1452  -11.5032  -42.0517 H         1 UNK         0.0600 
    172 H172        2.2891  -10.4952  -43.2109 H         1 UNK         0.0600 
    173 H173        2.2467  -10.0971  -41.4997 H         1 UNK         0.0600 
    174 H174       -0.1197  -10.3549  -43.1081 H         1 UNK         0.3000 
    175 H175       -3.4805  -11.0029  -42.3077 H         1 UNK         0.0600 
    176 H176       -1.9913   -8.4835  -41.3920 H         1 UNK         0.0600 
    177 H177       -3.7211   -8.6041  -41.7183 H         1 UNK         0.0600 
    178 H178       -3.0164   -9.4893  -40.3754 H         1 UNK         0.0600 
    179 H179       -2.2259   -8.9007  -43.8041 H         1 UNK         0.3000 
    180 H180       -2.8773  -10.3462  -46.8283 H         1 UNK         0.0600 
    181 H181       -3.2256   -8.1234  -45.7473 H         1 UNK         0.0600 
    182 H182       -1.4932   -7.9638  -45.4661 H         1 UNK         0.0600 
    183 H183       -2.1234   -8.0128  -47.1055 H         1 UNK         0.0600 
    184 H184       -0.8595  -10.9018  -47.5464 H         1 UNK         0.3000 
    185 H185        1.4861  -10.5940  -47.8976 H         1 UNK         0.0600 
    186 H186        3.7295  -10.8286  -46.9493 H         1 UNK         0.0600 
    187 H187        3.0193   -9.3410  -46.3405 H         1 UNK         0.0600 
    188 H188        3.1100  -10.7642  -45.3061 H         1 UNK         0.0600 
    189 H189        1.6120  -12.6616  -45.7322 H         1 UNK         0.3000 
    190 H190        0.1654  -22.3733  -46.6189 H         1 UNK         0.3000 
    191 H191       -2.2572  -20.7409  -47.1000 H         1 UNK         0.0600 
    192 H192       -1.7862  -19.8889  -44.8147 H         1 UNK         0.0600 
    193 H193       -0.3496  -19.7448  -45.8117 H         1 UNK         0.0600 
    194 H194       -0.4656  -21.0367  -44.6226 H         1 UNK         0.0600 
    195 H195       -1.1025  -23.5599  -45.2506 H         1 UNK         0.3000 
    196 H196       -3.6250  -23.9960  -43.8867 H         1 UNK         0.0600 
    197 H197       -2.3953  -25.9912  -42.9733 H         1 UNK         0.0600 
    198 H198       -1.5237  -24.4829  -42.7537 H         1 UNK         0.0600 
    199 H199       -1.0208  -25.6055  -44.0056 H         1 UNK         0.0600 
    200 H200       -1.8621  -26.5399  -45.6343 H         1 UNK         0.3000 
    201 H201       -4.1527  -28.0765  -46.1014 H         1 UNK         0.0600 
    202 H202       -1.8781  -29.0229  -45.8871 H         1 UNK         0.0600 
    203 H203       -1.3773  -28.2489  -47.3906 H         1 UNK         0.0600 
    204 H204       -2.5894  -29.5234  -47.4127 H         1 UNK         0.0600 
    205 H205       -2.3607  -25.9724  -48.3851 H         1 UNK         0.3000 
    206 H206       -4.1519  -26.5628  -50.6208 H         1 UNK         0.0600 
    207 H207       -1.7165  -26.0598  -50.9289 H         1 UNK         0.0600 
    208 H208       -2.7240  -24.9201  -51.8083 H         1 UNK         0.0600 
    209 H209       -1.9880  -24.4390  -50.2967 H         1 UNK         0.0600 
    210 H210       -4.3961  -24.5634  -47.9047 H         1 UNK         0.3000 
    211 H211       -5.7259  -22.9444  -47.1870 H         1 UNK         0.0600 
    212 H212       -7.6421  -23.9990  -49.3245 H         1 UNK         0.0600 
    213 H213       -8.0840  -23.1443  -47.8513 H         1 UNK         0.0600 
    214 H214       -7.3656  -24.7419  -47.7490 H         1 UNK         0.0600 
    215 H215       -3.8593  -22.0294  -49.2353 H         1 UNK         0.3000 
    216 H216       -3.2368  -20.2832  -50.3898 H         1 UNK         0.0600 
    217 H217       -5.8381  -18.8620  -49.6183 H         1 UNK         0.0600 
    218 H218       -4.4010  -18.1126  -50.2749 H         1 UNK         0.0600 
    219 H219       -4.3465  -18.8480  -48.6811 H         1 UNK         0.0600 
    220 H220       -6.5606  -21.2417  -51.0642 H         1 UNK         0.3000 
    221 H221       -6.9051  -20.2303  -53.6474 H         1 UNK         0.0600 
    222 H222       -8.1211  -22.7156  -52.3295 H         1 UNK         0.0600 
    223 H223       -8.7570  -21.0738  -52.2588 H         1 UNK         0.0600 
    224 H224       -8.7376  -21.9416  -53.7864 H         1 UNK         0.0600 
    225 H225       -5.7694  -23.5515  -52.7179 H         1 UNK         0.3000 
    226 H226       -5.2998  -24.2859  -55.5013 H         1 UNK         0.0600 
    227 H227       -6.0527  -25.9622  -53.8351 H         1 UNK         0.0600 
    228 H228       -4.5117  -26.4157  -54.5459 H         1 UNK         0.0600 
    229 H229       -4.5633  -25.7528  -52.9224 H         1 UNK         0.0600 
    230 H230       -3.5225  -22.5438  -53.1682 H         1 UNK         0.3000 
    231 H231       -0.8821  -22.9635  -54.4187 H         1 UNK         0.0600 
    232 H232       -1.7923  -21.1450  -52.1310 H         1 UNK         0.0600 
    233 H233       -0.9672  -22.6886  -51.9744 H         1 UNK         0.0600 
    234 H234       -0.1369  -21.3209  -52.6949 H         1 UNK         0.0600 
    235 H235       -3.6327  -21.4030  -55.3360 H         1 UNK         0.3000 
    236 H236       -4.1541  -20.1122  -56.9955 H         1 UNK         0.0600 
    237 H237       -2.1865  -21.0797  -58.2104 H         1 UNK         0.0600 
    238 H238       -2.5914  -19.4571  -58.7415 H         1 UNK         0.0600 
    239 H239       -1.2076  -19.7069  -57.6908 H         1 UNK         0.0600 
    240 H240       -3.6905  -19.0004  -54.2807 H         1 UNK         0.3000 
    241 H241       -3.5806  -16.0976  -54.9871 H         1 UNK         0.0600 
    242 H242       -5.9566  -18.4223  -55.0591 H         1 UNK         0.3800 
    243 H243       -7.2817  -17.4208  -54.5230 H         1 UNK         0.3800 
    244 H244       -3.4123  -17.4446  -52.2638 H         1 UNK         0.0800 
    245 H245       -3.4980  -15.7203  -52.5014 H         1 UNK         0.0800 
    246 H246       -0.0118  -18.4777  -53.3650 H         1 UNK         0.0800 
    247 H247       -1.6281  -18.9011  -52.8780 H         1 UNK         0.0800 
@<TRIPOS>BOND
     1    1    2 1    
     2    1  127 1    
     3    1  128 1    
     4    1  129 1    
     5    2    3 2    
     6    2    4 am   BACKBONE|DICT|INTERRES
     7    4    5 1    
     8    4  130 1    
     9    5    6 1    
    10    5   65 1    
    11    5  131 1    
    12    6    7 1    
    13    6  132 1    
    14    6  133 1    
    15    7    8 1    
    16    8    9 1    
    17    8  134 1    
    18    8  135 1    
    19    9   10 ar   
    20    9   14 ar   
    21   10   11 ar   
    22   10  136 1    
    23   11   12 ar   
    24   11  126 1    
    25   12   13 ar   
    26   12  137 1    
    27   13   14 ar   
    28   13   15 1    
    29   14  138 1    
    30   15   16 1    
    31   15  139 1    
    32   15  140 1    
    33   16   17 1    
    34   17   18 1    
    35   17  141 1    
    36   17  142 1    
    37   18   19 1    
    38   18   67 1    
    39   18  143 1    
    40   19   20 am   BACKBONE|DICT|INTERRES
    41   19  144 1    
    42   20   21 2    
    43   20   22 1    
    44   22   23 1    
    45   22   24 1    
    46   22  145 1    
    47   23  146 1    
    48   23  147 1    
    49   23  148 1    
    50   24   25 am   BACKBONE|DICT|INTERRES
    51   24  149 1    
    52   25   26 2    
    53   25   27 1    
    54   27   28 1    
    55   27   29 1    
    56   27  150 1    
    57   28  151 1    
    58   28  152 1    
    59   28  153 1    
    60   29   30 am   BACKBONE|DICT|INTERRES
    61   29  154 1    
    62   30   31 2    
    63   30   32 1    
    64   32   33 1    
    65   32   34 1    
    66   32  155 1    
    67   33  156 1    
    68   33  157 1    
    69   33  158 1    
    70   34   35 am   BACKBONE|DICT|INTERRES
    71   34  159 1    
    72   35   36 2    
    73   35   37 1    
    74   37   38 1    
    75   37   39 1    
    76   37  160 1    
    77   38  161 1    
    78   38  162 1    
    79   38  163 1    
    80   39   40 am   BACKBONE|DICT|INTERRES
    81   39  164 1    
    82   40   41 2    
    83   40   42 1    
    84   42   43 1    
    85   42   44 1    
    86   42  165 1    
    87   43  166 1    
    88   43  167 1    
    89   43  168 1    
    90   44   45 am   BACKBONE|DICT|INTERRES
    91   44  169 1    
    92   45   46 2    
    93   45   47 1    
    94   47   48 1    
    95   47   49 1    
    96   47  170 1    
    97   48  171 1    
    98   48  172 1    
    99   48  173 1    
   100   49   50 am   BACKBONE|DICT|INTERRES
   101   49  174 1    
   102   50   51 2    
   103   50   52 1    
   104   52   53 1    
   105   52   54 1    
   106   52  175 1    
   107   53  176 1    
   108   53  177 1    
   109   53  178 1    
   110   54   55 am   BACKBONE|DICT|INTERRES
   111   54  179 1    
   112   55   56 2    
   113   55   57 1    
   114   57   58 1    
   115   57   59 1    
   116   57  180 1    
   117   58  181 1    
   118   58  182 1    
   119   58  183 1    
   120   59   60 am   BACKBONE|DICT|INTERRES
   121   59  184 1    
   122   60   61 2    
   123   60   62 1    
   124   62   63 1    
   125   62   64 1    
   126   62  185 1    
   127   63  186 1    
   128   63  187 1    
   129   63  188 1    
   130   64   65 am   BACKBONE|DICT|INTERRES
   131   64  189 1    
   132   65   66 2    
   133   67   68 2    
   134   67   69 am   BACKBONE|DICT|INTERRES
   135   69   70 1    
   136   69  190 1    
   137   70   71 1    
   138   70   72 1    
   139   70  191 1    
   140   71  192 1    
   141   71  193 1    
   142   71  194 1    
   143   72   73 2    
   144   72   74 am   BACKBONE|DICT|INTERRES
   145   74   75 1    
   146   74  195 1    
   147   75   76 1    
   148   75   77 1    
   149   75  196 1    
   150   76  197 1    
   151   76  198 1    
   152   76  199 1    
   153   77   78 2    
   154   77   79 am   BACKBONE|DICT|INTERRES
   155   79   80 1    
   156   79  200 1    
   157   80   81 1    
   158   80   82 1    
   159   80  201 1    
   160   81  202 1    
   161   81  203 1    
   162   81  204 1    
   163   82   83 2    
   164   82   84 am   BACKBONE|DICT|INTERRES
   165   84   85 1    
   166   84  205 1    
   167   85   86 1    
   168   85   87 1    
   169   85  206 1    
   170   86  207 1    
   171   86  208 1    
   172   86  209 1    
   173   87   88 2    
   174   87   89 am   BACKBONE|DICT|INTERRES
   175   89   90 1    
   176   89  210 1    
   177   90   91 1    
   178   90   92 1    
   179   90  211 1    
   180   91  212 1    
   181   91  213 1    
   182   91  214 1    
   183   92   93 2    
   184   92   94 am   BACKBONE|DICT|INTERRES
   185   94   95 1    
   186   94  215 1    
   187   95   96 1    
   188   95   97 1    
   189   95  216 1    
   190   96  217 1    
   191   96  218 1    
   192   96  219 1    
   193   97   98 2    
   194   97   99 am   BACKBONE|DICT|INTERRES
   195   99  100 1    
   196   99  220 1    
   197  100  101 1    
   198  100  102 1    
   199  100  221 1    
   200  101  222 1    
   201  101  223 1    
   202  101  224 1    
   203  102  103 2    
   204  102  104 am   BACKBONE|DICT|INTERRES
   205  104  105 1    
   206  104  225 1    
   207  105  106 1    
   208  105  107 1    
   209  105  226 1    
   210  106  227 1    
   211  106  228 1    
   212  106  229 1    
   213  107  108 2    
   214  107  109 am   BACKBONE|DICT|INTERRES
   215  109  110 1    
   216  109  230 1    
   217  110  111 1    
   218  110  112 1    
   219  110  231 1    
   220  111  232 1    
   221  111  233 1    
   222  111  234 1    
   223  112  113 2    
   224  112  114 am   BACKBONE|DICT|INTERRES
   225  114  115 1    
   226  114  235 1    
   227  115  116 1    
   228  115  117 1    
   229  115  236 1    
   230  116  237 1    
   231  116  238 1    
   232  116  239 1    
   233  117  118 2    
   234  117  119 am   BACKBONE|DICT|INTERRES
   235  119  120 1    
   236  119  240 1    
   237  120  121 1    
   238  120  124 1    
   239  120  241 1    
   240  121  122 am   BACKBONE|DICT|INTERRES
   241  121  123 2    
   242  122  242 1    
   243  122  243 1    
   244  124  125 1    
   245  124  244 1    
   246  124  245 1    
   247  125  126 1    
   248  126  246 1    
   249  126  247 1    
@<TRIPOS>SUBSTRUCTURE
     1 UNK         1 GROUP             0       ****    0 ROOT    
