@<TRIPOS>MOLECULE
3R540
247   249    1
SMALL
USER_CHARGES


@<TRIPOS>ATOM
      1 CA          2.8546  -17.7683  -48.5886 C.3       0 UNK        -0.1800 
      2 C           2.3905  -16.4655  -47.9550 C.2       0 UNK         0.5000 
      3 O           3.0970  -15.9007  -47.1222 O.2       0 UNK        -0.5000 
      4 N           1.2215  -15.9620  -48.3699 N.am      1 UNK        -0.5000 
      5 CA          0.5745  -14.7487  -47.8492 C.3       1 UNK         0.1400 
      6 C6         -0.9285  -14.7326  -48.2241 C.3       23 UNK        -0.0398 
      7 S7         -1.9748  -13.8400  -47.0249 S.3       23 UNK        -0.2404 
      8 C8         -2.2409  -15.1132  -45.7387 C.3       23 UNK        -0.0205 
      9 C9         -3.0981  -16.3173  -46.1306 C.ar      23 UNK        -0.0193 
     10 C10        -3.8891  -16.3512  -47.2846 C.ar      23 UNK        -0.1150 
     11 C11        -4.6281  -17.4912  -47.6095 C.ar      23 UNK        -0.0193 
     12 C12        -4.5987  -18.5985  -46.7575 C.ar      23 UNK        -0.1150 
     13 C13        -3.8306  -18.5787  -45.5845 C.ar      23 UNK        -0.0193 
     14 C14        -3.0956  -17.4286  -45.2838 C.ar      23 UNK        -0.1150 
     15 C15        -3.7466  -19.7562  -44.6092 C.3       23 UNK        -0.0205 
     16 S16        -4.4737  -21.3242  -45.2023 S.3       23 UNK        -0.2404 
     17 C17        -3.2229  -22.5561  -44.7075 C.3       23 UNK        -0.0398 
     18 CA         -2.2887  -22.9029  -45.8889 C.3       11 UNK         0.1400 
     19 N          -1.3786  -21.8014  -46.2223 N.am      11 UNK        -0.5000 
     20 C          -0.6280  -21.7380  -47.3292 C.2       10 UNK         0.5000 
     21 O          -0.5626  -22.6426  -48.1585 O.2       10 UNK        -0.5000 
     22 CA          0.2258  -20.4713  -47.5067 C.3       10 UNK         0.1400 
     23 CB         -0.6581  -19.2231  -47.6581 C.3       10 UNK        -0.1800 
     24 N           1.1432  -20.2934  -46.3833 N.am      10 UNK        -0.5000 
     25 C           2.1639  -21.1208  -46.1088 C.2       9 UNK         0.5000 
     26 O           2.5139  -22.0436  -46.8443 O.2       9 UNK        -0.5000 
     27 CA          2.9045  -20.9063  -44.7741 C.3       9 UNK         0.1400 
     28 CB          4.1320  -20.0072  -44.9883 C.3       9 UNK        -0.1800 
     29 N           2.0769  -20.3273  -43.7139 N.am      9 UNK        -0.5000 
     30 C           0.9162  -20.8126  -43.2481 C.2       8 UNK         0.5000 
     31 O           0.4075  -21.8627  -43.6390 O.2       8 UNK        -0.5000 
     32 CA          0.1757  -19.9648  -42.1946 C.3       8 UNK         0.1400 
     33 CB          0.2989  -20.6090  -40.8060 C.3       8 UNK        -0.1800 
     34 N           0.6321  -18.5727  -42.1177 N.am      8 UNK        -0.5000 
     35 C           0.5074  -17.6632  -43.0932 C.2       7 UNK         0.5000 
     36 O           0.0005  -17.9022  -44.1908 O.2       7 UNK        -0.5000 
     37 CA          1.0905  -16.2684  -42.8035 C.3       7 UNK         0.1400 
     38 CB          2.1104  -15.8812  -43.8847 C.3       7 UNK        -0.1800 
     39 N           0.0510  -15.2414  -42.7105 N.am      7 UNK        -0.5000 
     40 C          -0.8861  -15.1948  -41.7487 C.2       6 UNK         0.5000 
     41 O          -0.9461  -16.0134  -40.8299 O.2       6 UNK        -0.5000 
     42 CA         -1.9082  -14.0405  -41.7960 C.3       6 UNK         0.1400 
     43 CB         -2.3511  -13.5820  -40.3941 C.3       6 UNK        -0.1800 
     44 N          -1.3783  -12.8938  -42.5298 N.am      6 UNK        -0.5000 
     45 C          -2.0509  -12.1621  -43.4249 C.2       5 UNK         0.5000 
     46 O          -3.2477  -12.3222  -43.6675 O.2       5 UNK        -0.5000 
     47 CA         -1.2709  -11.0636  -44.1827 C.3       5 UNK         0.1400 
     48 CB         -1.8657   -9.6762  -43.8895 C.3       5 UNK        -0.1800 
     49 N           0.1730  -11.0129  -43.9191 N.am      5 UNK        -0.5000 
     50 C           1.0629  -11.9601  -44.2380 C.2       4 UNK         0.5000 
     51 O           0.7599  -13.0646  -44.6949 O.2       4 UNK        -0.5000 
     52 CA          2.5296  -11.6445  -43.9262 C.3       4 UNK         0.1400 
     53 CB          2.8587  -12.0098  -42.4650 C.3       4 UNK        -0.1800 
     54 N           3.3652  -12.3951  -44.8556 N.am      4 UNK        -0.5000 
     55 C           4.6712  -12.2050  -45.0731 C.2       3 UNK         0.5000 
     56 O           5.3558  -11.3762  -44.4719 O.2       3 UNK        -0.5000 
     57 CA          5.3179  -13.0733  -46.1667 C.3       3 UNK         0.1400 
     58 CB          5.6668  -14.4654  -45.6172 C.3       3 UNK        -0.1800 
     59 N           4.4616  -13.2071  -47.3476 N.am      3 UNK        -0.5000 
     60 C           4.2533  -12.2234  -48.2394 C.2       2 UNK         0.5000 
     61 O           4.7924  -11.1183  -48.1674 O.2       2 UNK        -0.5000 
     62 CA          3.2926  -12.5067  -49.4143 C.3       2 UNK         0.1400 
     63 CB          4.0822  -12.9021  -50.6714 C.3       2 UNK        -0.1800 
     64 N           2.3237  -13.5587  -49.1162 N.am      2 UNK        -0.5000 
     65 C           1.3126  -13.4449  -48.2442 C.2       1 UNK         0.5000 
     66 O           0.9927  -12.3714  -47.7345 O.2       1 UNK        -0.5000 
     67 C          -1.5605  -24.2429  -45.6582 C.2       11 UNK         0.5000 
     68 O          -2.1314  -25.2936  -45.9548 O.2       11 UNK        -0.5000 
     69 N          -0.3050  -24.1892  -45.1937 N.am      12 UNK        -0.5000 
     70 CA          0.5882  -25.3408  -45.0561 C.3       12 UNK         0.1400 
     71 CB          1.8935  -24.8885  -44.3855 C.3       12 UNK        -0.1800 
     72 C           0.8867  -26.0553  -46.3911 C.2       12 UNK         0.5000 
     73 O           1.0998  -27.2684  -46.3902 O.2       12 UNK        -0.5000 
     74 N           0.8565  -25.3164  -47.5094 N.am      13 UNK        -0.5000 
     75 CA          1.0335  -25.8348  -48.8652 C.3       13 UNK         0.1400 
     76 CB          1.6637  -24.7375  -49.7422 C.3       13 UNK        -0.1800 
     77 C          -0.2996  -26.3630  -49.4341 C.2       13 UNK         0.5000 
     78 O          -0.7714  -25.8715  -50.4601 O.2       13 UNK        -0.5000 
     79 N          -0.8938  -27.3472  -48.7428 N.am      14 UNK        -0.5000 
     80 CA         -2.1299  -28.0599  -49.0943 C.3       14 UNK         0.1400 
     81 CB         -1.8892  -28.9688  -50.3179 C.3       14 UNK        -0.1800 
     82 C          -3.3357  -27.1152  -49.2831 C.2       14 UNK         0.5000 
     83 O          -3.9747  -27.1214  -50.3385 O.2       14 UNK        -0.5000 
     84 N          -3.5880  -26.2789  -48.2646 N.am      15 UNK        -0.5000 
     85 CA         -4.6043  -25.2201  -48.2362 C.3       15 UNK         0.1400 
     86 CB         -6.0281  -25.8149  -48.2835 C.3       15 UNK        -0.1800 
     87 C          -4.3592  -24.1543  -49.3239 C.2       15 UNK         0.5000 
     88 O          -5.3111  -23.6745  -49.9387 O.2       15 UNK        -0.5000 
     89 N          -3.0772  -23.8424  -49.5677 N.am      16 UNK        -0.5000 
     90 CA         -2.5610  -22.9705  -50.6272 C.3       16 UNK         0.1400 
     91 CB         -2.9854  -21.5118  -50.3805 C.3       16 UNK        -0.1800 
     92 C          -2.9445  -23.4772  -52.0297 C.2       16 UNK         0.5000 
     93 O          -3.4304  -22.7029  -52.8540 O.2       16 UNK        -0.5000 
     94 N          -2.7638  -24.7886  -52.2444 N.am      17 UNK        -0.5000 
     95 CA         -3.1860  -25.5654  -53.4142 C.3       17 UNK         0.1400 
     96 CB         -2.2859  -25.2455  -54.6243 C.3       17 UNK        -0.1800 
     97 C          -4.6934  -25.4033  -53.7120 C.2       17 UNK         0.5000 
     98 O          -5.0795  -25.1770  -54.8600 O.2       17 UNK        -0.5000 
     99 N          -5.5043  -25.4946  -52.6471 N.am      18 UNK        -0.5000 
    100 CA        -6.9446  -25.2235  -52.5999 C.3       18 UNK         0.1400 
    101 CB        -7.7316  -26.2615  -53.4273 C.3       18 UNK        -0.1800 
    102 C         -7.2787  -23.7601  -52.9690 C.2       18 UNK         0.5000 
    103 O         -8.0702  -23.5102  -53.8804 O.2       18 UNK        -0.5000 
    104 N         -6.6647  -22.8266  -52.2282 N.am      19 UNK        -0.5000 
    105 CA        -6.8263  -21.3705  -52.2907 C.3       19 UNK         0.1400 
    106 CB        -8.2256  -20.9631  -51.7858 C.3       19 UNK        -0.1800 
    107 C         -6.4793  -20.7621  -53.6657 C.2       19 UNK         0.5000 
    108 O         -7.2096  -19.9062  -54.1718 O.2       19 UNK        -0.5000 
    109 N         -5.3546  -21.1958  -54.2471 N.am      20 UNK        -0.5000 
    110 CA        -4.8153  -20.7054  -55.5146 C.3       20 UNK         0.1400 
    111 CB        -3.9088  -21.7895  -56.1224 C.3       20 UNK        -0.1800 
    112 C         -4.0803  -19.3653  -55.3108 C.2       20 UNK         0.5000 
    113 O         -2.8515  -19.3117  -55.3792 O.2       20 UNK        -0.5000 
    114 N         -4.8521  -18.3136  -55.0042 N.am      21 UNK        -0.5000 
    115 CA        -4.4675  -16.9144  -54.7547 C.3       21 UNK         0.1400 
    116 CB        -3.7529  -16.3069  -55.9777 C.3       21 UNK        -0.1800 
    117 C         -3.6636  -16.6617  -53.4597 C.2       21 UNK         0.5000 
    118 O         -3.6846  -15.5365  -52.9601 O.2       21 UNK        -0.5000 
    119 N         -2.9953  -17.6933  -52.9310 N.am      22 UNK        -0.5000 
    120 CA        -2.2323  -17.7119  -51.6696 C.3       22 UNK         0.1400 
    121 C         -0.8792  -16.9399  -51.6941 C.2       22 UNK         0.5000 
    122 N         -0.4073  -16.4569  -52.8360 N.am      22 UNK        -0.7600 
    123 O         -0.2206  -16.8135  -50.6651 O.2       22 UNK        -0.5000 
    124 C124       -3.0861  -17.3538  -50.4209 C.3       23 UNK        -0.0398 
    125 S125       -4.5799  -18.3888  -50.2373 S.3       23 UNK        -0.2404 
    126 C126       -5.4501  -17.5263  -48.8902 C.3       23 UNK        -0.0205 
    127 H127        2.1232  -18.1561  -49.2983 H         1 UNK         0.0600 
    128 H128        3.0151  -18.5221  -47.8185 H         1 UNK         0.0600 
    129 H129        3.7952  -17.6141  -49.1170 H         1 UNK         0.0600 
    130 H130        0.7204  -16.4216  -49.1294 H         1 UNK         0.3000 
    131 H131        0.6449  -14.8135  -46.7628 H         1 UNK         0.0600 
    132 H132       -1.0814  -14.3092  -49.2183 H         1 UNK         0.0800 
    133 H133       -1.3061  -15.7532  -48.2839 H         1 UNK         0.0800 
    134 H134       -1.2669  -15.4612  -45.3909 H         1 UNK         0.0800 
    135 H135       -2.7197  -14.6372  -44.8848 H         1 UNK         0.0800 
    136 H136       -3.9250  -15.5006  -47.9487 H         1 UNK         0.1150 
    137 H137       -5.1766  -19.4699  -47.0266 H         1 UNK         0.1150 
    138 H138       -2.5018  -17.4024  -44.3813 H         1 UNK         0.1150 
    139 H139       -2.6978  -19.9139  -44.3563 H         1 UNK         0.0800 
    140 H140       -4.2458  -19.4772  -43.6804 H         1 UNK         0.0800 
    141 H141       -3.7716  -23.4405  -44.3777 H         1 UNK         0.0800 
    142 H142       -2.6571  -22.2118  -43.8400 H         1 UNK         0.0800 
    143 H143       -2.9138  -23.0560  -46.7694 H         1 UNK         0.0600 
    144 H144       -1.3312  -21.0405  -45.5632 H         1 UNK         0.3000 
    145 H145        0.8124  -20.5865  -48.4206 H         1 UNK         0.0600 
    146 H146       -0.0657  -18.3489  -47.9180 H         1 UNK         0.0600 
    147 H147       -1.3978  -19.3576  -48.4473 H         1 UNK         0.0600 
    148 H148       -1.1954  -18.9928  -46.7389 H         1 UNK         0.0600 
    149 H149        0.9200  -19.5617  -45.7211 H         1 UNK         0.3000 
    150 H150        3.2466  -21.8828  -44.4266 H         1 UNK         0.0600 
    151 H151        4.7862  -20.4154  -45.7600 H         1 UNK         0.0600 
    152 H152        4.7232  -19.9210  -44.0764 H         1 UNK         0.0600 
    153 H153        3.8451  -19.0017  -45.2998 H         1 UNK         0.0600 
    154 H154        2.4045  -19.4587  -43.3198 H         1 UNK         0.3000 
    155 H155       -0.8797  -19.9546  -42.4742 H         1 UNK         0.0600 
    156 H156       -0.0634  -21.6380  -40.8181 H         1 UNK         0.0600 
    157 H157       -0.2912  -20.0679  -40.0662 H         1 UNK         0.0600 
    158 H158        1.3339  -20.6294  -40.4624 H         1 UNK         0.0600 
    159 H159        1.0411  -18.2873  -41.2393 H         1 UNK         0.3000 
    160 H160        1.6184  -16.2986  -41.8480 H         1 UNK         0.0600 
    161 H161        1.6304  -15.7493  -44.8536 H         1 UNK         0.0600 
    162 H162        2.8751  -16.6499  -44.0026 H         1 UNK         0.0600 
    163 H163        2.6230  -14.9539  -43.6366 H         1 UNK         0.0600 
    164 H164        0.0446  -14.5479  -43.4507 H         1 UNK         0.3000 
    165 H165       -2.7813  -14.4405  -42.3155 H         1 UNK         0.0600 
    166 H166       -3.0899  -12.7828  -40.4569 H         1 UNK         0.0600 
    167 H167       -2.8093  -14.3996  -39.8363 H         1 UNK         0.0600 
    168 H168       -1.5078  -13.2135  -39.8090 H         1 UNK         0.0600 
    169 H169       -0.3997  -12.6887  -42.3897 H         1 UNK         0.3000 
    170 H170       -1.3999  -11.2696  -45.2473 H         1 UNK         0.0600 
    171 H171       -2.9304   -9.6456  -44.1246 H         1 UNK         0.0600 
    172 H172       -1.7538   -9.4063  -42.8386 H         1 UNK         0.0600 
    173 H173       -1.3832   -8.9042  -44.4893 H         1 UNK         0.0600 
    174 H174        0.5107  -10.1543  -43.5082 H         1 UNK         0.3000 
    175 H175        2.7014  -10.5783  -44.0870 H         1 UNK         0.0600 
    176 H176        2.7015  -13.0698  -42.2661 H         1 UNK         0.0600 
    177 H177        3.8926  -11.7739  -42.2142 H         1 UNK         0.0600 
    178 H178        2.2284  -11.4516  -41.7718 H         1 UNK         0.0600 
    179 H179        2.8580  -13.0765  -45.4068 H         1 UNK         0.3000 
    180 H180        6.2494  -12.5914  -46.4715 H         1 UNK         0.0600 
    181 H181        4.7829  -14.9914  -45.2553 H         1 UNK         0.0600 
    182 H182        6.3651  -14.3898  -44.7828 H         1 UNK         0.0600 
    183 H183        6.1364  -15.0859  -46.3805 H         1 UNK         0.0600 
    184 H184        3.9749  -14.0916  -47.4528 H         1 UNK         0.3000 
    185 H185        2.7468  -11.5851  -49.6271 H         1 UNK         0.0600 
    186 H186        4.7985  -12.1255  -50.9430 H         1 UNK         0.0600 
    187 H187        4.6414  -13.8266  -50.5214 H         1 UNK         0.0600 
    188 H188        3.4197  -13.0442  -51.5255 H         1 UNK         0.0600 
    189 H189        2.5154  -14.4748  -49.4941 H         1 UNK         0.3000 
    190 H190        0.0615  -23.2891  -44.8963 H         1 UNK         0.3000 
    191 H191        0.0976  -26.0620  -44.3994 H         1 UNK         0.0600 
    192 H192        1.7021  -24.4243  -43.4178 H         1 UNK         0.0600 
    193 H193        2.5586  -25.7359  -44.2143 H         1 UNK         0.0600 
    194 H194        2.4314  -24.1693  -45.0033 H         1 UNK         0.0600 
    195 H195        0.6151  -24.3343  -47.4414 H         1 UNK         0.3000 
    196 H196        1.7314  -26.6743  -48.8435 H         1 UNK         0.0600 
    197 H197        1.8771  -25.1140  -50.7433 H         1 UNK         0.0600 
    198 H198        2.6049  -24.3865  -49.3188 H         1 UNK         0.0600 
    199 H199        1.0061  -23.8753  -49.8516 H         1 UNK         0.0600 
    200 H200       -0.4350  -27.6512  -47.8918 H         1 UNK         0.3000 
    201 H201       -2.3720  -28.7032  -48.2471 H         1 UNK         0.0600 
    202 H202       -1.0628  -29.6569  -50.1409 H         1 UNK         0.0600 
    203 H203       -1.6581  -28.3913  -51.2138 H         1 UNK         0.0600 
    204 H204       -2.7716  -29.5714  -50.5363 H         1 UNK         0.0600 
    205 H205       -2.9787  -26.3021  -47.4516 H         1 UNK         0.3000 
    206 H206       -4.5012  -24.7128  -47.2772 H         1 UNK         0.0600 
    207 H207       -6.7788  -25.0399  -48.1242 H         1 UNK         0.0600 
    208 H208       -6.1675  -26.5646  -47.5048 H         1 UNK         0.0600 
    209 H209       -6.2450  -26.2838  -49.2434 H         1 UNK         0.0600 
    210 H210       -2.3634  -24.3134  -49.0303 H         1 UNK         0.3000 
    211 H211       -1.4728  -23.0179  -50.5765 H         1 UNK         0.0600 
    212 H212       -4.0625  -21.3819  -50.4739 H         1 UNK         0.0600 
    213 H213       -2.5129  -20.8508  -51.1041 H         1 UNK         0.0600 
    214 H214       -2.6987  -21.1735  -49.3864 H         1 UNK         0.0600 
    215 H215       -2.3062  -25.3216  -51.5091 H         1 UNK         0.3000 
    216 H216       -3.0351  -26.6147  -53.1564 H         1 UNK         0.0600 
    217 H217       -2.5302  -25.8839  -55.4739 H         1 UNK         0.0600 
    218 H218       -1.2351  -25.4105  -54.3860 H         1 UNK         0.0600 
    219 H219       -2.3968  -24.2114  -54.9482 H         1 UNK         0.0600 
    220 H220       -5.0695  -25.6983  -51.7547 H         1 UNK         0.3000 
    221 H221       -7.2411  -25.3493  -51.5574 H         1 UNK         0.0600 
    222 H222       -7.5207  -26.1807  -54.4938 H         1 UNK         0.0600 
    223 H223       -7.4921  -27.2777  -53.1140 H         1 UNK         0.0600 
    224 H224       -8.8059  -26.1265  -53.2974 H         1 UNK         0.0600 
    225 H225       -6.0467  -23.1524  -51.4855 H         1 UNK         0.3000 
    226 H226       -6.0993  -20.9569  -51.5915 H         1 UNK         0.0600 
    227 H227       -8.4204  -21.3728  -50.7946 H         1 UNK         0.0600 
    228 H228       -8.3131  -19.8786  -51.7094 H         1 UNK         0.0600 
    229 H229       -9.0141  -21.3101  -52.4542 H         1 UNK         0.0600 
    230 H230       -4.7652  -21.8568  -53.7417 H         1 UNK         0.3000 
    231 H231       -5.6382  -20.5339  -56.2116 H         1 UNK         0.0600 
    232 H232       -3.0468  -21.9942  -55.4872 H         1 UNK         0.0600 
    233 H233       -3.5320  -21.4813  -57.0982 H         1 UNK         0.0600 
    234 H234       -4.4506  -22.7254  -56.2613 H         1 UNK         0.0600 
    235 H235       -5.8403  -18.5116  -54.8819 H         1 UNK         0.3000 
    236 H236       -5.4089  -16.3772  -54.6299 H         1 UNK         0.0600 
    237 H237       -4.3498  -16.4246  -56.8821 H         1 UNK         0.0600 
    238 H238       -3.5841  -15.2384  -55.8379 H         1 UNK         0.0600 
    239 H239       -2.7806  -16.7673  -56.1540 H         1 UNK         0.0600 
    240 H240       -2.9755  -18.5495  -53.4714 H         1 UNK         0.3000 
    241 H241       -1.9238  -18.7487  -51.5526 H         1 UNK         0.0600 
    242 H242        0.4772  -15.9753  -52.8424 H         1 UNK         0.3800 
    243 H243       -0.9265  -16.5687  -53.6916 H         1 UNK         0.3800 
    244 H244       -2.4922  -17.4842  -49.5162 H         1 UNK         0.0800 
    245 H245       -3.3798  -16.3037  -50.4434 H         1 UNK         0.0800 
    246 H246       -5.7025  -16.5152  -49.2132 H         1 UNK         0.0800 
    247 H247       -6.3985  -18.0316  -48.7022 H         1 UNK         0.0800 
@<TRIPOS>BOND
     1    1    2 1    
     2    1  127 1    
     3    1  128 1    
     4    1  129 1    
     5    2    3 2    
     6    2    4 am   BACKBONE|DICT|INTERRES
     7    4    5 1    
     8    4  130 1    
     9    5    6 1    
    10    5   65 1    
    11    5  131 1    
    12    6    7 1    
    13    6  132 1    
    14    6  133 1    
    15    7    8 1    
    16    8    9 1    
    17    8  134 1    
    18    8  135 1    
    19    9   10 ar   
    20    9   14 ar   
    21   10   11 ar   
    22   10  136 1    
    23   11   12 ar   
    24   11  126 1    
    25   12   13 ar   
    26   12  137 1    
    27   13   14 ar   
    28   13   15 1    
    29   14  138 1    
    30   15   16 1    
    31   15  139 1    
    32   15  140 1    
    33   16   17 1    
    34   17   18 1    
    35   17  141 1    
    36   17  142 1    
    37   18   19 1    
    38   18   67 1    
    39   18  143 1    
    40   19   20 am   BACKBONE|DICT|INTERRES
    41   19  144 1    
    42   20   21 2    
    43   20   22 1    
    44   22   23 1    
    45   22   24 1    
    46   22  145 1    
    47   23  146 1    
    48   23  147 1    
    49   23  148 1    
    50   24   25 am   BACKBONE|DICT|INTERRES
    51   24  149 1    
    52   25   26 2    
    53   25   27 1    
    54   27   28 1    
    55   27   29 1    
    56   27  150 1    
    57   28  151 1    
    58   28  152 1    
    59   28  153 1    
    60   29   30 am   BACKBONE|DICT|INTERRES
    61   29  154 1    
    62   30   31 2    
    63   30   32 1    
    64   32   33 1    
    65   32   34 1    
    66   32  155 1    
    67   33  156 1    
    68   33  157 1    
    69   33  158 1    
    70   34   35 am   BACKBONE|DICT|INTERRES
    71   34  159 1    
    72   35   36 2    
    73   35   37 1    
    74   37   38 1    
    75   37   39 1    
    76   37  160 1    
    77   38  161 1    
    78   38  162 1    
    79   38  163 1    
    80   39   40 am   BACKBONE|DICT|INTERRES
    81   39  164 1    
    82   40   41 2    
    83   40   42 1    
    84   42   43 1    
    85   42   44 1    
    86   42  165 1    
    87   43  166 1    
    88   43  167 1    
    89   43  168 1    
    90   44   45 am   BACKBONE|DICT|INTERRES
    91   44  169 1    
    92   45   46 2    
    93   45   47 1    
    94   47   48 1    
    95   47   49 1    
    96   47  170 1    
    97   48  171 1    
    98   48  172 1    
    99   48  173 1    
   100   49   50 am   BACKBONE|DICT|INTERRES
   101   49  174 1    
   102   50   51 2    
   103   50   52 1    
   104   52   53 1    
   105   52   54 1    
   106   52  175 1    
   107   53  176 1    
   108   53  177 1    
   109   53  178 1    
   110   54   55 am   BACKBONE|DICT|INTERRES
   111   54  179 1    
   112   55   56 2    
   113   55   57 1    
   114   57   58 1    
   115   57   59 1    
   116   57  180 1    
   117   58  181 1    
   118   58  182 1    
   119   58  183 1    
   120   59   60 am   BACKBONE|DICT|INTERRES
   121   59  184 1    
   122   60   61 2    
   123   60   62 1    
   124   62   63 1    
   125   62   64 1    
   126   62  185 1    
   127   63  186 1    
   128   63  187 1    
   129   63  188 1    
   130   64   65 am   BACKBONE|DICT|INTERRES
   131   64  189 1    
   132   65   66 2    
   133   67   68 2    
   134   67   69 am   BACKBONE|DICT|INTERRES
   135   69   70 1    
   136   69  190 1    
   137   70   71 1    
   138   70   72 1    
   139   70  191 1    
   140   71  192 1    
   141   71  193 1    
   142   71  194 1    
   143   72   73 2    
   144   72   74 am   BACKBONE|DICT|INTERRES
   145   74   75 1    
   146   74  195 1    
   147   75   76 1    
   148   75   77 1    
   149   75  196 1    
   150   76  197 1    
   151   76  198 1    
   152   76  199 1    
   153   77   78 2    
   154   77   79 am   BACKBONE|DICT|INTERRES
   155   79   80 1    
   156   79  200 1    
   157   80   81 1    
   158   80   82 1    
   159   80  201 1    
   160   81  202 1    
   161   81  203 1    
   162   81  204 1    
   163   82   83 2    
   164   82   84 am   BACKBONE|DICT|INTERRES
   165   84   85 1    
   166   84  205 1    
   167   85   86 1    
   168   85   87 1    
   169   85  206 1    
   170   86  207 1    
   171   86  208 1    
   172   86  209 1    
   173   87   88 2    
   174   87   89 am   BACKBONE|DICT|INTERRES
   175   89   90 1    
   176   89  210 1    
   177   90   91 1    
   178   90   92 1    
   179   90  211 1    
   180   91  212 1    
   181   91  213 1    
   182   91  214 1    
   183   92   93 2    
   184   92   94 am   BACKBONE|DICT|INTERRES
   185   94   95 1    
   186   94  215 1    
   187   95   96 1    
   188   95   97 1    
   189   95  216 1    
   190   96  217 1    
   191   96  218 1    
   192   96  219 1    
   193   97   98 2    
   194   97   99 am   BACKBONE|DICT|INTERRES
   195   99  100 1    
   196   99  220 1    
   197  100  101 1    
   198  100  102 1    
   199  100  221 1    
   200  101  222 1    
   201  101  223 1    
   202  101  224 1    
   203  102  103 2    
   204  102  104 am   BACKBONE|DICT|INTERRES
   205  104  105 1    
   206  104  225 1    
   207  105  106 1    
   208  105  107 1    
   209  105  226 1    
   210  106  227 1    
   211  106  228 1    
   212  106  229 1    
   213  107  108 2    
   214  107  109 am   BACKBONE|DICT|INTERRES
   215  109  110 1    
   216  109  230 1    
   217  110  111 1    
   218  110  112 1    
   219  110  231 1    
   220  111  232 1    
   221  111  233 1    
   222  111  234 1    
   223  112  113 2    
   224  112  114 am   BACKBONE|DICT|INTERRES
   225  114  115 1    
   226  114  235 1    
   227  115  116 1    
   228  115  117 1    
   229  115  236 1    
   230  116  237 1    
   231  116  238 1    
   232  116  239 1    
   233  117  118 2    
   234  117  119 am   BACKBONE|DICT|INTERRES
   235  119  120 1    
   236  119  240 1    
   237  120  121 1    
   238  120  124 1    
   239  120  241 1    
   240  121  122 am   BACKBONE|DICT|INTERRES
   241  121  123 2    
   242  122  242 1    
   243  122  243 1    
   244  124  125 1    
   245  124  244 1    
   246  124  245 1    
   247  125  126 1    
   248  126  246 1    
   249  126  247 1    
@<TRIPOS>SUBSTRUCTURE
     1 UNK         1 GROUP             0       ****    0 ROOT    
