@<TRIPOS>MOLECULE
3R540
247   249    1
SMALL
USER_CHARGES


@<TRIPOS>ATOM
      1 CA          2.3298  -11.4281  -51.2969 C.3       0 UNK        -0.1800 
      2 C           2.5712  -12.3336  -50.0980 C.2       0 UNK         0.5000 
      3 O           3.5344  -12.1264  -49.3606 O.2       0 UNK        -0.5000 
      4 N           1.6946  -13.3282  -49.8951 N.am      1 UNK        -0.5000 
      5 CA          1.7507  -14.3107  -48.8027 C.3       1 UNK         0.1400 
      6 C6          0.6395  -15.3785  -48.9605 C.3       23 UNK        -0.0398 
      7 S7          0.8779  -16.8490  -47.9049 S.3       23 UNK        -0.2404 
      8 C8         -0.0029  -18.1216  -48.8633 C.3       23 UNK        -0.0205 
      9 C9         -1.4742  -17.7871  -49.0661 C.ar      23 UNK        -0.0193 
     10 C10        -1.9753  -17.5559  -50.3510 C.ar      23 UNK        -0.1150 
     11 C11        -3.3369  -17.3068  -50.5484 C.ar      23 UNK        -0.0193 
     12 C12        -4.1965  -17.2819  -49.4466 C.ar      23 UNK        -0.1150 
     13 C13        -3.7068  -17.4989  -48.1559 C.ar      23 UNK        -0.0193 
     14 C14        -2.3424  -17.7402  -47.9719 C.ar      23 UNK        -0.1150 
     15 C15        -4.6559  -17.4705  -46.9669 C.3       23 UNK        -0.0205 
     16 S16        -5.3052  -19.1284  -46.5751 S.3       23 UNK        -0.2404 
     17 C17        -3.9360  -19.8434  -45.6062 C.3       23 UNK        -0.0398 
     18 CA         -3.0035  -20.7463  -46.4509 C.3       11 UNK         0.1400 
     19 N          -1.6411  -20.7638  -45.9135 N.am      11 UNK        -0.5000 
     20 C          -0.6050  -21.4600  -46.4011 C.2       10 UNK         0.5000 
     21 O          -0.6522  -22.1378  -47.4279 O.2       10 UNK        -0.5000 
     22 CA          0.6847  -21.4581  -45.5612 C.3       10 UNK         0.1400 
     23 CB          1.6183  -20.3260  -46.0099 C.3       10 UNK        -0.1800 
     24 N           0.4413  -21.3494  -44.1200 N.am      10 UNK        -0.5000 
     25 C          -0.2885  -22.2014  -43.3832 C.2       9 UNK         0.5000 
     26 O          -0.8561  -23.1944  -43.8396 O.2       9 UNK        -0.5000 
     27 CA         -0.4640  -21.8451  -41.8999 C.3       9 UNK         0.1400 
     28 CB          0.7992  -22.1869  -41.0947 C.3       9 UNK        -0.1800 
     29 N          -0.7895  -20.4287  -41.7407 N.am      9 UNK        -0.5000 
     30 C          -2.0039  -19.9072  -41.9638 C.2       8 UNK         0.5000 
     31 O          -2.9923  -20.5785  -42.2609 O.2       8 UNK        -0.5000 
     32 CA         -2.1343  -18.3753  -41.8627 C.3       8 UNK         0.1400 
     33 CB         -2.4519  -17.9543  -40.4203 C.3       8 UNK        -0.1800 
     34 N          -0.9415  -17.6605  -42.3207 N.am      8 UNK        -0.5000 
     35 C          -0.5042  -17.6486  -43.5875 C.2       7 UNK         0.5000 
     36 O          -1.0610  -18.2445  -44.5075 O.2       7 UNK        -0.5000 
     37 CA          0.7984  -16.8756  -43.8621 C.3       7 UNK         0.1400 
     38 CB          0.4860  -15.3849  -44.0491 C.3       7 UNK        -0.1800 
     39 N           1.8313  -17.0336  -42.8300 N.am      7 UNK        -0.5000 
     40 C           2.3018  -18.2013  -42.3623 C.2       6 UNK         0.5000 
     41 O           1.8535  -19.2945  -42.7086 O.2       6 UNK        -0.5000 
     42 CA          3.4647  -18.1667  -41.3496 C.3       6 UNK         0.1400 
     43 CB          4.5785  -19.1436  -41.7626 C.3       6 UNK        -0.1800 
     44 N           4.0554  -16.8383  -41.1881 N.am      6 UNK        -0.5000 
     45 C           3.6578  -15.9025  -40.3161 C.2       5 UNK         0.5000 
     46 O           2.7127  -16.0468  -39.5411 O.2       5 UNK        -0.5000 
     47 CA          4.4447  -14.5755  -40.3294 C.3       5 UNK         0.1400 
     48 CB          5.5278  -14.5829  -39.2400 C.3       5 UNK        -0.1800 
     49 N           5.0722  -14.3055  -41.6280 N.am      5 UNK        -0.5000 
     50 C           4.3928  -13.9472  -42.7245 C.2       4 UNK         0.5000 
     51 O           3.1773  -13.7454  -42.7328 O.2       4 UNK        -0.5000 
     52 CA          5.1934  -13.8796  -44.0350 C.3       4 UNK         0.1400 
     53 CB          5.1189  -15.2299  -44.7663 C.3       4 UNK        -0.1800 
     54 N           4.6690  -12.8341  -44.9097 N.am      4 UNK        -0.5000 
     55 C           4.9993  -11.5376  -44.8175 C.2       3 UNK         0.5000 
     56 O           5.8380  -11.1065  -44.0245 O.2       3 UNK        -0.5000 
     57 CA          4.2884  -10.5485  -45.7649 C.3       3 UNK         0.1400 
     58 CB          5.1724  -10.2416  -46.9831 C.3       3 UNK        -0.1800 
     59 N           2.9886  -11.0329  -46.2284 N.am      3 UNK        -0.5000 
     60 C           1.8974  -11.1279  -45.4551 C.2       2 UNK         0.5000 
     61 O           1.8452  -10.6916  -44.3046 O.2       2 UNK        -0.5000 
     62 CA          0.6536  -11.8246  -46.0481 C.3       2 UNK         0.1400 
     63 CB         -0.4598  -10.8000  -46.3177 C.3       2 UNK        -0.1800 
     64 N           0.8869  -12.5905  -47.2766 N.am      2 UNK        -0.5000 
     65 C           1.7030  -13.6470  -47.4087 C.2       1 UNK         0.5000 
     66 O           2.4355  -14.0602  -46.5113 O.2       1 UNK        -0.5000 
     67 C          -3.5993  -22.1585  -46.6283 C.2       11 UNK         0.5000 
     68 O          -4.2351  -22.4258  -47.6476 O.2       11 UNK        -0.5000 
     69 N          -3.3467  -23.0443  -45.6573 N.am      12 UNK        -0.5000 
     70 CA         -3.7484  -24.4455  -45.7034 C.3       12 UNK         0.1400 
     71 CB         -4.1074  -24.9135  -44.2847 C.3       12 UNK        -0.1800 
     72 C          -2.6386  -25.3240  -46.3018 C.2       12 UNK         0.5000 
     73 O          -2.9214  -26.1451  -47.1735 O.2       12 UNK        -0.5000 
     74 N          -1.4047  -25.1522  -45.8092 N.am      13 UNK        -0.5000 
     75 CA         -0.2779  -26.0477  -46.0706 C.3       13 UNK         0.1400 
     76 CB          0.8342  -25.7678  -45.0479 C.3       13 UNK        -0.1800 
     77 C           0.2824  -25.9772  -47.5012 C.2       13 UNK         0.5000 
     78 O           0.7133  -27.0077  -48.0209 O.2       13 UNK        -0.5000 
     79 N           0.2907  -24.7802  -48.1001 N.am      14 UNK        -0.5000 
     80 CA          0.8653  -24.5266  -49.4215 C.3       14 UNK         0.1400 
     81 CB          1.9368  -23.4285  -49.3098 C.3       14 UNK        -0.1800 
     82 C          -0.2191  -24.1283  -50.4305 C.2       14 UNK         0.5000 
     83 O          -0.2361  -24.6588  -51.5414 O.2       14 UNK        -0.5000 
     84 N          -1.1058  -23.2074  -50.0318 N.am      15 UNK        -0.5000 
     85 CA         -2.1473  -22.6465  -50.8933 C.3       15 UNK         0.1400 
     86 CB         -2.4499  -21.2118  -50.4452 C.3       15 UNK        -0.1800 
     87 C          -3.4307  -23.4962  -50.9572 C.2       15 UNK         0.5000 
     88 O          -4.3254  -23.1478  -51.7229 O.2       15 UNK        -0.5000 
     89 N          -3.5127  -24.5861  -50.1787 N.am      16 UNK        -0.5000 
     90 CA         -4.5864  -25.5895  -50.1980 C.3       16 UNK         0.1400 
     91 CB         -4.5254  -26.4035  -51.5085 C.3       16 UNK        -0.1800 
     92 C          -5.9892  -25.0025  -49.9221 C.2       16 UNK         0.5000 
     93 O          -6.9434  -25.3164  -50.6356 O.2       16 UNK        -0.5000 
     94 N          -6.0715  -24.1556  -48.8871 N.am      17 UNK        -0.5000 
     95 CA         -7.2358  -23.3808  -48.4484 C.3       17 UNK         0.1400 
     96 CB         -8.4362  -24.2853  -48.0955 C.3       17 UNK        -0.1800 
     97 C          -7.5702  -22.2505  -49.4408 C.2       17 UNK         0.5000 
     98 O          -8.7237  -22.1014  -49.8485 O.2       17 UNK        -0.5000 
     99 N          -6.5355  -21.4708  -49.7903 N.am      18 UNK        -0.5000 
    100 CA        -6.5595  -20.3025  -50.6791 C.3       18 UNK         0.1400 
    101 CB        -7.3377  -19.1408  -50.0267 C.3       18 UNK        -0.1800 
    102 C         -7.0608  -20.6307  -52.1027 C.2       18 UNK         0.5000 
    103 O         -7.9438  -19.9488  -52.6278 O.2       18 UNK        -0.5000 
    104 N         -6.4859  -21.6782  -52.6969 N.am      19 UNK        -0.5000 
    105 CA        -6.7511  -22.1570  -54.0481 C.3       19 UNK         0.1400 
    106 CB        -7.5158  -23.4914  -53.9474 C.3       19 UNK        -0.1800 
    107 C         -5.4141  -22.2798  -54.8050 C.2       19 UNK         0.5000 
    108 O         -4.4541  -21.5826  -54.4686 O.2       19 UNK        -0.5000 
    109 N         -5.3690  -23.1560  -55.8193 N.am      20 UNK        -0.5000 
    110 CA        -4.1995  -23.5037  -56.6331 C.3       20 UNK         0.1400 
    111 CB        -3.1893  -24.3193  -55.7932 C.3       20 UNK        -0.1800 
    112 C         -3.5768  -22.2733  -57.3273 C.2       20 UNK         0.5000 
    113 O         -4.0868  -21.8422  -58.3622 O.2       20 UNK        -0.5000 
    114 N         -2.4959  -21.7355  -56.7481 N.am      21 UNK        -0.5000 
    115 CA        -1.7853  -20.5485  -57.2199 C.3       21 UNK         0.1400 
    116 CB        -0.3987  -20.5127  -56.5577 C.3       21 UNK        -0.1800 
    117 C         -2.5370  -19.2270  -56.9604 C.2       21 UNK         0.5000 
    118 O         -2.2523  -18.2409  -57.6422 O.2       21 UNK        -0.5000 
    119 N         -3.4536  -19.2094  -55.9828 N.am      22 UNK        -0.5000 
    120 CA        -4.2638  -18.0348  -55.6224 C.3       22 UNK         0.1400 
    121 C         -5.2673  -17.6406  -56.7416 C.2       22 UNK         0.5000 
    122 N         -5.4094  -16.3550  -57.0343 N.am      22 UNK        -0.7600 
    123 O         -5.9526  -18.4857  -57.3130 O.2       22 UNK        -0.5000 
    124 C124       -5.0186  -18.2358  -54.2857 C.3       23 UNK        -0.0398 
    125 S125       -3.9147  -18.6346  -52.8899 S.3       23 UNK        -0.2404 
    126 C126       -3.8832  -17.0795  -51.9503 C.3       23 UNK        -0.0205 
    127 H127        3.1837  -11.4669  -51.9733 H         1 UNK         0.0600 
    128 H128        2.2012  -10.3969  -50.9676 H         1 UNK         0.0600 
    129 H129        1.4401  -11.7211  -51.8545 H         1 UNK         0.0600 
    130 H130        0.9267  -13.4368  -50.5424 H         1 UNK         0.3000 
    131 H131        2.7167  -14.8132  -48.8867 H         1 UNK         0.0600 
    132 H132       -0.3461  -14.9554  -48.7574 H         1 UNK         0.0800 
    133 H133        0.6126  -15.7183  -49.9967 H         1 UNK         0.0800 
    134 H134        0.0704  -19.0744  -48.3383 H         1 UNK         0.0800 
    135 H135        0.5010  -18.2621  -49.8206 H         1 UNK         0.0800 
    136 H136       -1.3130  -17.5928  -51.2045 H         1 UNK         0.1150 
    137 H137       -5.2505  -17.0949  -49.5924 H         1 UNK         0.1150 
    138 H138       -1.9549  -17.9123  -46.9778 H         1 UNK         0.1150 
    139 H139       -4.1619  -17.0383  -46.0953 H         1 UNK         0.0800 
    140 H140       -5.4986  -16.8137  -47.1876 H         1 UNK         0.0800 
    141 H141       -4.3506  -20.3857  -44.7543 H         1 UNK         0.0800 
    142 H142       -3.3776  -19.0187  -45.1673 H         1 UNK         0.0800 
    143 H143       -2.9161  -20.3113  -47.4440 H         1 UNK         0.0600 
    144 H144       -1.4684  -20.1657  -45.1130 H         1 UNK         0.3000 
    145 H145        1.1927  -22.4075  -45.7375 H         1 UNK         0.0600 
    146 H146        2.5482  -20.3292  -45.4409 H         1 UNK         0.0600 
    147 H147        1.8802  -20.4297  -47.0636 H         1 UNK         0.0600 
    148 H148        1.1512  -19.3498  -45.8830 H         1 UNK         0.0600 
    149 H149        0.8829  -20.5637  -43.6472 H         1 UNK         0.3000 
    150 H150       -1.2868  -22.4445  -41.5040 H         1 UNK         0.0600 
    151 H151        1.0364  -23.2482  -41.1786 H         1 UNK         0.0600 
    152 H152        0.6615  -21.9676  -40.0359 H         1 UNK         0.0600 
    153 H153        1.6699  -21.6299  -41.4410 H         1 UNK         0.0600 
    154 H154       -0.0123  -19.8017  -41.5830 H         1 UNK         0.3000 
    155 H155       -2.9703  -18.0741  -42.4976 H         1 UNK         0.0600 
    156 H156       -1.6376  -18.2038  -39.7388 H         1 UNK         0.0600 
    157 H157       -3.3501  -18.4549  -40.0563 H         1 UNK         0.0600 
    158 H158       -2.6299  -16.8809  -40.3527 H         1 UNK         0.0600 
    159 H159       -0.4145  -17.1536  -41.6246 H         1 UNK         0.3000 
    160 H160        1.2178  -17.2521  -44.7962 H         1 UNK         0.0600 
    161 H161        0.0681  -14.9406  -43.1452 H         1 UNK         0.0600 
    162 H162       -0.2307  -15.2335  -44.8576 H         1 UNK         0.0600 
    163 H163        1.3835  -14.8271  -44.3069 H         1 UNK         0.0600 
    164 H164        2.2536  -16.1810  -42.4902 H         1 UNK         0.3000 
    165 H165        3.0627  -18.5012  -40.3914 H         1 UNK         0.0600 
    166 H166        5.3918  -19.1441  -41.0367 H         1 UNK         0.0600 
    167 H167        4.2043  -20.1663  -41.8251 H         1 UNK         0.0600 
    168 H168        4.9969  -18.8873  -42.7365 H         1 UNK         0.0600 
    169 H169        4.8358  -16.6224  -41.7898 H         1 UNK         0.3000 
    170 H170        3.7416  -13.7699  -40.1070 H         1 UNK         0.0600 
    171 H171        5.0905  -14.7570  -38.2559 H         1 UNK         0.0600 
    172 H172        6.2688  -15.3645  -39.4125 H         1 UNK         0.0600 
    173 H173        6.0505  -13.6273  -39.1970 H         1 UNK         0.0600 
    174 H174        6.0706  -14.4481  -41.6868 H         1 UNK         0.3000 
    175 H175        6.2403  -13.6680  -43.8076 H         1 UNK         0.0600 
    176 H176        4.0878  -15.5261  -44.9650 H         1 UNK         0.0600 
    177 H177        5.6448  -15.1919  -45.7204 H         1 UNK         0.0600 
    178 H178        5.5772  -16.0224  -44.1740 H         1 UNK         0.0600 
    179 H179        3.9176  -13.1123  -45.5335 H         1 UNK         0.3000 
    180 H180        4.1323   -9.6177  -45.2156 H         1 UNK         0.0600 
    181 H181        5.3823  -11.1411  -47.5631 H         1 UNK         0.0600 
    182 H182        6.1298   -9.8201  -46.6742 H         1 UNK         0.0600 
    183 H183        4.6968   -9.5182  -47.6456 H         1 UNK         0.0600 
    184 H184        2.9582  -11.4215  -47.1622 H         1 UNK         0.3000 
    185 H185        0.2960  -12.5260  -45.2915 H         1 UNK         0.0600 
    186 H186       -0.6972  -10.2314  -45.4176 H         1 UNK         0.0600 
    187 H187       -0.1691  -10.0862  -47.0896 H         1 UNK         0.0600 
    188 H188       -1.3788  -11.2900  -46.6399 H         1 UNK         0.0600 
    189 H189        0.3618  -12.2973  -48.0872 H         1 UNK         0.3000 
    190 H190       -2.7551  -22.7680  -44.8835 H         1 UNK         0.3000 
    191 H191       -4.6405  -24.5597  -46.3224 H         1 UNK         0.0600 
    192 H192       -3.2671  -24.8094  -43.5969 H         1 UNK         0.0600 
    193 H193       -4.4064  -25.9625  -44.2833 H         1 UNK         0.0600 
    194 H194       -4.9406  -24.3376  -43.8816 H         1 UNK         0.0600 
    195 H195       -1.2543  -24.4420  -45.0955 H         1 UNK         0.3000 
    196 H196       -0.6263  -27.0703  -45.9100 H         1 UNK         0.0600 
    197 H197        1.6725  -26.4525  -45.1832 H         1 UNK         0.0600 
    198 H198        0.4729  -25.8947  -44.0272 H         1 UNK         0.0600 
    199 H199        1.2212  -24.7530  -45.1410 H         1 UNK         0.0600 
    200 H200       -0.1144  -23.9807  -47.6241 H         1 UNK         0.3000 
    201 H201        1.3548  -25.4220  -49.8102 H         1 UNK         0.0600 
    202 H202        2.7327  -23.7259  -48.6270 H         1 UNK         0.0600 
    203 H203        1.5235  -22.4864  -48.9490 H         1 UNK         0.0600 
    204 H204        2.3964  -23.2335  -50.2794 H         1 UNK         0.0600 
    205 H205       -1.0155  -22.8027  -49.1026 H         1 UNK         0.3000 
    206 H206       -1.7647  -22.5880  -51.9146 H         1 UNK         0.0600 
    207 H207       -1.5523  -20.5938  -50.4519 H         1 UNK         0.0600 
    208 H208       -3.1732  -20.7432  -51.1100 H         1 UNK         0.0600 
    209 H209       -2.8699  -21.1857  -49.4456 H         1 UNK         0.0600 
    210 H210       -2.7440  -24.7750  -49.5514 H         1 UNK         0.3000 
    211 H211       -4.3821  -26.2794  -49.3792 H         1 UNK         0.0600 
    212 H212       -4.7612  -25.7893  -52.3784 H         1 UNK         0.0600 
    213 H213       -5.2362  -27.2303  -51.4894 H         1 UNK         0.0600 
    214 H214       -3.5347  -26.8318  -51.6600 H         1 UNK         0.0600 
    215 H215       -5.2045  -23.8822  -48.4336 H         1 UNK         0.3000 
    216 H216       -6.9336  -22.8862  -47.5241 H         1 UNK         0.0600 
    217 H217       -9.2293  -23.7053  -47.6226 H         1 UNK         0.0600 
    218 H218       -8.1469  -25.0699  -47.3965 H         1 UNK         0.0600 
    219 H219       -8.8673  -24.7608  -48.9765 H         1 UNK         0.0600 
    220 H220       -5.6322  -21.7013  -49.3963 H         1 UNK         0.3000 
    221 H221       -5.5228  -19.9817  -50.7817 H         1 UNK         0.0600 
    222 H222       -8.3975  -19.3724  -49.9171 H         1 UNK         0.0600 
    223 H223       -6.9439  -18.9062  -49.0391 H         1 UNK         0.0600 
    224 H224       -7.2612  -18.2351  -50.6293 H         1 UNK         0.0600 
    225 H225       -5.7115  -22.1529  -52.2318 H         1 UNK         0.3000 
    226 H226       -7.3620  -21.4379  -54.5966 H         1 UNK         0.0600 
    227 H227       -8.4067  -23.3845  -53.3279 H         1 UNK         0.0600 
    228 H228       -7.8489  -23.8410  -54.9248 H         1 UNK         0.0600 
    229 H229       -6.8984  -24.2728  -53.5013 H         1 UNK         0.0600 
    230 H230       -6.2162  -23.6555  -56.0495 H         1 UNK         0.3000 
    231 H231       -4.5588  -24.1550  -57.4314 H         1 UNK         0.0600 
    232 H232       -3.6381  -25.2502  -55.4464 H         1 UNK         0.0600 
    233 H233       -2.8445  -23.7777  -54.9116 H         1 UNK         0.0600 
    234 H234       -2.3121  -24.5867  -56.3839 H         1 UNK         0.0600 
    235 H235       -2.1853  -22.1282  -55.8713 H         1 UNK         0.3000 
    236 H236       -1.6455  -20.6394  -58.2990 H         1 UNK         0.0600 
    237 H237        0.1805  -19.6573  -56.9083 H         1 UNK         0.0600 
    238 H238       -0.4741  -20.4351  -55.4723 H         1 UNK         0.0600 
    239 H239        0.1748  -21.4098  -56.7923 H         1 UNK         0.0600 
    240 H240       -3.6508  -20.0622  -55.4672 H         1 UNK         0.3000 
    241 H241       -3.5707  -17.2025  -55.4839 H         1 UNK         0.0600 
    242 H242       -6.0695  -16.0860  -57.7475 H         1 UNK         0.3800 
    243 H243       -4.8614  -15.6427  -56.5765 H         1 UNK         0.3800 
    244 H244       -5.6033  -17.3483  -54.0387 H         1 UNK         0.0800 
    245 H245       -5.7388  -19.0495  -54.3822 H         1 UNK         0.0800 
    246 H246       -3.2665  -16.3489  -52.4756 H         1 UNK         0.0800 
    247 H247       -4.8893  -16.6609  -51.8975 H         1 UNK         0.0800 
@<TRIPOS>BOND
     1    1    2 1    
     2    1  127 1    
     3    1  128 1    
     4    1  129 1    
     5    2    3 2    
     6    2    4 am   BACKBONE|DICT|INTERRES
     7    4    5 1    
     8    4  130 1    
     9    5    6 1    
    10    5   65 1    
    11    5  131 1    
    12    6    7 1    
    13    6  132 1    
    14    6  133 1    
    15    7    8 1    
    16    8    9 1    
    17    8  134 1    
    18    8  135 1    
    19    9   10 ar   
    20    9   14 ar   
    21   10   11 ar   
    22   10  136 1    
    23   11   12 ar   
    24   11  126 1    
    25   12   13 ar   
    26   12  137 1    
    27   13   14 ar   
    28   13   15 1    
    29   14  138 1    
    30   15   16 1    
    31   15  139 1    
    32   15  140 1    
    33   16   17 1    
    34   17   18 1    
    35   17  141 1    
    36   17  142 1    
    37   18   19 1    
    38   18   67 1    
    39   18  143 1    
    40   19   20 am   BACKBONE|DICT|INTERRES
    41   19  144 1    
    42   20   21 2    
    43   20   22 1    
    44   22   23 1    
    45   22   24 1    
    46   22  145 1    
    47   23  146 1    
    48   23  147 1    
    49   23  148 1    
    50   24   25 am   BACKBONE|DICT|INTERRES
    51   24  149 1    
    52   25   26 2    
    53   25   27 1    
    54   27   28 1    
    55   27   29 1    
    56   27  150 1    
    57   28  151 1    
    58   28  152 1    
    59   28  153 1    
    60   29   30 am   BACKBONE|DICT|INTERRES
    61   29  154 1    
    62   30   31 2    
    63   30   32 1    
    64   32   33 1    
    65   32   34 1    
    66   32  155 1    
    67   33  156 1    
    68   33  157 1    
    69   33  158 1    
    70   34   35 am   BACKBONE|DICT|INTERRES
    71   34  159 1    
    72   35   36 2    
    73   35   37 1    
    74   37   38 1    
    75   37   39 1    
    76   37  160 1    
    77   38  161 1    
    78   38  162 1    
    79   38  163 1    
    80   39   40 am   BACKBONE|DICT|INTERRES
    81   39  164 1    
    82   40   41 2    
    83   40   42 1    
    84   42   43 1    
    85   42   44 1    
    86   42  165 1    
    87   43  166 1    
    88   43  167 1    
    89   43  168 1    
    90   44   45 am   BACKBONE|DICT|INTERRES
    91   44  169 1    
    92   45   46 2    
    93   45   47 1    
    94   47   48 1    
    95   47   49 1    
    96   47  170 1    
    97   48  171 1    
    98   48  172 1    
    99   48  173 1    
   100   49   50 am   BACKBONE|DICT|INTERRES
   101   49  174 1    
   102   50   51 2    
   103   50   52 1    
   104   52   53 1    
   105   52   54 1    
   106   52  175 1    
   107   53  176 1    
   108   53  177 1    
   109   53  178 1    
   110   54   55 am   BACKBONE|DICT|INTERRES
   111   54  179 1    
   112   55   56 2    
   113   55   57 1    
   114   57   58 1    
   115   57   59 1    
   116   57  180 1    
   117   58  181 1    
   118   58  182 1    
   119   58  183 1    
   120   59   60 am   BACKBONE|DICT|INTERRES
   121   59  184 1    
   122   60   61 2    
   123   60   62 1    
   124   62   63 1    
   125   62   64 1    
   126   62  185 1    
   127   63  186 1    
   128   63  187 1    
   129   63  188 1    
   130   64   65 am   BACKBONE|DICT|INTERRES
   131   64  189 1    
   132   65   66 2    
   133   67   68 2    
   134   67   69 am   BACKBONE|DICT|INTERRES
   135   69   70 1    
   136   69  190 1    
   137   70   71 1    
   138   70   72 1    
   139   70  191 1    
   140   71  192 1    
   141   71  193 1    
   142   71  194 1    
   143   72   73 2    
   144   72   74 am   BACKBONE|DICT|INTERRES
   145   74   75 1    
   146   74  195 1    
   147   75   76 1    
   148   75   77 1    
   149   75  196 1    
   150   76  197 1    
   151   76  198 1    
   152   76  199 1    
   153   77   78 2    
   154   77   79 am   BACKBONE|DICT|INTERRES
   155   79   80 1    
   156   79  200 1    
   157   80   81 1    
   158   80   82 1    
   159   80  201 1    
   160   81  202 1    
   161   81  203 1    
   162   81  204 1    
   163   82   83 2    
   164   82   84 am   BACKBONE|DICT|INTERRES
   165   84   85 1    
   166   84  205 1    
   167   85   86 1    
   168   85   87 1    
   169   85  206 1    
   170   86  207 1    
   171   86  208 1    
   172   86  209 1    
   173   87   88 2    
   174   87   89 am   BACKBONE|DICT|INTERRES
   175   89   90 1    
   176   89  210 1    
   177   90   91 1    
   178   90   92 1    
   179   90  211 1    
   180   91  212 1    
   181   91  213 1    
   182   91  214 1    
   183   92   93 2    
   184   92   94 am   BACKBONE|DICT|INTERRES
   185   94   95 1    
   186   94  215 1    
   187   95   96 1    
   188   95   97 1    
   189   95  216 1    
   190   96  217 1    
   191   96  218 1    
   192   96  219 1    
   193   97   98 2    
   194   97   99 am   BACKBONE|DICT|INTERRES
   195   99  100 1    
   196   99  220 1    
   197  100  101 1    
   198  100  102 1    
   199  100  221 1    
   200  101  222 1    
   201  101  223 1    
   202  101  224 1    
   203  102  103 2    
   204  102  104 am   BACKBONE|DICT|INTERRES
   205  104  105 1    
   206  104  225 1    
   207  105  106 1    
   208  105  107 1    
   209  105  226 1    
   210  106  227 1    
   211  106  228 1    
   212  106  229 1    
   213  107  108 2    
   214  107  109 am   BACKBONE|DICT|INTERRES
   215  109  110 1    
   216  109  230 1    
   217  110  111 1    
   218  110  112 1    
   219  110  231 1    
   220  111  232 1    
   221  111  233 1    
   222  111  234 1    
   223  112  113 2    
   224  112  114 am   BACKBONE|DICT|INTERRES
   225  114  115 1    
   226  114  235 1    
   227  115  116 1    
   228  115  117 1    
   229  115  236 1    
   230  116  237 1    
   231  116  238 1    
   232  116  239 1    
   233  117  118 2    
   234  117  119 am   BACKBONE|DICT|INTERRES
   235  119  120 1    
   236  119  240 1    
   237  120  121 1    
   238  120  124 1    
   239  120  241 1    
   240  121  122 am   BACKBONE|DICT|INTERRES
   241  121  123 2    
   242  122  242 1    
   243  122  243 1    
   244  124  125 1    
   245  124  244 1    
   246  124  245 1    
   247  125  126 1    
   248  126  246 1    
   249  126  247 1    
@<TRIPOS>SUBSTRUCTURE
     1 UNK         1 GROUP             0       ****    0 ROOT    
