@<TRIPOS>MOLECULE
3R540
247   249    1
SMALL
USER_CHARGES


@<TRIPOS>ATOM
      1 CA          5.9736  -10.1603  -51.7522 C.3       0 UNK        -0.1800 
      2 C           6.4143  -11.3944  -50.9775 C.2       0 UNK         0.5000 
      3 O           7.5362  -11.4325  -50.4710 O.2       0 UNK        -0.5000 
      4 N           5.5409  -12.4046  -50.8920 N.am      1 UNK        -0.5000 
      5 CA          5.7430  -13.6373  -50.1261 C.3       1 UNK         0.1400 
      6 C6          4.7436  -14.7476  -50.5368 C.3       23 UNK        -0.0398 
      7 S7          2.9918  -14.2200  -50.5733 S.3       23 UNK        -0.2404 
      8 C8          2.2560  -15.2674  -49.2833 C.3       23 UNK        -0.0205 
      9 C9          2.2147  -16.7334  -49.6891 C.ar      23 UNK        -0.0193 
     10 C10         1.3343  -17.1597  -50.6875 C.ar      23 UNK        -0.1150 
     11 C11         1.2772  -18.5069  -51.0546 C.ar      23 UNK        -0.0193 
     12 C12         2.0961  -19.4342  -50.4035 C.ar      23 UNK        -0.1150 
     13 C13         2.9758  -19.0211  -49.4001 C.ar      23 UNK        -0.0193 
     14 C14         3.0372  -17.6685  -49.0537 C.ar      23 UNK        -0.1150 
     15 C15         3.8731  -20.0282  -48.6980 C.3       23 UNK        -0.0205 
     16 S16         3.2744  -20.4130  -47.0240 S.3       23 UNK        -0.2404 
     17 C17         1.8403  -21.4933  -47.3678 C.3       23 UNK        -0.0398 
     18 CA          1.5264  -22.4518  -46.1853 C.3       11 UNK         0.1400 
     19 N           1.2820  -21.7252  -44.9367 N.am      11 UNK        -0.5000 
     20 C           2.0451  -21.7727  -43.8397 C.2       10 UNK         0.5000 
     21 O           3.0305  -22.5013  -43.7183 O.2       10 UNK        -0.5000 
     22 CA          1.6414  -20.8510  -42.6747 C.3       10 UNK         0.1400 
     23 CB          2.3431  -19.4908  -42.8048 C.3       10 UNK        -0.1800 
     24 N           0.1979  -20.6322  -42.5607 N.am      10 UNK        -0.5000 
     25 C          -0.6874  -21.5666  -42.1873 C.2       9 UNK         0.5000 
     26 O          -0.3918  -22.7455  -41.9925 O.2       9 UNK        -0.5000 
     27 CA         -2.1423  -21.1086  -41.9963 C.3       9 UNK         0.1400 
     28 CB         -2.2937  -20.3296  -40.6800 C.3       9 UNK        -0.1800 
     29 N          -2.5731  -20.2615  -43.1049 N.am      9 UNK        -0.5000 
     30 C          -3.3510  -20.6664  -44.1177 C.2       8 UNK         0.5000 
     31 O          -3.8501  -21.7883  -44.1945 O.2       8 UNK        -0.5000 
     32 CA         -3.6095  -19.6531  -45.2523 C.3       8 UNK         0.1400 
     33 CB         -4.9150  -18.8850  -44.9993 C.3       8 UNK        -0.1800 
     34 N          -2.5242  -18.6913  -45.4572 N.am      8 UNK        -0.5000 
     35 C          -1.2586  -19.0166  -45.7540 C.2       7 UNK         0.5000 
     36 O          -0.8718  -20.1714  -45.9100 O.2       7 UNK        -0.5000 
     37 CA         -0.2348  -17.8716  -45.8195 C.3       7 UNK         0.1400 
     38 CB         -0.1675  -17.3131  -47.2445 C.3       7 UNK        -0.1800 
     39 N          -0.4876  -16.7731  -44.8806 N.am      7 UNK        -0.5000 
     40 C          -0.6776  -16.8874  -43.5558 C.2       6 UNK         0.5000 
     41 O          -0.6845  -17.9675  -42.9628 O.2       6 UNK        -0.5000 
     42 CA         -0.9162  -15.5972  -42.7488 C.3       6 UNK         0.1400 
     43 CB          0.1605  -15.4279  -41.6648 C.3       6 UNK        -0.1800 
     44 N          -0.9721  -14.3926  -43.5832 N.am      6 UNK        -0.5000 
     45 C          -2.0619  -13.9911  -44.2555 C.2       5 UNK         0.5000 
     46 O          -3.1260  -14.6110  -44.2424 O.2       5 UNK        -0.5000 
     47 CA         -1.9653  -12.6938  -45.0857 C.3       5 UNK         0.1400 
     48 CB         -2.6596  -11.5365  -44.3512 C.3       5 UNK        -0.1800 
     49 N          -0.5968  -12.2887  -45.4110 N.am      5 UNK        -0.5000 
     50 C           0.2090  -12.9221  -46.2728 C.2       4 UNK         0.5000 
     51 O          -0.1257  -13.9319  -46.8936 O.2       4 UNK        -0.5000 
     52 CA          1.6414  -12.3658  -46.4483 C.3       4 UNK         0.1400 
     53 CB          1.9144  -11.0563  -45.6756 C.3       4 UNK        -0.1800 
     54 N           2.6601  -13.3627  -46.1091 N.am      4 UNK        -0.5000 
     55 C           2.7315  -14.0881  -44.9816 C.2       3 UNK         0.5000 
     56 O           1.9528  -13.9615  -44.0367 O.2       3 UNK        -0.5000 
     57 CA          3.8502  -15.1430  -44.8905 C.3       3 UNK         0.1400 
     58 CB          3.2979  -16.5303  -45.2493 C.3       3 UNK        -0.1800 
     59 N           5.0035  -14.8384  -45.7411 N.am      3 UNK        -0.5000 
     60 C           5.8910  -13.8715  -45.4696 C.2       2 UNK         0.5000 
     61 O           5.8452  -13.1674  -44.4600 O.2       2 UNK        -0.5000 
     62 CA          7.0214  -13.6439  -46.4906 C.3       2 UNK         0.1400 
     63 CB          8.2706  -14.4436  -46.0889 C.3       2 UNK        -0.1800 
     64 N           6.6866  -13.9549  -47.8849 N.am      2 UNK        -0.5000 
     65 C           5.7303  -13.3544  -48.6073 C.2       1 UNK         0.5000 
     66 O           4.8787  -12.6015  -48.1283 O.2       1 UNK        -0.5000 
     67 C           0.3337  -23.3857  -46.4839 C.2       11 UNK         0.5000 
     68 O           0.0954  -23.7274  -47.6431 O.2       11 UNK        -0.5000 
     69 N          -0.3925  -23.8068  -45.4341 N.am      12 UNK        -0.5000 
     70 CA         -1.6041  -24.6348  -45.4897 C.3       12 UNK         0.1400 
     71 CB         -2.1084  -24.8867  -44.0619 C.3       12 UNK        -0.1800 
     72 C          -1.4427  -25.9742  -46.2357 C.2       12 UNK         0.5000 
     73 O          -2.4145  -26.4650  -46.8099 O.2       12 UNK        -0.5000 
     74 N          -0.2156  -26.5135  -46.2643 N.am      13 UNK        -0.5000 
     75 CA          0.1734  -27.7079  -47.0196 C.3       13 UNK         0.1400 
     76 CB          1.6282  -28.0603  -46.6743 C.3       13 UNK        -0.1800 
     77 C           0.0011  -27.5707  -48.5483 C.2       13 UNK         0.5000 
     78 O          -0.1646  -28.5843  -49.2273 O.2       13 UNK        -0.5000 
     79 N           0.0109  -26.3310  -49.0600 N.am      14 UNK        -0.5000 
     80 CA         -0.2585  -25.9970  -50.4604 C.3       14 UNK         0.1400 
     81 CB          0.5406  -24.7326  -50.8242 C.3       14 UNK        -0.1800 
     82 C          -1.7632  -25.7955  -50.7480 C.2       14 UNK         0.5000 
     83 O          -2.1069  -25.3983  -51.8616 O.2       14 UNK        -0.5000 
     84 N          -2.6265  -26.0331  -49.7449 N.am      15 UNK        -0.5000 
     85 CA         -4.0716  -25.7680  -49.7226 C.3       15 UNK         0.1400 
     86 CB         -4.8199  -26.5883  -50.7941 C.3       15 UNK        -0.1800 
     87 C          -4.3933  -24.2603  -49.7810 C.2       15 UNK         0.5000 
     88 O          -5.4486  -23.8707  -50.2804 O.2       15 UNK        -0.5000 
     89 N          -3.4723  -23.4432  -49.2479 N.am      16 UNK        -0.5000 
     90 CA         -3.4432  -21.9798  -49.2975 C.3       16 UNK         0.1400 
     91 CB         -2.2263  -21.5031  -48.4940 C.3       16 UNK        -0.1800 
     92 C          -4.7150  -21.2632  -48.8080 C.2       16 UNK         0.5000 
     93 O          -4.9996  -20.1603  -49.2743 O.2       16 UNK        -0.5000 
     94 N          -5.4504  -21.8986  -47.8871 N.am      17 UNK        -0.5000 
     95 CA         -6.7034  -21.4004  -47.3217 C.3       17 UNK         0.1400 
     96 CB         -7.0482  -22.2353  -46.0788 C.3       17 UNK        -0.1800 
     97 C          -7.8886  -21.3915  -48.3085 C.2       17 UNK         0.5000 
     98 O          -8.8739  -20.7010  -48.0418 O.2       17 UNK        -0.5000 
     99 N          -7.8009  -22.1533  -49.4092 N.am      18 UNK        -0.5000 
    100 CA        -8.8149  -22.1818  -50.4629 C.3       18 UNK         0.1400 
    101 CB        -8.5419  -23.3691  -51.3990 C.3       18 UNK        -0.1800 
    102 C         -8.8345  -20.8660  -51.2611 C.2       18 UNK         0.5000 
    103 O         -7.7760  -20.2934  -51.5262 O.2       18 UNK        -0.5000 
    104 N        -10.0316  -20.4375  -51.6823 N.am      19 UNK        -0.5000 
    105 CA       -10.2494  -19.2170  -52.4692 C.3       19 UNK         0.1400 
    106 CB       -11.7588  -18.9492  -52.5713 C.3       19 UNK        -0.1800 
    107 C         -9.6123  -19.2614  -53.8734 C.2       19 UNK         0.5000 
    108 O         -9.2825  -18.2123  -54.4269 O.2       19 UNK        -0.5000 
    109 N         -9.4358  -20.4755  -54.4110 N.am      20 UNK        -0.5000 
    110 CA        -8.7394  -20.7459  -55.6685 C.3       20 UNK         0.1400 
    111 CB        -9.2508  -22.0838  -56.2273 C.3       20 UNK        -0.1800 
    112 C         -7.2031  -20.7767  -55.5184 C.2       20 UNK         0.5000 
    113 O         -6.5081  -20.7997  -56.5356 O.2       20 UNK        -0.5000 
    114 N         -6.7001  -20.8031  -54.2764 N.am      21 UNK        -0.5000 
    115 CA        -5.2806  -20.8380  -53.9391 C.3       21 UNK         0.1400 
    116 CB        -5.0438  -21.9464  -52.8938 C.3       21 UNK        -0.1800 
    117 C         -4.8124  -19.4396  -53.4876 C.2       21 UNK         0.5000 
    118 O         -5.1703  -18.4430  -54.1195 O.2       21 UNK        -0.5000 
    119 N         -3.9770  -19.3923  -52.4443 N.am      22 UNK        -0.5000 
    120 CA        -3.3090  -18.1851  -51.9344 C.3       22 UNK         0.1400 
    121 C         -4.2743  -17.1435  -51.3036 C.2       22 UNK         0.5000 
    122 N         -5.3035  -17.5686  -50.5820 N.am      22 UNK        -0.7600 
    123 O         -4.0860  -15.9420  -51.4723 O.2       22 UNK        -0.5000 
    124 C124       -2.1673  -18.5279  -50.9417 C.3       23 UNK        -0.0398 
    125 S125       -1.0802  -19.8781  -51.5248 S.3       23 UNK        -0.2404 
    126 C126        0.3508  -18.9639  -52.1694 C.3       23 UNK        -0.0205 
    127 H127        5.9879   -9.2851  -51.1026 H         1 UNK         0.0600 
    128 H128        6.6512   -9.9787  -52.5864 H         1 UNK         0.0600 
    129 H129        4.9650  -10.2711  -52.1511 H         1 UNK         0.0600 
    130 H130        4.6207  -12.3038  -51.2970 H         1 UNK         0.3000 
    131 H131        6.7405  -14.0036  -50.3794 H         1 UNK         0.0600 
    132 H132        4.8659  -15.6254  -49.9015 H         1 UNK         0.0800 
    133 H133        4.9907  -15.0895  -51.5426 H         1 UNK         0.0800 
    134 H134        2.8042  -15.1344  -48.3508 H         1 UNK         0.0800 
    135 H135        1.2392  -14.9222  -49.0919 H         1 UNK         0.0800 
    136 H136        0.7013  -16.4372  -51.1833 H         1 UNK         0.1150 
    137 H137        2.0472  -20.4776  -50.6822 H         1 UNK         0.1150 
    138 H138        3.7228  -17.3513  -48.2818 H         1 UNK         0.1150 
    139 H139        3.9640  -20.9462  -49.2804 H         1 UNK         0.0800 
    140 H140        4.8806  -19.6166  -48.6227 H         1 UNK         0.0800 
    141 H141        0.9817  -20.8630  -47.6029 H         1 UNK         0.0800 
    142 H142        2.0499  -22.0690  -48.2709 H         1 UNK         0.0800 
    143 H143        2.3862  -23.1137  -46.0670 H         1 UNK         0.0600 
    144 H144        0.4761  -21.1061  -44.9643 H         1 UNK         0.3000 
    145 H145        1.9823  -21.3208  -41.7497 H         1 UNK         0.0600 
    146 H146        2.1122  -18.8417  -41.9599 H         1 UNK         0.0600 
    147 H147        3.4267  -19.6098  -42.8401 H         1 UNK         0.0600 
    148 H148        2.0409  -18.9755  -43.7155 H         1 UNK         0.0600 
    149 H149       -0.1235  -19.6763  -42.6957 H         1 UNK         0.3000 
    150 H150       -2.7687  -22.0006  -41.9301 H         1 UNK         0.0600 
    151 H151       -1.9724  -20.9328  -39.8299 H         1 UNK         0.0600 
    152 H152       -3.3335  -20.0518  -40.5069 H         1 UNK         0.0600 
    153 H153       -1.6995  -19.4148  -40.6782 H         1 UNK         0.0600 
    154 H154       -2.1625  -19.3355  -43.1467 H         1 UNK         0.3000 
    155 H155       -3.7216  -20.2244  -46.1742 H         1 UNK         0.0600 
    156 H156       -5.7442  -19.5687  -44.8134 H         1 UNK         0.0600 
    157 H157       -5.1849  -18.2734  -45.8605 H         1 UNK         0.0600 
    158 H158       -4.8327  -18.2288  -44.1319 H         1 UNK         0.0600 
    159 H159       -2.7492  -17.7159  -45.3249 H         1 UNK         0.3000 
    160 H160        0.7406  -18.2951  -45.5763 H         1 UNK         0.0600 
    161 H161       -1.1089  -16.8521  -47.5458 H         1 UNK         0.0600 
    162 H162        0.0627  -18.0998  -47.9650 H         1 UNK         0.0600 
    163 H163        0.6130  -16.5590  -47.3242 H         1 UNK         0.0600 
    164 H164       -0.4977  -15.8431  -45.2774 H         1 UNK         0.3000 
    165 H165       -1.8756  -15.7134  -42.2403 H         1 UNK         0.0600 
    166 H166        1.1662  -15.4341  -42.0842 H         1 UNK         0.0600 
    167 H167        0.0286  -14.4959  -41.1153 H         1 UNK         0.0600 
    168 H168        0.1109  -16.2412  -40.9397 H         1 UNK         0.0600 
    169 H169       -0.1021  -13.8804  -43.6870 H         1 UNK         0.3000 
    170 H170       -2.4977  -12.8696  -46.0229 H         1 UNK         0.0600 
    171 H171       -3.6966  -11.7847  -44.1206 H         1 UNK         0.0600 
    172 H172       -2.1614  -11.3013  -43.4098 H         1 UNK         0.0600 
    173 H173       -2.6722  -10.6326  -44.9606 H         1 UNK         0.0600 
    174 H174       -0.2358  -11.4844  -44.9189 H         1 UNK         0.3000 
    175 H175        1.7585  -12.1554  -47.5125 H         1 UNK         0.0600 
    176 H176        2.9179  -10.6870  -45.8884 H         1 UNK         0.0600 
    177 H177        1.2181  -10.2695  -45.9684 H         1 UNK         0.0600 
    178 H178        1.8388  -11.1916  -44.5960 H         1 UNK         0.0600 
    179 H179        3.3845  -13.4876  -46.8052 H         1 UNK         0.3000 
    180 H180        4.1874  -15.1752  -43.8521 H         1 UNK         0.0600 
    181 H181        4.0658  -17.3006  -45.1762 H         1 UNK         0.0600 
    182 H182        2.4952  -16.8063  -44.5656 H         1 UNK         0.0600 
    183 H183        2.8865  -16.5543  -46.2574 H         1 UNK         0.0600 
    184 H184        5.1222  -15.3841  -46.5810 H         1 UNK         0.3000 
    185 H185        7.2746  -12.5824  -46.4512 H         1 UNK         0.0600 
    186 H186        9.1182  -14.2024  -46.7307 H         1 UNK         0.0600 
    187 H187        8.5682  -14.2174  -45.0640 H         1 UNK         0.0600 
    188 H188        8.0964  -15.5186  -46.1502 H         1 UNK         0.0600 
    189 H189        7.3327  -14.5698  -48.3588 H         1 UNK         0.3000 
    190 H190       -0.1185  -23.4817  -44.5171 H         1 UNK         0.3000 
    191 H191       -2.3637  -24.0587  -46.0218 H         1 UNK         0.0600 
    192 H192       -3.0132  -25.4961  -44.0658 H         1 UNK         0.0600 
    193 H193       -2.3550  -23.9520  -43.5605 H         1 UNK         0.0600 
    194 H194       -1.3632  -25.4047  -43.4569 H         1 UNK         0.0600 
    195 H195        0.5213  -26.0355  -45.7673 H         1 UNK         0.3000 
    196 H196       -0.4665  -28.5299  -46.6926 H         1 UNK         0.0600 
    197 H197        1.9464  -28.9639  -47.1961 H         1 UNK         0.0600 
    198 H198        1.7473  -28.2452  -45.6065 H         1 UNK         0.0600 
    199 H199        2.3132  -27.2597  -46.9564 H         1 UNK         0.0600 
    200 H200        0.1352  -25.5390  -48.4357 H         1 UNK         0.3000 
    201 H201        0.0895  -26.8105  -51.1002 H         1 UNK         0.0600 
    202 H202        1.5984  -24.8502  -50.5887 H         1 UNK         0.0600 
    203 H203        0.1734  -23.8547  -50.2915 H         1 UNK         0.0600 
    204 H204        0.4693  -24.5175  -51.8911 H         1 UNK         0.0600 
    205 H205       -2.2483  -26.3564  -48.8612 H         1 UNK         0.3000 
    206 H206       -4.4241  -26.1102  -48.7488 H         1 UNK         0.0600 
    207 H207       -4.5553  -27.6442  -50.7395 H         1 UNK         0.0600 
    208 H208       -5.8992  -26.5168  -50.6540 H         1 UNK         0.0600 
    209 H209       -4.6023  -26.2374  -51.8030 H         1 UNK         0.0600 
    210 H210       -2.6453  -23.8775  -48.8654 H         1 UNK         0.3000 
    211 H211       -3.2986  -21.6954  -50.3401 H         1 UNK         0.0600 
    212 H212       -2.1934  -20.4174  -48.4133 H         1 UNK         0.0600 
    213 H213       -2.2391  -21.9003  -47.4787 H         1 UNK         0.0600 
    214 H214       -1.2952  -21.8165  -48.9660 H         1 UNK         0.0600 
    215 H215       -5.1437  -22.8080  -47.5764 H         1 UNK         0.3000 
    216 H216       -6.5431  -20.3674  -47.0083 H         1 UNK         0.0600 
    217 H217       -7.9587  -21.8705  -45.6017 H         1 UNK         0.0600 
    218 H218       -6.2537  -22.1858  -45.3350 H         1 UNK         0.0600 
    219 H219       -7.2072  -23.2844  -46.3313 H         1 UNK         0.0600 
    220 H220       -6.9454  -22.6683  -49.5912 H         1 UNK         0.3000 
    221 H221       -9.7905  -22.3285  -49.9947 H         1 UNK         0.0600 
    222 H222       -7.5883  -23.2630  -51.9167 H         1 UNK         0.0600 
    223 H223       -8.5178  -24.3093  -50.8477 H         1 UNK         0.0600 
    224 H224       -9.3191  -23.4569  -52.1589 H         1 UNK         0.0600 
    225 H225      -10.8573  -20.9643  -51.4352 H         1 UNK         0.3000 
    226 H226       -9.7901  -18.3857  -51.9301 H         1 UNK         0.0600 
    227 H227      -11.9563  -18.0322  -53.1282 H         1 UNK         0.0600 
    228 H228      -12.2781  -19.7613  -53.0818 H         1 UNK         0.0600 
    229 H229      -12.2067  -18.8305  -51.5845 H         1 UNK         0.0600 
    230 H230       -9.7506  -21.2785  -53.8872 H         1 UNK         0.3000 
    231 H231       -8.9833  -19.9606  -56.3871 H         1 UNK         0.0600 
    232 H232       -8.7876  -22.3100  -57.1887 H         1 UNK         0.0600 
    233 H233      -10.3289  -22.0587  -56.3868 H         1 UNK         0.0600 
    234 H234       -9.0291  -22.9124  -55.5533 H         1 UNK         0.0600 
    235 H235       -7.3256  -20.6850  -53.4876 H         1 UNK         0.3000 
    236 H236       -4.6907  -21.0932  -54.8214 H         1 UNK         0.0600 
    237 H237       -5.5153  -21.7098  -51.9394 H         1 UNK         0.0600 
    238 H238       -5.4501  -22.8992  -53.2334 H         1 UNK         0.0600 
    239 H239       -3.9803  -22.1073  -52.7144 H         1 UNK         0.0600 
    240 H240       -3.7341  -20.2529  -51.9801 H         1 UNK         0.3000 
    241 H241       -2.8473  -17.7005  -52.7969 H         1 UNK         0.0600 
    242 H242       -5.9381  -16.9001  -50.1778 H         1 UNK         0.3800 
    243 H243       -5.4082  -18.5561  -50.3671 H         1 UNK         0.3800 
    244 H244       -2.5874  -18.8340  -49.9839 H         1 UNK         0.0800 
    245 H245       -1.5685  -17.6410  -50.7302 H         1 UNK         0.0800 
    246 H246        0.9048  -19.6148  -52.8472 H         1 UNK         0.0800 
    247 H247        0.0092  -18.1195  -52.7701 H         1 UNK         0.0800 
@<TRIPOS>BOND
     1    1    2 1    
     2    1  127 1    
     3    1  128 1    
     4    1  129 1    
     5    2    3 2    
     6    2    4 am   BACKBONE|DICT|INTERRES
     7    4    5 1    
     8    4  130 1    
     9    5    6 1    
    10    5   65 1    
    11    5  131 1    
    12    6    7 1    
    13    6  132 1    
    14    6  133 1    
    15    7    8 1    
    16    8    9 1    
    17    8  134 1    
    18    8  135 1    
    19    9   10 ar   
    20    9   14 ar   
    21   10   11 ar   
    22   10  136 1    
    23   11   12 ar   
    24   11  126 1    
    25   12   13 ar   
    26   12  137 1    
    27   13   14 ar   
    28   13   15 1    
    29   14  138 1    
    30   15   16 1    
    31   15  139 1    
    32   15  140 1    
    33   16   17 1    
    34   17   18 1    
    35   17  141 1    
    36   17  142 1    
    37   18   19 1    
    38   18   67 1    
    39   18  143 1    
    40   19   20 am   BACKBONE|DICT|INTERRES
    41   19  144 1    
    42   20   21 2    
    43   20   22 1    
    44   22   23 1    
    45   22   24 1    
    46   22  145 1    
    47   23  146 1    
    48   23  147 1    
    49   23  148 1    
    50   24   25 am   BACKBONE|DICT|INTERRES
    51   24  149 1    
    52   25   26 2    
    53   25   27 1    
    54   27   28 1    
    55   27   29 1    
    56   27  150 1    
    57   28  151 1    
    58   28  152 1    
    59   28  153 1    
    60   29   30 am   BACKBONE|DICT|INTERRES
    61   29  154 1    
    62   30   31 2    
    63   30   32 1    
    64   32   33 1    
    65   32   34 1    
    66   32  155 1    
    67   33  156 1    
    68   33  157 1    
    69   33  158 1    
    70   34   35 am   BACKBONE|DICT|INTERRES
    71   34  159 1    
    72   35   36 2    
    73   35   37 1    
    74   37   38 1    
    75   37   39 1    
    76   37  160 1    
    77   38  161 1    
    78   38  162 1    
    79   38  163 1    
    80   39   40 am   BACKBONE|DICT|INTERRES
    81   39  164 1    
    82   40   41 2    
    83   40   42 1    
    84   42   43 1    
    85   42   44 1    
    86   42  165 1    
    87   43  166 1    
    88   43  167 1    
    89   43  168 1    
    90   44   45 am   BACKBONE|DICT|INTERRES
    91   44  169 1    
    92   45   46 2    
    93   45   47 1    
    94   47   48 1    
    95   47   49 1    
    96   47  170 1    
    97   48  171 1    
    98   48  172 1    
    99   48  173 1    
   100   49   50 am   BACKBONE|DICT|INTERRES
   101   49  174 1    
   102   50   51 2    
   103   50   52 1    
   104   52   53 1    
   105   52   54 1    
   106   52  175 1    
   107   53  176 1    
   108   53  177 1    
   109   53  178 1    
   110   54   55 am   BACKBONE|DICT|INTERRES
   111   54  179 1    
   112   55   56 2    
   113   55   57 1    
   114   57   58 1    
   115   57   59 1    
   116   57  180 1    
   117   58  181 1    
   118   58  182 1    
   119   58  183 1    
   120   59   60 am   BACKBONE|DICT|INTERRES
   121   59  184 1    
   122   60   61 2    
   123   60   62 1    
   124   62   63 1    
   125   62   64 1    
   126   62  185 1    
   127   63  186 1    
   128   63  187 1    
   129   63  188 1    
   130   64   65 am   BACKBONE|DICT|INTERRES
   131   64  189 1    
   132   65   66 2    
   133   67   68 2    
   134   67   69 am   BACKBONE|DICT|INTERRES
   135   69   70 1    
   136   69  190 1    
   137   70   71 1    
   138   70   72 1    
   139   70  191 1    
   140   71  192 1    
   141   71  193 1    
   142   71  194 1    
   143   72   73 2    
   144   72   74 am   BACKBONE|DICT|INTERRES
   145   74   75 1    
   146   74  195 1    
   147   75   76 1    
   148   75   77 1    
   149   75  196 1    
   150   76  197 1    
   151   76  198 1    
   152   76  199 1    
   153   77   78 2    
   154   77   79 am   BACKBONE|DICT|INTERRES
   155   79   80 1    
   156   79  200 1    
   157   80   81 1    
   158   80   82 1    
   159   80  201 1    
   160   81  202 1    
   161   81  203 1    
   162   81  204 1    
   163   82   83 2    
   164   82   84 am   BACKBONE|DICT|INTERRES
   165   84   85 1    
   166   84  205 1    
   167   85   86 1    
   168   85   87 1    
   169   85  206 1    
   170   86  207 1    
   171   86  208 1    
   172   86  209 1    
   173   87   88 2    
   174   87   89 am   BACKBONE|DICT|INTERRES
   175   89   90 1    
   176   89  210 1    
   177   90   91 1    
   178   90   92 1    
   179   90  211 1    
   180   91  212 1    
   181   91  213 1    
   182   91  214 1    
   183   92   93 2    
   184   92   94 am   BACKBONE|DICT|INTERRES
   185   94   95 1    
   186   94  215 1    
   187   95   96 1    
   188   95   97 1    
   189   95  216 1    
   190   96  217 1    
   191   96  218 1    
   192   96  219 1    
   193   97   98 2    
   194   97   99 am   BACKBONE|DICT|INTERRES
   195   99  100 1    
   196   99  220 1    
   197  100  101 1    
   198  100  102 1    
   199  100  221 1    
   200  101  222 1    
   201  101  223 1    
   202  101  224 1    
   203  102  103 2    
   204  102  104 am   BACKBONE|DICT|INTERRES
   205  104  105 1    
   206  104  225 1    
   207  105  106 1    
   208  105  107 1    
   209  105  226 1    
   210  106  227 1    
   211  106  228 1    
   212  106  229 1    
   213  107  108 2    
   214  107  109 am   BACKBONE|DICT|INTERRES
   215  109  110 1    
   216  109  230 1    
   217  110  111 1    
   218  110  112 1    
   219  110  231 1    
   220  111  232 1    
   221  111  233 1    
   222  111  234 1    
   223  112  113 2    
   224  112  114 am   BACKBONE|DICT|INTERRES
   225  114  115 1    
   226  114  235 1    
   227  115  116 1    
   228  115  117 1    
   229  115  236 1    
   230  116  237 1    
   231  116  238 1    
   232  116  239 1    
   233  117  118 2    
   234  117  119 am   BACKBONE|DICT|INTERRES
   235  119  120 1    
   236  119  240 1    
   237  120  121 1    
   238  120  124 1    
   239  120  241 1    
   240  121  122 am   BACKBONE|DICT|INTERRES
   241  121  123 2    
   242  122  242 1    
   243  122  243 1    
   244  124  125 1    
   245  124  244 1    
   246  124  245 1    
   247  125  126 1    
   248  126  246 1    
   249  126  247 1    
@<TRIPOS>SUBSTRUCTURE
     1 UNK         1 GROUP             0       ****    0 ROOT    
