@<TRIPOS>MOLECULE
3R540
247   249    1
SMALL
USER_CHARGES


@<TRIPOS>ATOM
      1 CA         -0.1994   -8.3545  -48.8423 C.3       0 UNK        -0.1800 
      2 C          -0.1262   -9.5257  -47.8729 C.2       0 UNK         0.5000 
      3 O          -1.1595   -9.9655  -47.3688 O.2       0 UNK        -0.5000 
      4 N           1.0882  -10.0356  -47.6256 N.am      1 UNK        -0.5000 
      5 CA          1.4044  -11.1316  -46.6996 C.3       1 UNK         0.1400 
      6 C6          0.8616  -12.5182  -47.1552 C.3       23 UNK        -0.0398 
      7 S7          1.6050  -13.0379  -48.7404 S.3       23 UNK        -0.2404 
      8 C8          0.3010  -12.6026  -49.9349 C.3       23 UNK        -0.0205 
      9 C9         -0.5061  -13.8180  -50.3596 C.ar      23 UNK        -0.0193 
     10 C10        -0.2394  -14.4422  -51.5808 C.ar      23 UNK        -0.1150 
     11 C11        -0.9795  -15.5512  -52.0019 C.ar      23 UNK        -0.0193 
     12 C12        -1.9958  -16.0377  -51.1673 C.ar      23 UNK        -0.1150 
     13 C13        -2.2832  -15.4141  -49.9495 C.ar      23 UNK        -0.0193 
     14 C14        -1.5342  -14.3048  -49.5499 C.ar      23 UNK        -0.1150 
     15 C15        -3.4162  -15.9243  -49.0725 C.3       23 UNK        -0.0205 
     16 S16        -2.8419  -17.1928  -47.9055 S.3       23 UNK        -0.2404 
     17 C17        -2.6773  -18.6420  -49.0031 C.3       23 UNK        -0.0398 
     18 CA         -2.8940  -20.0147  -48.3232 C.3       11 UNK         0.1400 
     19 N          -1.7987  -20.4039  -47.4307 N.am      11 UNK        -0.5000 
     20 C          -1.5866  -21.6723  -47.0504 C.2       10 UNK         0.5000 
     21 O          -2.3067  -22.6123  -47.3856 O.2       10 UNK        -0.5000 
     22 CA         -0.4056  -21.9447  -46.1072 C.3       10 UNK         0.1400 
     23 CB          0.9299  -21.8702  -46.8622 C.3       10 UNK        -0.1800 
     24 N          -0.3901  -21.0517  -44.9505 N.am      10 UNK        -0.5000 
     25 C          -1.3618  -20.9969  -44.0272 C.2       9 UNK         0.5000 
     26 O          -2.3688  -21.7049  -44.0485 O.2       9 UNK        -0.5000 
     27 CA         -1.1988  -19.9558  -42.9074 C.3       9 UNK         0.1400 
     28 CB         -0.2413  -20.4721  -41.8232 C.3       9 UNK        -0.1800 
     29 N          -0.7329  -18.6624  -43.4066 N.am      9 UNK        -0.5000 
     30 C          -1.4298  -17.8794  -44.2426 C.2       8 UNK         0.5000 
     31 O          -2.5615  -18.1497  -44.6420 O.2       8 UNK        -0.5000 
     32 CA         -0.7285  -16.6058  -44.7514 C.3       8 UNK         0.1400 
     33 CB         -0.7443  -15.4993  -43.6863 C.3       8 UNK        -0.1800 
     34 N           0.6481  -16.8530  -45.1772 N.am      8 UNK        -0.5000 
     35 C           1.0082  -17.6863  -46.1647 C.2       7 UNK         0.5000 
     36 O           0.2184  -18.3334  -46.8524 O.2       7 UNK        -0.5000 
     37 CA          2.5189  -17.8676  -46.3782 C.3       7 UNK         0.1400 
     38 CB          3.1068  -16.6879  -47.1692 C.3       7 UNK        -0.1800 
     39 N           3.2279  -18.0203  -45.1069 N.am      7 UNK        -0.5000 
     40 C           3.1119  -19.0871  -44.3022 C.2       6 UNK         0.5000 
     41 O           2.4186  -20.0699  -44.5621 O.2       6 UNK        -0.5000 
     42 CA          3.8643  -19.0258  -42.9608 C.3       6 UNK         0.1400 
     43 CB          5.3457  -19.3851  -43.1492 C.3       6 UNK        -0.1800 
     44 N           3.7574  -17.7160  -42.3174 N.am      6 UNK        -0.5000 
     45 C           2.6137  -17.1960  -41.8509 C.2       5 UNK         0.5000 
     46 O           1.5322  -17.7794  -41.8869 O.2       5 UNK        -0.5000 
     47 CA          2.6780  -15.7667  -41.2880 C.3       5 UNK         0.1400 
     48 CB          3.0399  -15.7871  -39.7960 C.3       5 UNK        -0.1800 
     49 N           3.6109  -14.8916  -41.9986 N.am      5 UNK        -0.5000 
     50 C           3.5418  -14.5731  -43.2972 C.2       4 UNK         0.5000 
     51 O           2.7235  -15.0600  -44.0805 O.2       4 UNK        -0.5000 
     52 CA          4.5110  -13.4710  -43.7659 C.3       4 UNK         0.1400 
     53 CB          4.6077  -13.3864  -45.2996 C.3       4 UNK        -0.1800 
     54 N           4.0504  -12.1861  -43.2459 N.am      4 UNK        -0.5000 
     55 C           4.2034  -11.7546  -41.9853 C.2       3 UNK         0.5000 
     56 O           4.9374  -12.2994  -41.1597 O.2       3 UNK        -0.5000 
     57 CA          3.3251  -10.5605  -41.5651 C.3       3 UNK         0.1400 
     58 CB          4.0444   -9.2317  -41.8390 C.3       3 UNK        -0.1800 
     59 N           2.0377  -10.5670  -42.2643 N.am      3 UNK        -0.5000 
     60 C           1.0631  -11.4687  -42.0865 C.2       2 UNK         0.5000 
     61 O           1.0777  -12.3235  -41.2009 O.2       2 UNK        -0.5000 
     62 CA         -0.0970  -11.4484  -43.1014 C.3       2 UNK         0.1400 
     63 CB         -1.0083  -10.2219  -42.9016 C.3       2 UNK        -0.1800 
     64 N           0.3369  -11.5867  -44.5021 N.am      2 UNK        -0.5000 
     65 C           1.0477  -10.7270  -45.2494 C.2       1 UNK         0.5000 
     66 O           1.4625   -9.6445  -44.8280 O.2       1 UNK        -0.5000 
     67 C          -4.2816  -20.1656  -47.6601 C.2       11 UNK         0.5000 
     68 O          -5.2265  -20.5631  -48.3419 O.2       11 UNK        -0.5000 
     69 N          -4.3772  -19.9221  -46.3420 N.am      12 UNK        -0.5000 
     70 CA         -5.5859  -20.1514  -45.5419 C.3       12 UNK         0.1400 
     71 CB         -5.4072  -19.5501  -44.1406 C.3       12 UNK        -0.1800 
     72 C          -5.9694  -21.6411  -45.4465 C.2       12 UNK         0.5000 
     73 O          -7.1569  -21.9654  -45.4530 O.2       12 UNK        -0.5000 
     74 N          -4.9595  -22.5207  -45.4131 N.am      13 UNK        -0.5000 
     75 CA         -5.0987  -23.9773  -45.4899 C.3       13 UNK         0.1400 
     76 CB         -3.8719  -24.6195  -44.8205 C.3       13 UNK        -0.1800 
     77 C          -5.2679  -24.4955  -46.9361 C.2       13 UNK         0.5000 
     78 O          -5.2788  -25.7109  -47.1439 O.2       13 UNK        -0.5000 
     79 N          -5.3455  -23.5799  -47.9157 N.am      14 UNK        -0.5000 
     80 CA         -5.4342  -23.8093  -49.3615 C.3       14 UNK         0.1400 
     81 CB         -6.7917  -24.4437  -49.7274 C.3       14 UNK        -0.1800 
     82 C          -4.2413  -24.6046  -49.9302 C.2       14 UNK         0.5000 
     83 O          -4.3890  -25.2811  -50.9482 O.2       14 UNK        -0.5000 
     84 N          -3.0958  -24.5509  -49.2350 N.am      15 UNK        -0.5000 
     85 CA         -1.8648  -25.3043  -49.4768 C.3       15 UNK         0.1400 
     86 CB         -1.1379  -24.7203  -50.6983 C.3       15 UNK        -0.1800 
     87 C          -2.0790  -26.8332  -49.5518 C.2       15 UNK         0.5000 
     88 O          -1.3847  -27.5148  -50.3063 O.2       15 UNK        -0.5000 
     89 N          -3.0546  -27.3330  -48.7743 N.am      16 UNK        -0.5000 
     90 CA         -3.5699  -28.7068  -48.7787 C.3       16 UNK         0.1400 
     91 CB         -2.4992  -29.7097  -48.2990 C.3       16 UNK        -0.1800 
     92 C          -4.2098  -29.0871  -50.1332 C.2       16 UNK         0.5000 
     93 O          -4.0065  -30.1980  -50.6260 O.2       16 UNK        -0.5000 
     94 N          -4.9762  -28.1395  -50.6939 N.am      17 UNK        -0.5000 
     95 CA         -5.6523  -28.1661  -51.9929 C.3       17 UNK         0.1400 
     96 CB         -6.6843  -29.3113  -52.0734 C.3       17 UNK        -0.1800 
     97 C          -4.6431  -28.1568  -53.1570 C.2       17 UNK         0.5000 
     98 O          -4.6046  -29.0933  -53.9583 O.2       17 UNK        -0.5000 
     99 N          -3.8412  -27.0883  -53.2207 N.am      18 UNK        -0.5000 
    100 CA        -2.8618  -26.8312  -54.2746 C.3       18 UNK         0.1400 
    101 CB        -1.4592  -27.2127  -53.7711 C.3       18 UNK        -0.1800 
    102 C         -2.9298  -25.3593  -54.7152 C.2       18 UNK         0.5000 
    103 O         -3.6259  -24.5529  -54.0941 O.2       18 UNK        -0.5000 
    104 N         -2.1965  -25.0306  -55.7887 N.am      19 UNK        -0.5000 
    105 CA        -2.1854  -23.7210  -56.4547 C.3       19 UNK         0.1400 
    106 CB        -1.2659  -23.7927  -57.6830 C.3       19 UNK        -0.1800 
    107 C         -1.7851  -22.5341  -55.5556 C.2       19 UNK         0.5000 
    108 O         -2.2386  -21.4147  -55.7958 O.2       19 UNK        -0.5000 
    109 N         -0.9932  -22.8025  -54.5080 N.am      20 UNK        -0.5000 
    110 CA        -0.5850  -21.8400  -53.4795 C.3       20 UNK         0.1400 
    111 CB         0.6472  -22.3834  -52.7369 C.3       20 UNK        -0.1800 
    112 C         -1.7188  -21.3869  -52.5268 C.2       20 UNK         0.5000 
    113 O         -1.4702  -20.5691  -51.6411 O.2       20 UNK        -0.5000 
    114 N         -2.9535  -21.8646  -52.7496 N.am      21 UNK        -0.5000 
    115 CA        -4.1845  -21.2293  -52.2725 C.3       21 UNK         0.1400 
    116 CB        -5.3817  -22.1196  -52.6411 C.3       21 UNK        -0.1800 
    117 C         -4.3908  -19.8221  -52.8754 C.2       21 UNK         0.5000 
    118 O         -4.9520  -18.9537  -52.2078 O.2       21 UNK        -0.5000 
    119 N         -3.9266  -19.6343  -54.1208 N.am      22 UNK        -0.5000 
    120 CA        -3.9404  -18.3813  -54.8981 C.3       22 UNK         0.1400 
    121 C         -5.3526  -17.9088  -55.3612 C.2       22 UNK         0.5000 
    122 N         -6.3837  -18.7428  -55.3025 N.am      22 UNK        -0.7600 
    123 O         -5.5160  -16.7785  -55.8134 O.2       22 UNK        -0.5000 
    124 C124       -3.1184  -17.2360  -54.2413 C.3       23 UNK        -0.0398 
    125 S125       -1.4254  -17.7514  -53.7787 S.3       23 UNK        -0.2404 
    126 C126       -0.6392  -16.1564  -53.3675 C.3       23 UNK        -0.0205 
    127 H127       -0.6328   -7.4850  -48.3479 H         1 UNK         0.0600 
    128 H128       -0.8281   -8.6124  -49.6946 H         1 UNK         0.0600 
    129 H129        0.7854   -8.0763  -49.2184 H         1 UNK         0.0600 
    130 H130        1.8912   -9.6074  -48.0640 H         1 UNK         0.3000 
    131 H131        2.4932  -11.2019  -46.7015 H         1 UNK         0.0600 
    132 H132        1.1217  -13.2924  -46.4310 H         1 UNK         0.0800 
    133 H133       -0.2264  -12.5174  -47.2290 H         1 UNK         0.0800 
    134 H134       -0.3679  -11.8473  -49.5241 H         1 UNK         0.0800 
    135 H135        0.7710  -12.1414  -50.8048 H         1 UNK         0.0800 
    136 H136        0.5493  -14.0579  -52.2129 H         1 UNK         0.1150 
    137 H137       -2.5754  -16.9024  -51.4496 H         1 UNK         0.1150 
    138 H138       -1.7526  -13.8206  -48.6087 H         1 UNK         0.1150 
    139 H139       -3.8428  -15.0967  -48.5038 H         1 UNK         0.0800 
    140 H140       -4.2287  -16.3176  -49.6855 H         1 UNK         0.0800 
    141 H141       -1.6882  -18.6112  -49.4630 H         1 UNK         0.0800 
    142 H142       -3.3856  -18.5435  -49.8270 H         1 UNK         0.0800 
    143 H143       -2.8802  -20.7424  -49.1380 H         1 UNK         0.0600 
    144 H144       -1.1688  -19.6666  -47.1219 H         1 UNK         0.3000 
    145 H145       -0.5174  -22.9638  -45.7310 H         1 UNK         0.0600 
    146 H146        1.7590  -22.1790  -46.2256 H         1 UNK         0.0600 
    147 H147        0.9248  -22.5300  -47.7308 H         1 UNK         0.0600 
    148 H148        1.1389  -20.8614  -47.2177 H         1 UNK         0.0600 
    149 H149        0.4252  -20.4567  -44.8473 H         1 UNK         0.3000 
    150 H150       -2.1787  -19.8044  -42.4499 H         1 UNK         0.0600 
    151 H151       -0.5687  -21.4393  -41.4398 H         1 UNK         0.0600 
    152 H152       -0.1979  -19.7855  -40.9777 H         1 UNK         0.0600 
    153 H153        0.7723  -20.5950  -42.2067 H         1 UNK         0.0600 
    154 H154        0.1759  -18.3496  -43.0751 H         1 UNK         0.3000 
    155 H155       -1.2786  -16.2422  -45.6202 H         1 UNK         0.0600 
    156 H156       -1.7671  -15.2347  -43.4156 H         1 UNK         0.0600 
    157 H157       -0.2565  -14.5956  -44.0499 H         1 UNK         0.0600 
    158 H158       -0.2340  -15.8095  -42.7749 H         1 UNK         0.0600 
    159 H159        1.3778  -16.3472  -44.6837 H         1 UNK         0.3000 
    160 H160        2.6698  -18.7772  -46.9635 H         1 UNK         0.0600 
    161 H161        2.6202  -16.5925  -48.1409 H         1 UNK         0.0600 
    162 H162        2.9741  -15.7399  -46.6479 H         1 UNK         0.0600 
    163 H163        4.1726  -16.8252  -47.3511 H         1 UNK         0.0600 
    164 H164        3.7620  -17.2258  -44.7874 H         1 UNK         0.3000 
    165 H165        3.4162  -19.7667  -42.2950 H         1 UNK         0.0600 
    166 H166        5.8667  -19.4229  -42.1923 H         1 UNK         0.0600 
    167 H167        5.4524  -20.3658  -43.6150 H         1 UNK         0.0600 
    168 H168        5.8601  -18.6624  -43.7837 H         1 UNK         0.0600 
    169 H169        4.6001  -17.1646  -42.2500 H         1 UNK         0.3000 
    170 H170        1.6831  -15.3287  -41.3878 H         1 UNK         0.0600 
    171 H171        2.3469  -16.4150  -39.2343 H         1 UNK         0.0600 
    172 H172        4.0454  -16.1757  -39.6302 H         1 UNK         0.0600 
    173 H173        2.9908  -14.7861  -39.3665 H         1 UNK         0.0600 
    174 H174        4.2760  -14.3852  -41.4269 H         1 UNK         0.3000 
    175 H175        5.5050  -13.6924  -43.3718 H         1 UNK         0.0600 
    176 H176        3.6406  -13.1834  -45.7595 H         1 UNK         0.0600 
    177 H177        5.2970  -12.6005  -45.6084 H         1 UNK         0.0600 
    178 H178        4.9768  -14.3240  -45.7169 H         1 UNK         0.0600 
    179 H179        3.4091  -11.6750  -43.8317 H         1 UNK         0.3000 
    180 H180        3.1372  -10.6403  -40.4925 H         1 UNK         0.0600 
    181 H181        3.4520   -8.3850  -41.4918 H         1 UNK         0.0600 
    182 H182        4.2395   -9.0905  -42.9029 H         1 UNK         0.0600 
    183 H183        5.0030   -9.1924  -41.3199 H         1 UNK         0.0600 
    184 H184        1.9354   -9.9289  -43.0500 H         1 UNK         0.3000 
    185 H185       -0.7037  -12.3317  -42.8949 H         1 UNK         0.0600 
    186 H186       -0.4805   -9.2823  -43.0658 H         1 UNK         0.0600 
    187 H187       -1.8587  -10.2501  -43.5829 H         1 UNK         0.0600 
    188 H188       -1.4057  -10.1964  -41.8863 H         1 UNK         0.0600 
    189 H189        0.0523  -12.4524  -44.9356 H         1 UNK         0.3000 
    190 H190       -3.5721  -19.5472  -45.8503 H         1 UNK         0.3000 
    191 H191       -6.4118  -19.6301  -46.0301 H         1 UNK         0.0600 
    192 H192       -4.5599  -19.9940  -43.6172 H         1 UNK         0.0600 
    193 H193       -5.2433  -18.4738  -44.1929 H         1 UNK         0.0600 
    194 H194       -6.2947  -19.7129  -43.5279 H         1 UNK         0.0600 
    195 H195       -4.0105  -22.1667  -45.3592 H         1 UNK         0.3000 
    196 H196       -5.9871  -24.2796  -44.9321 H         1 UNK         0.0600 
    197 H197       -3.7629  -24.2795  -43.7905 H         1 UNK         0.0600 
    198 H198       -2.9510  -24.3749  -45.3508 H         1 UNK         0.0600 
    199 H199       -3.9583  -25.7063  -44.7943 H         1 UNK         0.0600 
    200 H200       -5.2986  -22.6047  -47.6479 H         1 UNK         0.3000 
    201 H201       -5.3920  -22.8246  -49.8251 H         1 UNK         0.0600 
    202 H202       -6.9263  -24.4883  -50.8088 H         1 UNK         0.0600 
    203 H203       -7.6194  -23.8605  -49.3240 H         1 UNK         0.0600 
    204 H204       -6.8801  -25.4611  -49.3454 H         1 UNK         0.0600 
    205 H205       -3.0518  -23.9192  -48.4374 H         1 UNK         0.3000 
    206 H206       -1.2288  -25.1375  -48.6063 H         1 UNK         0.0600 
    207 H207       -0.9075  -23.6686  -50.5294 H         1 UNK         0.0600 
    208 H208       -1.7453  -24.7861  -51.6010 H         1 UNK         0.0600 
    209 H209       -0.1952  -25.2349  -50.8863 H         1 UNK         0.0600 
    210 H210       -3.5789  -26.6812  -48.2013 H         1 UNK         0.3000 
    211 H211       -4.3806  -28.7246  -48.0487 H         1 UNK         0.0600 
    212 H212       -2.0759  -29.4064  -47.3415 H         1 UNK         0.0600 
    213 H213       -2.9301  -30.7021  -48.1627 H         1 UNK         0.0600 
    214 H214       -1.6808  -29.8067  -49.0127 H         1 UNK         0.0600 
    215 H215       -4.9817  -27.2314  -50.2474 H         1 UNK         0.3000 
    216 H216       -6.2081  -27.2296  -52.0624 H         1 UNK         0.0600 
    217 H217       -7.2614  -29.2460  -52.9964 H         1 UNK         0.0600 
    218 H218       -6.2128  -30.2940  -52.0564 H         1 UNK         0.0600 
    219 H219       -7.3908  -29.2636  -51.2448 H         1 UNK         0.0600 
    220 H220       -3.9683  -26.3334  -52.5488 H         1 UNK         0.3000 
    221 H221       -3.0958  -27.4347  -55.1540 H         1 UNK         0.0600 
    222 H222       -1.1480  -26.5930  -52.9319 H         1 UNK         0.0600 
    223 H223       -1.4308  -28.2514  -53.4410 H         1 UNK         0.0600 
    224 H224       -0.7100  -27.1036  -54.5556 H         1 UNK         0.0600 
    225 H225       -1.6454  -25.7516  -56.2319 H         1 UNK         0.3000 
    226 H226       -3.2021  -23.5273  -56.8024 H         1 UNK         0.0600 
    227 H227       -1.6031  -24.5548  -58.3858 H         1 UNK         0.0600 
    228 H228       -1.2536  -22.8426  -58.2191 H         1 UNK         0.0600 
    229 H229       -0.2376  -24.0243  -57.4022 H         1 UNK         0.0600 
    230 H230       -0.6864  -23.7555  -54.3810 H         1 UNK         0.3000 
    231 H231       -0.2685  -20.9292  -53.9924 H         1 UNK         0.0600 
    232 H232        0.8954  -21.7763  -51.8654 H         1 UNK         0.0600 
    233 H233        1.5209  -22.3785  -53.3888 H         1 UNK         0.0600 
    234 H234        0.5025  -23.4076  -52.4007 H         1 UNK         0.0600 
    235 H235       -3.0711  -22.6090  -53.4276 H         1 UNK         0.3000 
    236 H236       -4.1292  -21.1377  -51.1866 H         1 UNK         0.0600 
    237 H237       -6.3040  -21.7355  -52.2035 H         1 UNK         0.0600 
    238 H238       -5.5254  -22.1732  -53.7211 H         1 UNK         0.0600 
    239 H239       -5.2498  -23.1391  -52.2854 H         1 UNK         0.0600 
    240 H240       -3.4556  -20.4051  -54.5834 H         1 UNK         0.3000 
    241 H241       -3.4295  -18.6344  -55.8277 H         1 UNK         0.0600 
    242 H242       -7.2912  -18.4338  -55.6140 H         1 UNK         0.3800 
    243 H243       -6.2658  -19.6766  -54.9448 H         1 UNK         0.3800 
    244 H244       -3.0329  -16.3953  -54.9316 H         1 UNK         0.0800 
    245 H245       -3.6426  -16.8532  -53.3666 H         1 UNK         0.0800 
    246 H246        0.4401  -16.3084  -53.4138 H         1 UNK         0.0800 
    247 H247       -0.8773  -15.4309  -54.1465 H         1 UNK         0.0800 
@<TRIPOS>BOND
     1    1    2 1    
     2    1  127 1    
     3    1  128 1    
     4    1  129 1    
     5    2    3 2    
     6    2    4 am   BACKBONE|DICT|INTERRES
     7    4    5 1    
     8    4  130 1    
     9    5    6 1    
    10    5   65 1    
    11    5  131 1    
    12    6    7 1    
    13    6  132 1    
    14    6  133 1    
    15    7    8 1    
    16    8    9 1    
    17    8  134 1    
    18    8  135 1    
    19    9   10 ar   
    20    9   14 ar   
    21   10   11 ar   
    22   10  136 1    
    23   11   12 ar   
    24   11  126 1    
    25   12   13 ar   
    26   12  137 1    
    27   13   14 ar   
    28   13   15 1    
    29   14  138 1    
    30   15   16 1    
    31   15  139 1    
    32   15  140 1    
    33   16   17 1    
    34   17   18 1    
    35   17  141 1    
    36   17  142 1    
    37   18   19 1    
    38   18   67 1    
    39   18  143 1    
    40   19   20 am   BACKBONE|DICT|INTERRES
    41   19  144 1    
    42   20   21 2    
    43   20   22 1    
    44   22   23 1    
    45   22   24 1    
    46   22  145 1    
    47   23  146 1    
    48   23  147 1    
    49   23  148 1    
    50   24   25 am   BACKBONE|DICT|INTERRES
    51   24  149 1    
    52   25   26 2    
    53   25   27 1    
    54   27   28 1    
    55   27   29 1    
    56   27  150 1    
    57   28  151 1    
    58   28  152 1    
    59   28  153 1    
    60   29   30 am   BACKBONE|DICT|INTERRES
    61   29  154 1    
    62   30   31 2    
    63   30   32 1    
    64   32   33 1    
    65   32   34 1    
    66   32  155 1    
    67   33  156 1    
    68   33  157 1    
    69   33  158 1    
    70   34   35 am   BACKBONE|DICT|INTERRES
    71   34  159 1    
    72   35   36 2    
    73   35   37 1    
    74   37   38 1    
    75   37   39 1    
    76   37  160 1    
    77   38  161 1    
    78   38  162 1    
    79   38  163 1    
    80   39   40 am   BACKBONE|DICT|INTERRES
    81   39  164 1    
    82   40   41 2    
    83   40   42 1    
    84   42   43 1    
    85   42   44 1    
    86   42  165 1    
    87   43  166 1    
    88   43  167 1    
    89   43  168 1    
    90   44   45 am   BACKBONE|DICT|INTERRES
    91   44  169 1    
    92   45   46 2    
    93   45   47 1    
    94   47   48 1    
    95   47   49 1    
    96   47  170 1    
    97   48  171 1    
    98   48  172 1    
    99   48  173 1    
   100   49   50 am   BACKBONE|DICT|INTERRES
   101   49  174 1    
   102   50   51 2    
   103   50   52 1    
   104   52   53 1    
   105   52   54 1    
   106   52  175 1    
   107   53  176 1    
   108   53  177 1    
   109   53  178 1    
   110   54   55 am   BACKBONE|DICT|INTERRES
   111   54  179 1    
   112   55   56 2    
   113   55   57 1    
   114   57   58 1    
   115   57   59 1    
   116   57  180 1    
   117   58  181 1    
   118   58  182 1    
   119   58  183 1    
   120   59   60 am   BACKBONE|DICT|INTERRES
   121   59  184 1    
   122   60   61 2    
   123   60   62 1    
   124   62   63 1    
   125   62   64 1    
   126   62  185 1    
   127   63  186 1    
   128   63  187 1    
   129   63  188 1    
   130   64   65 am   BACKBONE|DICT|INTERRES
   131   64  189 1    
   132   65   66 2    
   133   67   68 2    
   134   67   69 am   BACKBONE|DICT|INTERRES
   135   69   70 1    
   136   69  190 1    
   137   70   71 1    
   138   70   72 1    
   139   70  191 1    
   140   71  192 1    
   141   71  193 1    
   142   71  194 1    
   143   72   73 2    
   144   72   74 am   BACKBONE|DICT|INTERRES
   145   74   75 1    
   146   74  195 1    
   147   75   76 1    
   148   75   77 1    
   149   75  196 1    
   150   76  197 1    
   151   76  198 1    
   152   76  199 1    
   153   77   78 2    
   154   77   79 am   BACKBONE|DICT|INTERRES
   155   79   80 1    
   156   79  200 1    
   157   80   81 1    
   158   80   82 1    
   159   80  201 1    
   160   81  202 1    
   161   81  203 1    
   162   81  204 1    
   163   82   83 2    
   164   82   84 am   BACKBONE|DICT|INTERRES
   165   84   85 1    
   166   84  205 1    
   167   85   86 1    
   168   85   87 1    
   169   85  206 1    
   170   86  207 1    
   171   86  208 1    
   172   86  209 1    
   173   87   88 2    
   174   87   89 am   BACKBONE|DICT|INTERRES
   175   89   90 1    
   176   89  210 1    
   177   90   91 1    
   178   90   92 1    
   179   90  211 1    
   180   91  212 1    
   181   91  213 1    
   182   91  214 1    
   183   92   93 2    
   184   92   94 am   BACKBONE|DICT|INTERRES
   185   94   95 1    
   186   94  215 1    
   187   95   96 1    
   188   95   97 1    
   189   95  216 1    
   190   96  217 1    
   191   96  218 1    
   192   96  219 1    
   193   97   98 2    
   194   97   99 am   BACKBONE|DICT|INTERRES
   195   99  100 1    
   196   99  220 1    
   197  100  101 1    
   198  100  102 1    
   199  100  221 1    
   200  101  222 1    
   201  101  223 1    
   202  101  224 1    
   203  102  103 2    
   204  102  104 am   BACKBONE|DICT|INTERRES
   205  104  105 1    
   206  104  225 1    
   207  105  106 1    
   208  105  107 1    
   209  105  226 1    
   210  106  227 1    
   211  106  228 1    
   212  106  229 1    
   213  107  108 2    
   214  107  109 am   BACKBONE|DICT|INTERRES
   215  109  110 1    
   216  109  230 1    
   217  110  111 1    
   218  110  112 1    
   219  110  231 1    
   220  111  232 1    
   221  111  233 1    
   222  111  234 1    
   223  112  113 2    
   224  112  114 am   BACKBONE|DICT|INTERRES
   225  114  115 1    
   226  114  235 1    
   227  115  116 1    
   228  115  117 1    
   229  115  236 1    
   230  116  237 1    
   231  116  238 1    
   232  116  239 1    
   233  117  118 2    
   234  117  119 am   BACKBONE|DICT|INTERRES
   235  119  120 1    
   236  119  240 1    
   237  120  121 1    
   238  120  124 1    
   239  120  241 1    
   240  121  122 am   BACKBONE|DICT|INTERRES
   241  121  123 2    
   242  122  242 1    
   243  122  243 1    
   244  124  125 1    
   245  124  244 1    
   246  124  245 1    
   247  125  126 1    
   248  126  246 1    
   249  126  247 1    
@<TRIPOS>SUBSTRUCTURE
     1 UNK         1 GROUP             0       ****    0 ROOT    
