@<TRIPOS>MOLECULE
3R540
247   249    1
SMALL
USER_CHARGES


@<TRIPOS>ATOM
      1 CA         -2.2779  -12.1247  -47.4185 C.3       0 UNK        -0.1800 
      2 C          -0.9444  -12.2852  -48.1355 C.2       0 UNK         0.5000 
      3 O          -0.1130  -11.3776  -48.1001 O.2       0 UNK        -0.5000 
      4 N          -0.7429  -13.4338  -48.7896 N.am      1 UNK        -0.5000 
      5 CA          0.5086  -13.8351  -49.4369 C.3       1 UNK         0.1400 
      6 C6          0.2866  -14.9777  -50.4652 C.3       23 UNK        -0.0398 
      7 S7         -0.7072  -16.3816  -49.8386 S.3       23 UNK        -0.2404 
      8 C8         -2.3061  -16.0511  -50.6459 C.3       23 UNK        -0.0205 
      9 C9         -3.4279  -16.8446  -49.9969 C.ar      23 UNK        -0.0193 
     10 C10        -3.8734  -18.0415  -50.5637 C.ar      23 UNK        -0.1150 
     11 C11        -4.9001  -18.7747  -49.9598 C.ar      23 UNK        -0.0193 
     12 C12        -5.4857  -18.2987  -48.7836 C.ar      23 UNK        -0.1150 
     13 C13        -5.0531  -17.0989  -48.2123 C.ar      23 UNK        -0.0193 
     14 C14        -4.0276  -16.3747  -48.8256 C.ar      23 UNK        -0.1150 
     15 C15        -5.6834  -16.5869  -46.9269 C.3       23 UNK        -0.0205 
     16 S16        -4.5786  -16.8119  -45.4976 S.3       23 UNK        -0.2404 
     17 C17        -4.5115  -18.6303  -45.3536 C.3       23 UNK        -0.0398 
     18 CA         -3.2477  -19.2365  -46.0106 C.3       11 UNK         0.1400 
     19 N          -2.0061  -18.8331  -45.3438 N.am      11 UNK        -0.5000 
     20 C          -0.7801  -19.1216  -45.8022 C.2       10 UNK         0.5000 
     21 O          -0.5661  -19.7382  -46.8435 O.2       10 UNK        -0.5000 
     22 CA          0.4089  -18.7182  -44.9197 C.3       10 UNK         0.1400 
     23 CB          0.6929  -17.2144  -45.0292 C.3       10 UNK        -0.1800 
     24 N           0.2117  -19.0909  -43.5220 N.am      10 UNK        -0.5000 
     25 C           0.1029  -20.3492  -43.0745 C.2       9 UNK         0.5000 
     26 O           0.1596  -21.3412  -43.7978 O.2       9 UNK        -0.5000 
     27 CA         -0.1449  -20.5307  -41.5688 C.3       9 UNK         0.1400 
     28 CB          1.1758  -20.4767  -40.7858 C.3       9 UNK        -0.1800 
     29 N          -1.0709  -19.5294  -41.0448 N.am      9 UNK        -0.5000 
     30 C          -2.3731  -19.4672  -41.3570 C.2       8 UNK         0.5000 
     31 O          -2.9488  -20.2811  -42.0813 O.2       8 UNK        -0.5000 
     32 CA         -3.1434  -18.2551  -40.8022 C.3       8 UNK         0.1400 
     33 CB         -3.5557  -18.4917  -39.3415 C.3       8 UNK        -0.1800 
     34 N          -2.3756  -17.0102  -40.8981 N.am      8 UNK        -0.5000 
     35 C          -2.0050  -16.4487  -42.0575 C.2       7 UNK         0.5000 
     36 O          -2.2689  -16.9265  -43.1588 O.2       7 UNK        -0.5000 
     37 CA         -1.1593  -15.1658  -41.9740 C.3       7 UNK         0.1400 
     38 CB         -2.0562  -13.9398  -41.7457 C.3       7 UNK        -0.1800 
     39 N          -0.1157  -15.2087  -40.9453 N.am      7 UNK        -0.5000 
     40 C           0.8938  -16.0884  -40.9210 C.2       6 UNK         0.5000 
     41 O           1.0020  -17.0333  -41.7046 O.2       6 UNK        -0.5000 
     42 CA          1.9486  -15.9028  -39.8248 C.3       6 UNK         0.1400 
     43 CB          1.6776  -16.8625  -38.6557 C.3       6 UNK        -0.1800 
     44 N           3.2623  -16.1978  -40.3924 N.am      6 UNK        -0.5000 
     45 C           4.2609  -15.3176  -40.5322 C.2       5 UNK         0.5000 
     46 O           4.2118  -14.1568  -40.1227 O.2       5 UNK        -0.5000 
     47 CA          5.5397  -15.8074  -41.2426 C.3       5 UNK         0.1400 
     48 CB          6.6140  -16.1807  -40.2090 C.3       5 UNK        -0.1800 
     49 N           5.3264  -16.9506  -42.1353 N.am      5 UNK        -0.5000 
     50 C           4.7220  -16.8829  -43.3281 C.2       4 UNK         0.5000 
     51 O           4.2604  -15.8429  -43.8076 O.2       4 UNK        -0.5000 
     52 CA          4.6166  -18.2025  -44.1098 C.3       4 UNK         0.1400 
     53 CB          3.7191  -19.2146  -43.3746 C.3       4 UNK        -0.1800 
     54 N           4.0867  -17.9112  -45.4381 N.am      4 UNK        -0.5000 
     55 C           4.2236  -18.6713  -46.5306 C.2       3 UNK         0.5000 
     56 O           4.7456  -19.7865  -46.5210 O.2       3 UNK        -0.5000 
     57 CA          3.7176  -18.0886  -47.8676 C.3       3 UNK         0.1400 
     58 CB          2.4267  -18.7805  -48.3320 C.3       3 UNK        -0.1800 
     59 N           3.4928  -16.6411  -47.8264 N.am      3 UNK        -0.5000 
     60 C           4.4569  -15.7137  -47.8863 C.2       2 UNK         0.5000 
     61 O           5.6525  -15.9927  -47.9907 O.2       2 UNK        -0.5000 
     62 CA          4.0045  -14.2363  -47.8376 C.3       2 UNK         0.1400 
     63 CB          5.1347  -13.2588  -48.2086 C.3       2 UNK        -0.1800 
     64 N           2.8517  -13.9693  -48.7050 N.am      2 UNK        -0.5000 
     65 C           1.5741  -14.2056  -48.3828 C.2       1 UNK         0.5000 
     66 O           1.2361  -14.7231  -47.3167 O.2       1 UNK        -0.5000 
     67 C          -3.3722  -20.7701  -46.1134 C.2       11 UNK         0.5000 
     68 O          -3.7519  -21.2719  -47.1708 O.2       11 UNK        -0.5000 
     69 N          -3.0141  -21.4885  -45.0379 N.am      12 UNK        -0.5000 
     70 CA         -2.9831  -22.9514  -45.0039 C.3       12 UNK         0.1400 
     71 CB         -2.7606  -23.4328  -43.5625 C.3       12 UNK        -0.1800 
     72 C          -1.9284  -23.5444  -45.9571 C.2       12 UNK         0.5000 
     73 O          -2.2421  -24.4696  -46.7066 O.2       12 UNK        -0.5000 
     74 N          -0.7120  -22.9817  -45.9397 N.am      13 UNK        -0.5000 
     75 CA          0.3967  -23.3590  -46.8166 C.3       13 UNK         0.1400 
     76 CB          1.6717  -22.6100  -46.3975 C.3       13 UNK        -0.1800 
     77 C           0.0846  -23.1140  -48.3015 C.2       13 UNK         0.5000 
     78 O           0.3263  -23.9955  -49.1243 O.2       13 UNK        -0.5000 
     79 N          -0.4823  -21.9426  -48.6140 N.am      14 UNK        -0.5000 
     80 CA         -0.9047  -21.5615  -49.9590 C.3       14 UNK         0.1400 
     81 CB         -1.2567  -20.0716  -49.9721 C.3       14 UNK        -0.1800 
     82 C          -2.0743  -22.4121  -50.4855 C.2       14 UNK         0.5000 
     83 O          -2.1013  -22.7262  -51.6757 O.2       14 UNK        -0.5000 
     84 N          -3.0029  -22.8005  -49.5996 N.am      15 UNK        -0.5000 
     85 CA         -4.0932  -23.7246  -49.9123 C.3       15 UNK         0.1400 
     86 CB         -5.1256  -23.7303  -48.7756 C.3       15 UNK        -0.1800 
     87 C          -3.5796  -25.1461  -50.2005 C.2       15 UNK         0.5000 
     88 O          -4.0186  -25.7583  -51.1739 O.2       15 UNK        -0.5000 
     89 N          -2.6284  -25.6260  -49.3856 N.am      16 UNK        -0.5000 
     90 CA         -1.9536  -26.9152  -49.5602 C.3       16 UNK         0.1400 
     91 CB         -1.1024  -27.2222  -48.3188 C.3       16 UNK        -0.1800 
     92 C          -1.0988  -26.9761  -50.8413 C.2       16 UNK         0.5000 
     93 O          -1.0914  -28.0037  -51.5199 O.2       16 UNK        -0.5000 
     94 N          -0.4260  -25.8642  -51.1678 N.am      17 UNK        -0.5000 
     95 CA          0.3420  -25.6722  -52.4005 C.3       17 UNK         0.1400 
     96 CB          1.2770  -24.4663  -52.2190 C.3       17 UNK        -0.1800 
     97 C          -0.5364  -25.4789  -53.6544 C.2       17 UNK         0.5000 
     98 O          -0.0136  -25.5670  -54.7661 O.2       17 UNK        -0.5000 
     99 N          -1.8360  -25.2140  -53.4543 N.am      18 UNK        -0.5000 
    100 CA        -2.8621  -24.9286  -54.4584 C.3       18 UNK         0.1400 
    101 CB        -3.1241  -26.1613  -55.3488 C.3       18 UNK        -0.1800 
    102 C         -2.5485  -23.6477  -55.2567 C.2       18 UNK         0.5000 
    103 O         -2.4944  -23.6769  -56.4877 O.2       18 UNK        -0.5000 
    104 N         -2.3402  -22.5419  -54.5256 N.am      19 UNK        -0.5000 
    105 CA        -2.0406  -21.2083  -55.0595 C.3       19 UNK         0.1400 
    106 CB        -1.7890  -20.2455  -53.8883 C.3       19 UNK        -0.1800 
    107 C         -3.1312  -20.6406  -55.9912 C.2       19 UNK         0.5000 
    108 O         -2.8048  -19.9043  -56.9225 O.2       19 UNK        -0.5000 
    109 N         -4.3953  -21.0061  -55.7256 N.am      20 UNK        -0.5000 
    110 CA        -5.5961  -20.7266  -56.5262 C.3       20 UNK         0.1400 
    111 CB        -5.4975  -21.4058  -57.9085 C.3       20 UNK        -0.1800 
    112 C         -5.9850  -19.2341  -56.6272 C.2       20 UNK         0.5000 
    113 O         -6.7822  -18.8707  -57.4940 O.2       20 UNK        -0.5000 
    114 N         -5.4481  -18.4047  -55.7248 N.am      21 UNK        -0.5000 
    115 CA        -5.8550  -17.0202  -55.5053 C.3       21 UNK         0.1400 
    116 CB        -4.6092  -16.1830  -55.1503 C.3       21 UNK        -0.1800 
    117 C         -6.9280  -17.0393  -54.4042 C.2       21 UNK         0.5000 
    118 O         -8.0988  -17.2811  -54.7006 O.2       21 UNK        -0.5000 
    119 N         -6.4899  -16.8694  -53.1513 N.am      22 UNK        -0.5000 
    120 CA        -7.2364  -17.1880  -51.9214 C.3       22 UNK         0.1400 
    121 C         -8.4652  -16.2774  -51.6204 C.2       22 UNK         0.5000 
    122 N         -8.5965  -15.1178  -52.2526 N.am      22 UNK        -0.7600 
    123 O         -9.2981  -16.6073  -50.7804 O.2       22 UNK        -0.5000 
    124 C124       -7.5674  -18.7078  -51.7906 C.3       23 UNK        -0.0398 
    125 S125       -6.1689  -19.8203  -52.2022 S.3       23 UNK        -0.2404 
    126 C126       -5.3836  -20.0760  -50.5806 C.3       23 UNK        -0.0205 
    127 H127       -2.1136  -11.9694  -46.3522 H         1 UNK         0.0600 
    128 H128       -2.9121  -13.0035  -47.5394 H         1 UNK         0.0600 
    129 H129       -2.8146  -11.2613  -47.8117 H         1 UNK         0.0600 
    130 H130       -1.4362  -14.1651  -48.7327 H         1 UNK         0.3000 
    131 H131        0.8861  -12.9704  -49.9872 H         1 UNK         0.0600 
    132 H132       -0.2026  -14.5694  -51.3505 H         1 UNK         0.0800 
    133 H133        1.2408  -15.3667  -50.8250 H         1 UNK         0.0800 
    134 H134       -2.2294  -16.2936  -51.7069 H         1 UNK         0.0800 
    135 H135       -2.5403  -14.9871  -50.5896 H         1 UNK         0.0800 
    136 H136       -3.4231  -18.4057  -51.4757 H         1 UNK         0.1150 
    137 H137       -6.2776  -18.8630  -48.3119 H         1 UNK         0.1150 
    138 H138       -3.6863  -15.4516  -48.3793 H         1 UNK         0.1150 
    139 H139       -5.9071  -15.5248  -47.0354 H         1 UNK         0.0800 
    140 H140       -6.6372  -17.0807  -46.7347 H         1 UNK         0.0800 
    141 H141       -5.4185  -19.0471  -45.7950 H         1 UNK         0.0800 
    142 H142       -4.5458  -18.8882  -44.2935 H         1 UNK         0.0800 
    143 H143       -3.1860  -18.8641  -47.0350 H         1 UNK         0.0600 
    144 H144       -2.1007  -18.2754  -44.4981 H         1 UNK         0.3000 
    145 H145        1.2889  -19.2545  -45.2796 H         1 UNK         0.0600 
    146 H146        1.5427  -16.9199  -44.4142 H         1 UNK         0.0600 
    147 H147        0.9250  -16.9456  -46.0578 H         1 UNK         0.0600 
    148 H148       -0.1632  -16.6139  -44.7257 H         1 UNK         0.0600 
    149 H149        0.2139  -18.3312  -42.8472 H         1 UNK         0.3000 
    150 H150       -0.5892  -21.5170  -41.4192 H         1 UNK         0.0600 
    151 H151        1.8704  -21.2379  -41.1434 H         1 UNK         0.0600 
    152 H152        1.0128  -20.6582  -39.7234 H         1 UNK         0.0600 
    153 H153        1.6702  -19.5110  -40.8893 H         1 UNK         0.0600 
    154 H154       -0.6725  -18.7890  -40.4874 H         1 UNK         0.3000 
    155 H155       -4.0508  -18.1383  -41.3988 H         1 UNK         0.0600 
    156 H156       -2.6888  -18.5846  -38.6862 H         1 UNK         0.0600 
    157 H157       -4.1401  -19.4078  -39.2452 H         1 UNK         0.0600 
    158 H158       -4.1724  -17.6737  -38.9688 H         1 UNK         0.0600 
    159 H159       -2.1110  -16.5617  -40.0336 H         1 UNK         0.3000 
    160 H160       -0.6613  -15.0409  -42.9375 H         1 UNK         0.0600 
    161 H161       -1.4805  -13.0153  -41.7936 H         1 UNK         0.0600 
    162 H162       -2.5528  -13.9773  -40.7755 H         1 UNK         0.0600 
    163 H163       -2.8323  -13.8771  -42.5099 H         1 UNK         0.0600 
    164 H164       -0.1403  -14.4739  -40.2531 H         1 UNK         0.3000 
    165 H165        1.9013  -14.8763  -39.4557 H         1 UNK         0.0600 
    166 H166        2.4196  -16.7374  -37.8670 H         1 UNK         0.0600 
    167 H167        0.6984  -16.6747  -38.2133 H         1 UNK         0.0600 
    168 H168        1.7013  -17.9057  -38.9724 H         1 UNK         0.0600 
    169 H169        3.3539  -17.1035  -40.8291 H         1 UNK         0.3000 
    170 H170        5.9192  -14.9747  -41.8389 H         1 UNK         0.0600 
    171 H171        6.8252  -15.3422  -39.5439 H         1 UNK         0.0600 
    172 H172        6.3004  -17.0208  -39.5880 H         1 UNK         0.0600 
    173 H173        7.5518  -16.4518  -40.6941 H         1 UNK         0.0600 
    174 H174        5.6809  -17.8401  -41.8143 H         1 UNK         0.3000 
    175 H175        5.6215  -18.6157  -44.2182 H         1 UNK         0.0600 
    176 H176        4.2093  -19.5948  -42.4782 H         1 UNK         0.0600 
    177 H177        3.4754  -20.0755  -43.9973 H         1 UNK         0.0600 
    178 H178        2.7870  -18.7512  -43.0583 H         1 UNK         0.0600 
    179 H179        3.6996  -16.9798  -45.5261 H         1 UNK         0.3000 
    180 H180        4.4885  -18.2974  -48.6124 H         1 UNK         0.0600 
    181 H181        1.5820  -18.5191  -47.6991 H         1 UNK         0.0600 
    182 H182        2.5269  -19.8666  -48.3172 H         1 UNK         0.0600 
    183 H183        2.1724  -18.4924  -49.3522 H         1 UNK         0.0600 
    184 H184        2.5372  -16.3217  -47.7167 H         1 UNK         0.3000 
    185 H185        3.7226  -14.0302  -46.8026 H         1 UNK         0.0600 
    186 H186        5.9887  -13.3726  -47.5395 H         1 UNK         0.0600 
    187 H187        5.4895  -13.4214  -49.2271 H         1 UNK         0.0600 
    188 H188        4.8021  -12.2235  -48.1299 H         1 UNK         0.0600 
    189 H189        3.0648  -13.5764  -49.6107 H         1 UNK         0.3000 
    190 H190       -2.7185  -21.0060  -44.1977 H         1 UNK         0.3000 
    191 H191       -3.9610  -23.3118  -45.3302 H         1 UNK         0.0600 
    192 H192       -1.8078  -23.0872  -43.1617 H         1 UNK         0.0600 
    193 H193       -2.7628  -24.5222  -43.5107 H         1 UNK         0.0600 
    194 H194       -3.5495  -23.0735  -42.9014 H         1 UNK         0.0600 
    195 H195       -0.5184  -22.2492  -45.2603 H         1 UNK         0.3000 
    196 H196        0.5729  -24.4287  -46.6870 H         1 UNK         0.0600 
    197 H197        2.5123  -22.8765  -47.0393 H         1 UNK         0.0600 
    198 H198        1.9539  -22.8551  -45.3736 H         1 UNK         0.0600 
    199 H199        1.5435  -21.5288  -46.4570 H         1 UNK         0.0600 
    200 H200       -0.6166  -21.2457  -47.8830 H         1 UNK         0.3000 
    201 H201       -0.0580  -21.7117  -50.6312 H         1 UNK         0.0600 
    202 H202       -0.4048  -19.4646  -49.6663 H         1 UNK         0.0600 
    203 H203       -2.0816  -19.8501  -49.2939 H         1 UNK         0.0600 
    204 H204       -1.5434  -19.7451  -50.9705 H         1 UNK         0.0600 
    205 H205       -2.9591  -22.4503  -48.6481 H         1 UNK         0.3000 
    206 H206       -4.5921  -23.3637  -50.8143 H         1 UNK         0.0600 
    207 H207       -5.5603  -22.7410  -48.6342 H         1 UNK         0.0600 
    208 H208       -5.9448  -24.4160  -48.9951 H         1 UNK         0.0600 
    209 H209       -4.6834  -24.0385  -47.8282 H         1 UNK         0.0600 
    210 H210       -2.3527  -25.0748  -48.5776 H         1 UNK         0.3000 
    211 H211       -2.7237  -27.6850  -49.6405 H         1 UNK         0.0600 
    212 H212       -0.3273  -26.4712  -48.1650 H         1 UNK         0.0600 
    213 H213       -0.6088  -28.1902  -48.4128 H         1 UNK         0.0600 
    214 H214       -1.7168  -27.2557  -47.4190 H         1 UNK         0.0600 
    215 H215       -0.4126  -25.0936  -50.5044 H         1 UNK         0.3000 
    216 H216        0.9565  -26.5598  -52.5641 H         1 UNK         0.0600 
    217 H217        1.9034  -24.3184  -53.0995 H         1 UNK         0.0600 
    218 H218        1.9428  -24.6065  -51.3673 H         1 UNK         0.0600 
    219 H219        0.7145  -23.5463  -52.0582 H         1 UNK         0.0600 
    220 H220       -2.1467  -25.1408  -52.4947 H         1 UNK         0.3000 
    221 H221       -3.7802  -24.7269  -53.9047 H         1 UNK         0.0600 
    222 H222       -3.9641  -25.9831  -56.0211 H         1 UNK         0.0600 
    223 H223       -3.3706  -27.0353  -54.7458 H         1 UNK         0.0600 
    224 H224       -2.2609  -26.4122  -55.9657 H         1 UNK         0.0600 
    225 H225       -2.3429  -22.6276  -53.5106 H         1 UNK         0.3000 
    226 H226       -1.1211  -21.2875  -55.6427 H         1 UNK         0.0600 
    227 H227       -1.5592  -19.2408  -54.2455 H         1 UNK         0.0600 
    228 H228       -2.6599  -20.1728  -53.2354 H         1 UNK         0.0600 
    229 H229       -0.9436  -20.5759  -53.2846 H         1 UNK         0.0600 
    230 H230       -4.5428  -21.5912  -54.9154 H         1 UNK         0.3000 
    231 H231       -6.4193  -21.2029  -55.9919 H         1 UNK         0.0600 
    232 H232       -5.2405  -22.4608  -57.8117 H         1 UNK         0.0600 
    233 H233       -4.7429  -20.9338  -58.5382 H         1 UNK         0.0600 
    234 H234       -6.4471  -21.3527  -58.4421 H         1 UNK         0.0600 
    235 H235       -4.8316  -18.8066  -55.0344 H         1 UNK         0.3000 
    236 H236       -6.3043  -16.5990  -56.4071 H         1 UNK         0.0600 
    237 H237       -3.9288  -16.1289  -56.0004 H         1 UNK         0.0600 
    238 H238       -4.8840  -15.1591  -54.8934 H         1 UNK         0.0600 
    239 H239       -4.0488  -16.6016  -54.3133 H         1 UNK         0.0600 
    240 H240       -5.5137  -16.6541  -53.0151 H         1 UNK         0.3000 
    241 H241       -6.5459  -16.9415  -51.1170 H         1 UNK         0.0600 
    242 H242       -9.3871  -14.5263  -52.0500 H         1 UNK         0.3800 
    243 H243       -7.9214  -14.8356  -52.9452 H         1 UNK         0.3800 
    244 H244       -8.3944  -18.9647  -52.4541 H         1 UNK         0.0800 
    245 H245       -7.9125  -18.9366  -50.7811 H         1 UNK         0.0800 
    246 H246       -4.5307  -20.7403  -50.7101 H         1 UNK         0.0800 
    247 H247       -6.0797  -20.5930  -49.9188 H         1 UNK         0.0800 
@<TRIPOS>BOND
     1    1    2 1    
     2    1  127 1    
     3    1  128 1    
     4    1  129 1    
     5    2    3 2    
     6    2    4 am   BACKBONE|DICT|INTERRES
     7    4    5 1    
     8    4  130 1    
     9    5    6 1    
    10    5   65 1    
    11    5  131 1    
    12    6    7 1    
    13    6  132 1    
    14    6  133 1    
    15    7    8 1    
    16    8    9 1    
    17    8  134 1    
    18    8  135 1    
    19    9   10 ar   
    20    9   14 ar   
    21   10   11 ar   
    22   10  136 1    
    23   11   12 ar   
    24   11  126 1    
    25   12   13 ar   
    26   12  137 1    
    27   13   14 ar   
    28   13   15 1    
    29   14  138 1    
    30   15   16 1    
    31   15  139 1    
    32   15  140 1    
    33   16   17 1    
    34   17   18 1    
    35   17  141 1    
    36   17  142 1    
    37   18   19 1    
    38   18   67 1    
    39   18  143 1    
    40   19   20 am   BACKBONE|DICT|INTERRES
    41   19  144 1    
    42   20   21 2    
    43   20   22 1    
    44   22   23 1    
    45   22   24 1    
    46   22  145 1    
    47   23  146 1    
    48   23  147 1    
    49   23  148 1    
    50   24   25 am   BACKBONE|DICT|INTERRES
    51   24  149 1    
    52   25   26 2    
    53   25   27 1    
    54   27   28 1    
    55   27   29 1    
    56   27  150 1    
    57   28  151 1    
    58   28  152 1    
    59   28  153 1    
    60   29   30 am   BACKBONE|DICT|INTERRES
    61   29  154 1    
    62   30   31 2    
    63   30   32 1    
    64   32   33 1    
    65   32   34 1    
    66   32  155 1    
    67   33  156 1    
    68   33  157 1    
    69   33  158 1    
    70   34   35 am   BACKBONE|DICT|INTERRES
    71   34  159 1    
    72   35   36 2    
    73   35   37 1    
    74   37   38 1    
    75   37   39 1    
    76   37  160 1    
    77   38  161 1    
    78   38  162 1    
    79   38  163 1    
    80   39   40 am   BACKBONE|DICT|INTERRES
    81   39  164 1    
    82   40   41 2    
    83   40   42 1    
    84   42   43 1    
    85   42   44 1    
    86   42  165 1    
    87   43  166 1    
    88   43  167 1    
    89   43  168 1    
    90   44   45 am   BACKBONE|DICT|INTERRES
    91   44  169 1    
    92   45   46 2    
    93   45   47 1    
    94   47   48 1    
    95   47   49 1    
    96   47  170 1    
    97   48  171 1    
    98   48  172 1    
    99   48  173 1    
   100   49   50 am   BACKBONE|DICT|INTERRES
   101   49  174 1    
   102   50   51 2    
   103   50   52 1    
   104   52   53 1    
   105   52   54 1    
   106   52  175 1    
   107   53  176 1    
   108   53  177 1    
   109   53  178 1    
   110   54   55 am   BACKBONE|DICT|INTERRES
   111   54  179 1    
   112   55   56 2    
   113   55   57 1    
   114   57   58 1    
   115   57   59 1    
   116   57  180 1    
   117   58  181 1    
   118   58  182 1    
   119   58  183 1    
   120   59   60 am   BACKBONE|DICT|INTERRES
   121   59  184 1    
   122   60   61 2    
   123   60   62 1    
   124   62   63 1    
   125   62   64 1    
   126   62  185 1    
   127   63  186 1    
   128   63  187 1    
   129   63  188 1    
   130   64   65 am   BACKBONE|DICT|INTERRES
   131   64  189 1    
   132   65   66 2    
   133   67   68 2    
   134   67   69 am   BACKBONE|DICT|INTERRES
   135   69   70 1    
   136   69  190 1    
   137   70   71 1    
   138   70   72 1    
   139   70  191 1    
   140   71  192 1    
   141   71  193 1    
   142   71  194 1    
   143   72   73 2    
   144   72   74 am   BACKBONE|DICT|INTERRES
   145   74   75 1    
   146   74  195 1    
   147   75   76 1    
   148   75   77 1    
   149   75  196 1    
   150   76  197 1    
   151   76  198 1    
   152   76  199 1    
   153   77   78 2    
   154   77   79 am   BACKBONE|DICT|INTERRES
   155   79   80 1    
   156   79  200 1    
   157   80   81 1    
   158   80   82 1    
   159   80  201 1    
   160   81  202 1    
   161   81  203 1    
   162   81  204 1    
   163   82   83 2    
   164   82   84 am   BACKBONE|DICT|INTERRES
   165   84   85 1    
   166   84  205 1    
   167   85   86 1    
   168   85   87 1    
   169   85  206 1    
   170   86  207 1    
   171   86  208 1    
   172   86  209 1    
   173   87   88 2    
   174   87   89 am   BACKBONE|DICT|INTERRES
   175   89   90 1    
   176   89  210 1    
   177   90   91 1    
   178   90   92 1    
   179   90  211 1    
   180   91  212 1    
   181   91  213 1    
   182   91  214 1    
   183   92   93 2    
   184   92   94 am   BACKBONE|DICT|INTERRES
   185   94   95 1    
   186   94  215 1    
   187   95   96 1    
   188   95   97 1    
   189   95  216 1    
   190   96  217 1    
   191   96  218 1    
   192   96  219 1    
   193   97   98 2    
   194   97   99 am   BACKBONE|DICT|INTERRES
   195   99  100 1    
   196   99  220 1    
   197  100  101 1    
   198  100  102 1    
   199  100  221 1    
   200  101  222 1    
   201  101  223 1    
   202  101  224 1    
   203  102  103 2    
   204  102  104 am   BACKBONE|DICT|INTERRES
   205  104  105 1    
   206  104  225 1    
   207  105  106 1    
   208  105  107 1    
   209  105  226 1    
   210  106  227 1    
   211  106  228 1    
   212  106  229 1    
   213  107  108 2    
   214  107  109 am   BACKBONE|DICT|INTERRES
   215  109  110 1    
   216  109  230 1    
   217  110  111 1    
   218  110  112 1    
   219  110  231 1    
   220  111  232 1    
   221  111  233 1    
   222  111  234 1    
   223  112  113 2    
   224  112  114 am   BACKBONE|DICT|INTERRES
   225  114  115 1    
   226  114  235 1    
   227  115  116 1    
   228  115  117 1    
   229  115  236 1    
   230  116  237 1    
   231  116  238 1    
   232  116  239 1    
   233  117  118 2    
   234  117  119 am   BACKBONE|DICT|INTERRES
   235  119  120 1    
   236  119  240 1    
   237  120  121 1    
   238  120  124 1    
   239  120  241 1    
   240  121  122 am   BACKBONE|DICT|INTERRES
   241  121  123 2    
   242  122  242 1    
   243  122  243 1    
   244  124  125 1    
   245  124  244 1    
   246  124  245 1    
   247  125  126 1    
   248  126  246 1    
   249  126  247 1    
@<TRIPOS>SUBSTRUCTURE
     1 UNK         1 GROUP             0       ****    0 ROOT    
