@<TRIPOS>MOLECULE
3R540
247   249    1
SMALL
USER_CHARGES


@<TRIPOS>ATOM
      1 CA          6.3768  -18.3127  -49.0235 C.3       0 UNK        -0.1800 
      2 C           5.7901  -17.4949  -47.8816 C.2       0 UNK         0.5000 
      3 O           6.0441  -17.8006  -46.7166 O.2       0 UNK        -0.5000 
      4 N           4.9995  -16.4669  -48.2121 N.am      1 UNK        -0.5000 
      5 CA          4.3690  -15.5479  -47.2611 C.3       1 UNK         0.1400 
      6 C6          3.2855  -14.6722  -47.9324 C.3       23 UNK        -0.0398 
      7 S7          1.9156  -15.6532  -48.6287 S.3       23 UNK        -0.2404 
      8 C8          1.3377  -14.5076  -49.9198 C.3       23 UNK        -0.0205 
      9 C9         -0.0090  -14.9257  -50.4889 C.ar      23 UNK        -0.0193 
     10 C10        -0.1344  -15.3197  -51.8252 C.ar      23 UNK        -0.1150 
     11 C11        -1.3816  -15.6656  -52.3596 C.ar      23 UNK        -0.0193 
     12 C12        -2.5087  -15.6138  -51.5272 C.ar      23 UNK        -0.1150 
     13 C13        -2.3914  -15.2455  -50.1848 C.ar      23 UNK        -0.0193 
     14 C14        -1.1426  -14.8886  -49.6757 C.ar      23 UNK        -0.1150 
     15 C15        -3.6162  -15.2349  -49.2860 C.3       23 UNK        -0.0205 
     16 S16        -4.0524  -16.9120  -48.7297 S.3       23 UNK        -0.2404 
     17 C17        -2.6887  -17.3143  -47.5784 C.3       23 UNK        -0.0398 
     18 CA         -1.8325  -18.5353  -48.0056 C.3       11 UNK         0.1400 
     19 N          -0.6583  -18.7086  -47.1442 N.am      11 UNK        -0.5000 
     20 C           0.2827  -19.6565  -47.2833 C.2       10 UNK         0.5000 
     21 O           0.3165  -20.4632  -48.2113 O.2       10 UNK        -0.5000 
     22 CA          1.3278  -19.7713  -46.1586 C.3       10 UNK         0.1400 
     23 CB          2.4229  -18.7087  -46.3187 C.3       10 UNK        -0.1800 
     24 N           0.7296  -19.6755  -44.8258 N.am      10 UNK        -0.5000 
     25 C          -0.1753  -20.5347  -44.3327 C.2       9 UNK         0.5000 
     26 O          -0.5596  -21.5411  -44.9267 O.2       9 UNK        -0.5000 
     27 CA         -0.8048  -20.1761  -42.9754 C.3       9 UNK         0.1400 
     28 CB          0.1110  -20.5766  -41.8089 C.3       9 UNK        -0.1800 
     29 N          -1.1310  -18.7526  -42.8916 N.am      9 UNK        -0.5000 
     30 C          -2.0864  -18.1578  -43.6205 C.2       8 UNK         0.5000 
     31 O          -2.8393  -18.7639  -44.3835 O.2       8 UNK        -0.5000 
     32 CA         -2.1790  -16.6246  -43.5182 C.3       8 UNK         0.1400 
     33 CB         -3.0494  -16.2080  -42.3240 C.3       8 UNK        -0.1800 
     34 N          -0.8562  -16.0041  -43.4134 N.am      8 UNK        -0.5000 
     35 C           0.0170  -15.9415  -44.4313 C.2       7 UNK         0.5000 
     36 O          -0.2388  -16.3478  -45.5629 O.2       7 UNK        -0.5000 
     37 CA          1.4235  -15.3835  -44.1380 C.3       7 UNK         0.1400 
     38 CB          1.4829  -13.8810  -44.4427 C.3       7 UNK        -0.1800 
     39 N           1.8601  -15.6344  -42.7641 N.am      7 UNK        -0.5000 
     40 C           2.0771  -16.8600  -42.2603 C.2       6 UNK         0.5000 
     41 O           2.0200  -17.8818  -42.9445 O.2       6 UNK        -0.5000 
     42 CA          2.3189  -16.9945  -40.7414 C.3       6 UNK         0.1400 
     43 CB          3.7793  -17.3438  -40.4327 C.3       6 UNK        -0.1800 
     44 N           1.9240  -15.8133  -39.9713 N.am      6 UNK        -0.5000 
     45 C           0.6582  -15.3908  -39.8383 C.2       5 UNK         0.5000 
     46 O          -0.3054  -15.9876  -40.3196 O.2       5 UNK        -0.5000 
     47 CA          0.4245  -14.0595  -39.0978 C.3       5 UNK         0.1400 
     48 CB          0.0342  -14.3220  -37.6357 C.3       5 UNK        -0.1800 
     49 N           1.5635  -13.1375  -39.1291 N.am      5 UNK        -0.5000 
     50 C           2.1389  -12.6357  -40.2311 C.2       4 UNK         0.5000 
     51 O           1.7869  -12.9258  -41.3743 O.2       4 UNK        -0.5000 
     52 CA          3.3190  -11.6625  -40.0354 C.3       4 UNK         0.1400 
     53 CB          3.4377  -11.1000  -38.6006 C.3       4 UNK        -0.1800 
     54 N           4.5966  -12.2463  -40.4561 N.am      4 UNK        -0.5000 
     55 C           5.1570  -13.3815  -40.0124 C.2       3 UNK         0.5000 
     56 O           4.6171  -14.1534  -39.2159 O.2       3 UNK        -0.5000 
     57 CA          6.5754  -13.6716  -40.5483 C.3       3 UNK         0.1400 
     58 CB          7.1532  -15.0203  -40.0695 C.3       3 UNK        -0.1800 
     59 N           6.6942  -13.5473  -42.0070 N.am      3 UNK        -0.5000 
     60 C           6.0251  -14.2495  -42.9326 C.2       2 UNK         0.5000 
     61 O           5.1262  -15.0547  -42.6793 O.2       2 UNK        -0.5000 
     62 CA          6.4604  -14.0382  -44.3914 C.3       2 UNK         0.1400 
     63 CB          7.8959  -14.5601  -44.6153 C.3       2 UNK        -0.1800 
     64 N           5.5228  -14.7520  -45.2520 N.am      2 UNK        -0.5000 
     65 C           5.4326  -14.6625  -46.5815 C.2       1 UNK         0.5000 
     66 O           6.1359  -13.9210  -47.2717 O.2       1 UNK        -0.5000 
     67 C          -2.6707  -19.8289  -48.0675 C.2       11 UNK         0.5000 
     68 O          -2.9098  -20.3361  -49.1613 O.2       11 UNK        -0.5000 
     69 N          -3.0548  -20.3635  -46.8981 N.am      12 UNK        -0.5000 
     70 CA         -3.8370  -21.5943  -46.7652 C.3       12 UNK         0.1400 
     71 CB         -4.1921  -21.8182  -45.2879 C.3       12 UNK        -0.1800 
     72 C          -3.1362  -22.8331  -47.3548 C.2       12 UNK         0.5000 
     73 O          -3.7767  -23.6130  -48.0630 O.2       12 UNK        -0.5000 
     74 N          -1.8318  -22.9726  -47.0804 N.am      13 UNK        -0.5000 
     75 CA         -0.9813  -24.0449  -47.5968 C.3       13 UNK         0.1400 
     76 CB          0.3897  -23.9935  -46.9056 C.3       13 UNK        -0.1800 
     77 C          -0.8224  -23.9983  -49.1266 C.2       13 UNK         0.5000 
     78 O          -0.8986  -25.0436  -49.7731 O.2       13 UNK        -0.5000 
     79 N          -0.6286  -22.7921  -49.6778 N.am      14 UNK        -0.5000 
     80 CA         -0.5422  -22.5488  -51.1172 C.3       14 UNK         0.1400 
     81 CB          0.0028  -21.1348  -51.3654 C.3       14 UNK        -0.1800 
     82 C          -1.8921  -22.7426  -51.8299 C.2       14 UNK         0.5000 
     83 O          -1.9166  -23.2505  -52.9499 O.2       14 UNK        -0.5000 
     84 N          -2.9849  -22.3330  -51.1724 N.am      15 UNK        -0.5000 
     85 CA         -4.3539  -22.4558  -51.6644 C.3       15 UNK         0.1400 
     86 CB         -5.2883  -21.6008  -50.7950 C.3       15 UNK        -0.1800 
     87 C          -4.8553  -23.9021  -51.7247 C.2       15 UNK         0.5000 
     88 O          -5.5836  -24.2371  -52.6592 O.2       15 UNK        -0.5000 
     89 N          -4.4829  -24.7140  -50.7237 N.am      16 UNK        -0.5000 
     90 CA         -4.8738  -26.1163  -50.5443 C.3       16 UNK         0.1400 
     91 CB         -4.2370  -26.9976  -51.6396 C.3       16 UNK        -0.1800 
     92 C          -6.4070  -26.2673  -50.4602 C.2       16 UNK         0.5000 
     93 O          -7.0056  -27.0067  -51.2418 O.2       16 UNK        -0.5000 
     94 N          -7.0173  -25.4919  -49.5499 N.am      17 UNK        -0.5000 
     95 CA         -8.4679  -25.3234  -49.3725 C.3       17 UNK         0.1400 
     96 CB         -9.1294  -26.6360  -48.9018 C.3       17 UNK        -0.1800 
     97 C          -9.1493  -24.7098  -50.6177 C.2       17 UNK         0.5000 
     98 O         -10.2690  -25.0851  -50.9673 O.2       17 UNK        -0.5000 
     99 N          -8.4314  -23.7789  -51.2637 N.am      18 UNK        -0.5000 
    100 CA        -8.7742  -23.0330  -52.4815 C.3       18 UNK         0.1400 
    101 CB       -10.0689  -22.2158  -52.2949 C.3       18 UNK        -0.1800 
    102 C         -8.7922  -23.8739  -53.7752 C.2       18 UNK         0.5000 
    103 O         -9.1605  -23.3435  -54.8244 O.2       18 UNK        -0.5000 
    104 N         -8.3536  -25.1396  -53.7147 N.am      19 UNK        -0.5000 
    105 CA        -8.2548  -26.0403  -54.8658 C.3       19 UNK         0.1400 
    106 CB        -7.9969  -27.4704  -54.3701 C.3       19 UNK        -0.1800 
    107 C         -7.1687  -25.6212  -55.8760 C.2       19 UNK         0.5000 
    108 O         -7.3167  -25.8940  -57.0678 O.2       19 UNK        -0.5000 
    109 N         -6.1118  -24.9604  -55.3871 N.am      20 UNK        -0.5000 
    110 CA        -4.9839  -24.4601  -56.1737 C.3       20 UNK         0.1400 
    111 CB        -3.6851  -25.0033  -55.5540 C.3       20 UNK        -0.1800 
    112 C         -4.9724  -22.9197  -56.2527 C.2       20 UNK         0.5000 
    113 O         -3.9540  -22.3486  -56.6495 O.2       20 UNK        -0.5000 
    114 N         -6.0889  -22.2743  -55.8727 N.am      21 UNK        -0.5000 
    115 CA        -6.3064  -20.8265  -55.7481 C.3       21 UNK         0.1400 
    116 CB        -6.2118  -20.1147  -57.1144 C.3       21 UNK        -0.1800 
    117 C         -5.3858  -20.2136  -54.6763 C.2       21 UNK         0.5000 
    118 O         -5.8111  -20.0712  -53.5316 O.2       21 UNK        -0.5000 
    119 N         -4.1367  -19.9331  -55.0544 N.am      22 UNK        -0.5000 
    120 CA        -2.9861  -19.6966  -54.1730 C.3       22 UNK         0.1400 
    121 C         -1.6339  -19.9879  -54.8874 C.2       22 UNK         0.5000 
    122 N         -1.6021  -20.8353  -55.9114 N.am      22 UNK        -0.7600 
    123 O         -0.5940  -19.4543  -54.5143 O.2       22 UNK        -0.5000 
    124 C124       -3.0431  -18.3670  -53.3744 C.3       23 UNK        -0.0398 
    125 S125       -3.0157  -16.8509  -54.3928 S.3       23 UNK        -0.2404 
    126 C126       -1.4540  -16.0731  -53.8362 C.3       23 UNK        -0.0205 
    127 H127        7.4657  -18.2855  -48.9836 H         1 UNK         0.0600 
    128 H128        6.0622  -17.9348  -49.9967 H         1 UNK         0.0600 
    129 H129        6.0571  -19.3517  -48.9429 H         1 UNK         0.0600 
    130 H130        4.8341  -16.2624  -49.1868 H         1 UNK         0.3000 
    131 H131        3.8839  -16.1509  -46.4917 H         1 UNK         0.0600 
    132 H132        2.8592  -13.9707  -47.2141 H         1 UNK         0.0800 
    133 H133        3.7289  -14.0652  -48.7243 H         1 UNK         0.0800 
    134 H134        2.0904  -14.4460  -50.7075 H         1 UNK         0.0800 
    135 H135        1.2434  -13.5049  -49.4999 H         1 UNK         0.0800 
    136 H136        0.7421  -15.3476  -52.4576 H         1 UNK         0.1150 
    137 H137       -3.4868  -15.8693  -51.9065 H         1 UNK         0.1150 
    138 H138       -1.0454  -14.5886  -48.6414 H         1 UNK         0.1150 
    139 H139       -3.4599  -14.5895  -48.4201 H         1 UNK         0.0800 
    140 H140       -4.4618  -14.8130  -49.8310 H         1 UNK         0.0800 
    141 H141       -3.1262  -17.4745  -46.5941 H         1 UNK         0.0800 
    142 H142       -2.0476  -16.4404  -47.4714 H         1 UNK         0.0800 
    143 H143       -1.4538  -18.3404  -49.0114 H         1 UNK         0.0600 
    144 H144       -0.5583  -18.0369  -46.3886 H         1 UNK         0.3000 
    145 H145        1.7968  -20.7540  -46.2381 H         1 UNK         0.0600 
    146 H146        3.1828  -18.7968  -45.5420 H         1 UNK         0.0600 
    147 H147        2.9254  -18.8098  -47.2813 H         1 UNK         0.0600 
    148 H148        2.0095  -17.7028  -46.2736 H         1 UNK         0.0600 
    149 H149        1.0409  -18.9073  -44.2382 H         1 UNK         0.3000 
    150 H150       -1.7347  -20.7410  -42.8804 H         1 UNK         0.0600 
    151 H151        0.3113  -21.6486  -41.8261 H         1 UNK         0.0600 
    152 H152       -0.3507  -20.3481  -40.8483 H         1 UNK         0.0600 
    153 H153        1.0729  -20.0664  -41.8486 H         1 UNK         0.0600 
    154 H154       -0.5403  -18.1796  -42.3074 H         1 UNK         0.3000 
    155 H155       -2.6588  -16.2554  -44.4271 H         1 UNK         0.0600 
    156 H156       -2.6562  -16.5900  -41.3817 H         1 UNK         0.0600 
    157 H157       -4.0643  -16.5926  -42.4324 H         1 UNK         0.0600 
    158 H158       -3.1192  -15.1231  -42.2443 H         1 UNK         0.0600 
    159 H159       -0.5701  -15.6924  -42.4933 H         1 UNK         0.3000 
    160 H160        2.1251  -15.8866  -44.8041 H         1 UNK         0.0600 
    161 H161        2.4868  -13.4850  -44.2869 H         1 UNK         0.0600 
    162 H162        0.7954  -13.3165  -43.8122 H         1 UNK         0.0600 
    163 H163        1.2072  -13.6826  -45.4789 H         1 UNK         0.0600 
    164 H164        1.9281  -14.8261  -42.1543 H         1 UNK         0.3000 
    165 H165        1.7035  -17.8303  -40.4020 H         1 UNK         0.0600 
    166 H166        3.9162  -17.5716  -39.3756 H         1 UNK         0.0600 
    167 H167        4.1063  -18.2153  -41.0012 H         1 UNK         0.0600 
    168 H168        4.4415  -16.5190  -40.6836 H         1 UNK         0.0600 
    169 H169        2.6724  -15.2507  -39.5829 H         1 UNK         0.3000 
    170 H170       -0.4124  -13.5609  -39.5908 H         1 UNK         0.0600 
    171 H171       -0.8298  -14.9852  -37.5744 H         1 UNK         0.0600 
    172 H172        0.8481  -14.7906  -37.0810 H         1 UNK         0.0600 
    173 H173       -0.2324  -13.3963  -37.1253 H         1 UNK         0.0600 
    174 H174        1.9463  -12.8702  -38.2340 H         1 UNK         0.3000 
    175 H175        3.1277  -10.8203  -40.7021 H         1 UNK         0.0600 
    176 H176        3.6853  -11.8716  -37.8708 H         1 UNK         0.0600 
    177 H177        4.2165  -10.3391  -38.5472 H         1 UNK         0.0600 
    178 H178        2.5077  -10.6255  -38.2845 H         1 UNK         0.0600 
    179 H179        5.1059  -11.7163  -41.1489 H         1 UNK         0.3000 
    180 H180        7.2089  -12.8903  -40.1258 H         1 UNK         0.0600 
    181 H181        6.6119  -15.8695  -40.4835 H         1 UNK         0.0600 
    182 H182        7.1134  -15.1030  -38.9827 H         1 UNK         0.0600 
    183 H183        8.1983  -15.1221  -40.3615 H         1 UNK         0.0600 
    184 H184        7.4011  -12.8986  -42.3247 H         1 UNK         0.3000 
    185 H185        6.4104  -12.9713  -44.6168 H         1 UNK         0.0600 
    186 H186        8.6103  -14.0562  -43.9637 H         1 UNK         0.0600 
    187 H187        7.9660  -15.6299  -44.4141 H         1 UNK         0.0600 
    188 H188        8.2309  -14.3923  -45.6386 H         1 UNK         0.0600 
    189 H189        4.9093  -15.3691  -44.7321 H         1 UNK         0.3000 
    190 H190       -2.8209  -19.8808  -46.0357 H         1 UNK         0.3000 
    191 H191       -4.7676  -21.4502  -47.3172 H         1 UNK         0.0600 
    192 H192       -3.3000  -21.9334  -44.6717 H         1 UNK         0.0600 
    193 H193       -4.7973  -22.7169  -45.1628 H         1 UNK         0.0600 
    194 H194       -4.7657  -20.9810  -44.8897 H         1 UNK         0.0600 
    195 H195       -1.3893  -22.3061  -46.4522 H         1 UNK         0.3000 
    196 H196       -1.4541  -24.9955  -47.3415 H         1 UNK         0.0600 
    197 H197        1.0402  -24.7913  -47.2658 H         1 UNK         0.0600 
    198 H198        0.2913  -24.1156  -45.8269 H         1 UNK         0.0600 
    199 H199        0.8971  -23.0458  -47.0893 H         1 UNK         0.0600 
    200 H200       -0.5319  -21.9796  -49.0742 H         1 UNK         0.3000 
    201 H201        0.1659  -23.2641  -51.5407 H         1 UNK         0.0600 
    202 H202        0.9738  -20.9966  -50.8898 H         1 UNK         0.0600 
    203 H203       -0.6707  -20.3676  -50.9807 H         1 UNK         0.0600 
    204 H204        0.1377  -20.9537  -52.4313 H         1 UNK         0.0600 
    205 H205       -2.8678  -21.8414  -50.2894 H         1 UNK         0.3000 
    206 H206       -4.3830  -22.0801  -52.6852 H         1 UNK         0.0600 
    207 H207       -4.9995  -20.5501  -50.8291 H         1 UNK         0.0600 
    208 H208       -6.3175  -21.6544  -51.1457 H         1 UNK         0.0600 
    209 H209       -5.2767  -21.9188  -49.7526 H         1 UNK         0.0600 
    210 H210       -3.9378  -24.3131  -49.9665 H         1 UNK         0.3000 
    211 H211       -4.4707  -26.4350  -49.5820 H         1 UNK         0.0600 
    212 H212       -4.4442  -28.0529  -51.4597 H         1 UNK         0.0600 
    213 H213       -3.1537  -26.8764  -51.6587 H         1 UNK         0.0600 
    214 H214       -4.6171  -26.7551  -52.6328 H         1 UNK         0.0600 
    215 H215       -6.4335  -24.9144  -48.9598 H         1 UNK         0.3000 
    216 H216       -8.5931  -24.5923  -48.5725 H         1 UNK         0.0600 
    217 H217      -10.1716  -26.4701  -48.6268 H         1 UNK         0.0600 
    218 H218       -8.6241  -27.0397  -48.0245 H         1 UNK         0.0600 
    219 H219       -9.1168  -27.4011  -49.6784 H         1 UNK         0.0600 
    220 H220       -7.5068  -23.5969  -50.9040 H         1 UNK         0.3000 
    221 H221       -7.9651  -22.3167  -52.6262 H         1 UNK         0.0600 
    222 H222      -10.9492  -22.8557  -52.2326 H         1 UNK         0.0600 
    223 H223      -10.0268  -21.6109  -51.3892 H         1 UNK         0.0600 
    224 H224      -10.2241  -21.5330  -53.1310 H         1 UNK         0.0600 
    225 H225       -8.0205  -25.4981  -52.8290 H         1 UNK         0.3000 
    226 H226       -9.2151  -26.0280  -55.3855 H         1 UNK         0.0600 
    227 H227       -8.7606  -27.7882  -53.6599 H         1 UNK         0.0600 
    228 H228       -8.0072  -28.1785  -55.1996 H         1 UNK         0.0600 
    229 H229       -7.0263  -27.5554  -53.8798 H         1 UNK         0.0600 
    230 H230       -6.0657  -24.7765  -54.3860 H         1 UNK         0.3000 
    231 H231       -5.0418  -24.8232  -57.2014 H         1 UNK         0.0600 
    232 H232       -3.6854  -26.0930  -55.5331 H         1 UNK         0.0600 
    233 H233       -3.5534  -24.6517  -54.5309 H         1 UNK         0.0600 
    234 H234       -2.8098  -24.6910  -56.1246 H         1 UNK         0.0600 
    235 H235       -6.8657  -22.8490  -55.5756 H         1 UNK         0.3000 
    236 H236       -7.3294  -20.7027  -55.3887 H         1 UNK         0.0600 
    237 H237       -5.2381  -20.2362  -57.5887 H         1 UNK         0.0600 
    238 H238       -6.9629  -20.4995  -57.8042 H         1 UNK         0.0600 
    239 H239       -6.3907  -19.0442  -57.0063 H         1 UNK         0.0600 
    240 H240       -3.8920  -20.1016  -56.0206 H         1 UNK         0.3000 
    241 H241       -3.0231  -20.4798  -53.4192 H         1 UNK         0.0600 
    242 H242       -2.4187  -21.3758  -56.1872 H         1 UNK         0.3800 
    243 H243       -0.7201  -21.0151  -56.3636 H         1 UNK         0.3800 
    244 H244       -2.2245  -18.3430  -52.6535 H         1 UNK         0.0800 
    245 H245       -3.9486  -18.3402  -52.7678 H         1 UNK         0.0800 
    246 H246       -0.6334  -16.7562  -54.0601 H         1 UNK         0.0800 
    247 H247       -1.2850  -15.1829  -54.4433 H         1 UNK         0.0800 
@<TRIPOS>BOND
     1    1    2 1    
     2    1  127 1    
     3    1  128 1    
     4    1  129 1    
     5    2    3 2    
     6    2    4 am   BACKBONE|DICT|INTERRES
     7    4    5 1    
     8    4  130 1    
     9    5    6 1    
    10    5   65 1    
    11    5  131 1    
    12    6    7 1    
    13    6  132 1    
    14    6  133 1    
    15    7    8 1    
    16    8    9 1    
    17    8  134 1    
    18    8  135 1    
    19    9   10 ar   
    20    9   14 ar   
    21   10   11 ar   
    22   10  136 1    
    23   11   12 ar   
    24   11  126 1    
    25   12   13 ar   
    26   12  137 1    
    27   13   14 ar   
    28   13   15 1    
    29   14  138 1    
    30   15   16 1    
    31   15  139 1    
    32   15  140 1    
    33   16   17 1    
    34   17   18 1    
    35   17  141 1    
    36   17  142 1    
    37   18   19 1    
    38   18   67 1    
    39   18  143 1    
    40   19   20 am   BACKBONE|DICT|INTERRES
    41   19  144 1    
    42   20   21 2    
    43   20   22 1    
    44   22   23 1    
    45   22   24 1    
    46   22  145 1    
    47   23  146 1    
    48   23  147 1    
    49   23  148 1    
    50   24   25 am   BACKBONE|DICT|INTERRES
    51   24  149 1    
    52   25   26 2    
    53   25   27 1    
    54   27   28 1    
    55   27   29 1    
    56   27  150 1    
    57   28  151 1    
    58   28  152 1    
    59   28  153 1    
    60   29   30 am   BACKBONE|DICT|INTERRES
    61   29  154 1    
    62   30   31 2    
    63   30   32 1    
    64   32   33 1    
    65   32   34 1    
    66   32  155 1    
    67   33  156 1    
    68   33  157 1    
    69   33  158 1    
    70   34   35 am   BACKBONE|DICT|INTERRES
    71   34  159 1    
    72   35   36 2    
    73   35   37 1    
    74   37   38 1    
    75   37   39 1    
    76   37  160 1    
    77   38  161 1    
    78   38  162 1    
    79   38  163 1    
    80   39   40 am   BACKBONE|DICT|INTERRES
    81   39  164 1    
    82   40   41 2    
    83   40   42 1    
    84   42   43 1    
    85   42   44 1    
    86   42  165 1    
    87   43  166 1    
    88   43  167 1    
    89   43  168 1    
    90   44   45 am   BACKBONE|DICT|INTERRES
    91   44  169 1    
    92   45   46 2    
    93   45   47 1    
    94   47   48 1    
    95   47   49 1    
    96   47  170 1    
    97   48  171 1    
    98   48  172 1    
    99   48  173 1    
   100   49   50 am   BACKBONE|DICT|INTERRES
   101   49  174 1    
   102   50   51 2    
   103   50   52 1    
   104   52   53 1    
   105   52   54 1    
   106   52  175 1    
   107   53  176 1    
   108   53  177 1    
   109   53  178 1    
   110   54   55 am   BACKBONE|DICT|INTERRES
   111   54  179 1    
   112   55   56 2    
   113   55   57 1    
   114   57   58 1    
   115   57   59 1    
   116   57  180 1    
   117   58  181 1    
   118   58  182 1    
   119   58  183 1    
   120   59   60 am   BACKBONE|DICT|INTERRES
   121   59  184 1    
   122   60   61 2    
   123   60   62 1    
   124   62   63 1    
   125   62   64 1    
   126   62  185 1    
   127   63  186 1    
   128   63  187 1    
   129   63  188 1    
   130   64   65 am   BACKBONE|DICT|INTERRES
   131   64  189 1    
   132   65   66 2    
   133   67   68 2    
   134   67   69 am   BACKBONE|DICT|INTERRES
   135   69   70 1    
   136   69  190 1    
   137   70   71 1    
   138   70   72 1    
   139   70  191 1    
   140   71  192 1    
   141   71  193 1    
   142   71  194 1    
   143   72   73 2    
   144   72   74 am   BACKBONE|DICT|INTERRES
   145   74   75 1    
   146   74  195 1    
   147   75   76 1    
   148   75   77 1    
   149   75  196 1    
   150   76  197 1    
   151   76  198 1    
   152   76  199 1    
   153   77   78 2    
   154   77   79 am   BACKBONE|DICT|INTERRES
   155   79   80 1    
   156   79  200 1    
   157   80   81 1    
   158   80   82 1    
   159   80  201 1    
   160   81  202 1    
   161   81  203 1    
   162   81  204 1    
   163   82   83 2    
   164   82   84 am   BACKBONE|DICT|INTERRES
   165   84   85 1    
   166   84  205 1    
   167   85   86 1    
   168   85   87 1    
   169   85  206 1    
   170   86  207 1    
   171   86  208 1    
   172   86  209 1    
   173   87   88 2    
   174   87   89 am   BACKBONE|DICT|INTERRES
   175   89   90 1    
   176   89  210 1    
   177   90   91 1    
   178   90   92 1    
   179   90  211 1    
   180   91  212 1    
   181   91  213 1    
   182   91  214 1    
   183   92   93 2    
   184   92   94 am   BACKBONE|DICT|INTERRES
   185   94   95 1    
   186   94  215 1    
   187   95   96 1    
   188   95   97 1    
   189   95  216 1    
   190   96  217 1    
   191   96  218 1    
   192   96  219 1    
   193   97   98 2    
   194   97   99 am   BACKBONE|DICT|INTERRES
   195   99  100 1    
   196   99  220 1    
   197  100  101 1    
   198  100  102 1    
   199  100  221 1    
   200  101  222 1    
   201  101  223 1    
   202  101  224 1    
   203  102  103 2    
   204  102  104 am   BACKBONE|DICT|INTERRES
   205  104  105 1    
   206  104  225 1    
   207  105  106 1    
   208  105  107 1    
   209  105  226 1    
   210  106  227 1    
   211  106  228 1    
   212  106  229 1    
   213  107  108 2    
   214  107  109 am   BACKBONE|DICT|INTERRES
   215  109  110 1    
   216  109  230 1    
   217  110  111 1    
   218  110  112 1    
   219  110  231 1    
   220  111  232 1    
   221  111  233 1    
   222  111  234 1    
   223  112  113 2    
   224  112  114 am   BACKBONE|DICT|INTERRES
   225  114  115 1    
   226  114  235 1    
   227  115  116 1    
   228  115  117 1    
   229  115  236 1    
   230  116  237 1    
   231  116  238 1    
   232  116  239 1    
   233  117  118 2    
   234  117  119 am   BACKBONE|DICT|INTERRES
   235  119  120 1    
   236  119  240 1    
   237  120  121 1    
   238  120  124 1    
   239  120  241 1    
   240  121  122 am   BACKBONE|DICT|INTERRES
   241  121  123 2    
   242  122  242 1    
   243  122  243 1    
   244  124  125 1    
   245  124  244 1    
   246  124  245 1    
   247  125  126 1    
   248  126  246 1    
   249  126  247 1    
@<TRIPOS>SUBSTRUCTURE
     1 UNK         1 GROUP             0       ****    0 ROOT    
