@<TRIPOS>MOLECULE
3R540
247   249    1
SMALL
USER_CHARGES


@<TRIPOS>ATOM
      1 CA         -3.1836  -15.5728  -45.8937 C.3       0 UNK        -0.1800 
      2 C          -2.0510  -15.4016  -46.8938 C.2       0 UNK         0.5000 
      3 O          -1.1624  -16.2482  -46.9743 O.2       0 UNK        -0.5000 
      4 N          -2.0796  -14.3006  -47.6565 N.am      1 UNK        -0.5000 
      5 CA         -1.1716  -13.9552  -48.7612 C.3       1 UNK         0.1400 
      6 C6         -1.1070  -15.0622  -49.8453 C.3       23 UNK        -0.0398 
      7 S7         -0.6192  -14.4479  -51.4933 S.3       23 UNK        -0.2404 
      8 C8          1.0008  -15.2540  -51.7292 C.3       23 UNK        -0.0205 
      9 C9          0.9314  -16.7734  -51.6213 C.ar      23 UNK        -0.0193 
     10 C10         0.0410  -17.5046  -52.4139 C.ar      23 UNK        -0.1150 
     11 C11        -0.0367  -18.8958  -52.3026 C.ar      23 UNK        -0.0193 
     12 C12         0.7839  -19.5564  -51.3832 C.ar      23 UNK        -0.1150 
     13 C13         1.6801  -18.8384  -50.5845 C.ar      23 UNK        -0.0193 
     14 C14         1.7543  -17.4485  -50.7150 C.ar      23 UNK        -0.1150 
     15 C15         2.5692  -19.5676  -49.5846 C.3       23 UNK        -0.0205 
     16 S16         2.3116  -19.0263  -47.8607 S.3       23 UNK        -0.2404 
     17 C17         0.5436  -19.3895  -47.6009 C.3       23 UNK        -0.0398 
     18 CA          0.2933  -20.8585  -47.1876 C.3       11 UNK         0.1400 
     19 N           0.7664  -21.1668  -45.8352 N.am      11 UNK        -0.5000 
     20 C           0.7826  -22.3905  -45.2879 C.2       10 UNK         0.5000 
     21 O           0.4357  -23.4108  -45.8823 O.2       10 UNK        -0.5000 
     22 CA          1.2057  -22.4901  -43.8116 C.3       10 UNK         0.1400 
     23 CB          2.7326  -22.4163  -43.6606 C.3       10 UNK        -0.1800 
     24 N           0.5709  -21.4674  -42.9804 N.am      10 UNK        -0.5000 
     25 C          -0.7471  -21.4023  -42.7406 C.2       9 UNK         0.5000 
     26 O          -1.5635  -22.2169  -43.1718 O.2       9 UNK        -0.5000 
     27 CA         -1.2420  -20.2018  -41.9137 C.3       9 UNK         0.1400 
     28 CB         -0.9987  -20.4359  -40.4154 C.3       9 UNK        -0.1800 
     29 N          -0.6184  -18.9429  -42.3207 N.am      9 UNK        -0.5000 
     30 C          -0.7458  -18.3950  -43.5377 C.2       8 UNK         0.5000 
     31 O          -1.4518  -18.8631  -44.4294 O.2       8 UNK        -0.5000 
     32 CA          0.1049  -17.1498  -43.8294 C.3       8 UNK         0.1400 
     33 CB         -0.5461  -15.8835  -43.2545 C.3       8 UNK        -0.1800 
     34 N           1.4699  -17.2643  -43.3242 N.am      8 UNK        -0.5000 
     35 C           2.3598  -18.1933  -43.6950 C.2       7 UNK         0.5000 
     36 O           2.1211  -19.0840  -44.5058 O.2       7 UNK        -0.5000 
     37 CA          3.7330  -18.1417  -43.0096 C.3       7 UNK         0.1400 
     38 CB          4.6225  -17.0591  -43.6387 C.3       7 UNK        -0.1800 
     39 N           3.6021  -17.8991  -41.5749 N.am      7 UNK        -0.5000 
     40 C           3.1574  -18.8073  -40.6963 C.2       6 UNK         0.5000 
     41 O           2.8526  -19.9623  -40.9970 O.2       6 UNK        -0.5000 
     42 CA          2.9996  -18.3292  -39.2414 C.3       6 UNK         0.1400 
     43 CB          4.3449  -18.3849  -38.5019 C.3       6 UNK        -0.1800 
     44 N           2.4471  -16.9758  -39.1440 N.am      6 UNK        -0.5000 
     45 C           1.1980  -16.6496  -39.5018 C.2       5 UNK         0.5000 
     46 O           0.3878  -17.4510  -39.9681 O.2       5 UNK        -0.5000 
     47 CA          0.7914  -15.1731  -39.3387 C.3       5 UNK         0.1400 
     48 CB          0.4323  -14.8732  -37.8754 C.3       5 UNK        -0.1800 
     49 N           1.7732  -14.1876  -39.8087 N.am      5 UNK        -0.5000 
     50 C           2.3390  -14.1665  -41.0228 C.2       4 UNK         0.5000 
     51 O           2.2745  -15.0910  -41.8317 O.2       4 UNK        -0.5000 
     52 CA          3.0805  -12.8838  -41.4310 C.3       4 UNK         0.1400 
     53 CB          4.5800  -13.1560  -41.6234 C.3       4 UNK        -0.1800 
     54 N           2.5198  -12.3686  -42.6805 N.am      4 UNK        -0.5000 
     55 C           1.2919  -11.8533  -42.8175 C.2       3 UNK         0.5000 
     56 O           0.5385  -11.6395  -41.8667 O.2       3 UNK        -0.5000 
     57 CA          0.8016  -11.5333  -44.2444 C.3       3 UNK         0.1400 
     58 CB          1.3041  -10.1535  -44.7101 C.3       3 UNK        -0.1800 
     59 N           1.0730  -12.5730  -45.2486 N.am      3 UNK        -0.5000 
     60 C           2.2452  -12.9723  -45.7645 C.2       2 UNK         0.5000 
     61 O           3.3373  -12.5337  -45.4015 O.2       2 UNK        -0.5000 
     62 CA          2.2006  -14.0535  -46.8642 C.3       2 UNK         0.1400 
     63 CB          2.7672  -15.3784  -46.3390 C.3       2 UNK        -0.1800 
     64 N           0.8606  -14.2967  -47.4070 N.am      2 UNK        -0.5000 
     65 C           0.2333  -13.5117  -48.2917 C.2       1 UNK         0.5000 
     66 O           0.7113  -12.4605  -48.7196 O.2       1 UNK        -0.5000 
     67 C          -1.1904  -21.2218  -47.3718 C.2       11 UNK         0.5000 
     68 O          -1.5215  -21.8821  -48.3548 O.2       11 UNK        -0.5000 
     69 N          -2.0474  -20.8290  -46.4178 N.am      12 UNK        -0.5000 
     70 CA         -3.4764  -21.1443  -46.4164 C.3       12 UNK         0.1400 
     71 CB         -4.1727  -20.4169  -45.2572 C.3       12 UNK        -0.1800 
     72 C          -3.7549  -22.6557  -46.3582 C.2       12 UNK         0.5000 
     73 O          -4.6245  -23.1328  -47.0872 O.2       12 UNK        -0.5000 
     74 N          -2.9922  -23.3826  -45.5291 N.am      13 UNK        -0.5000 
     75 CA         -3.0458  -24.8400  -45.4244 C.3       13 UNK         0.1400 
     76 CB         -2.2114  -25.3073  -44.2221 C.3       13 UNK        -0.1800 
     77 C          -2.5914  -25.5401  -46.7177 C.2       13 UNK         0.5000 
     78 O          -3.2906  -26.4332  -47.1966 O.2       13 UNK        -0.5000 
     79 N          -1.4550  -25.1015  -47.2787 N.am      14 UNK        -0.5000 
     80 CA         -0.8842  -25.6183  -48.5257 C.3       14 UNK         0.1400 
     81 CB          0.5083  -25.0070  -48.7444 C.3       14 UNK        -0.1800 
     82 C          -1.7820  -25.3686  -49.7514 C.2       14 UNK         0.5000 
     83 O          -1.9132  -26.2496  -50.6016 O.2       14 UNK        -0.5000 
     84 N          -2.4036  -24.1844  -49.8032 N.am      15 UNK        -0.5000 
     85 CA         -3.3438  -23.7738  -50.8450 C.3       15 UNK         0.1400 
     86 CB         -3.3823  -22.2392  -50.8859 C.3       15 UNK        -0.1800 
     87 C          -4.7644  -24.3420  -50.6510 C.2       15 UNK         0.5000 
     88 O          -5.6113  -24.1307  -51.5186 O.2       15 UNK        -0.5000 
     89 N          -5.0183  -25.0161  -49.5179 N.am      16 UNK        -0.5000 
     90 CA         -6.3010  -25.5878  -49.0885 C.3       16 UNK         0.1400 
     91 CB         -6.6739  -26.7967  -49.9709 C.3       16 UNK        -0.1800 
     92 C          -7.4266  -24.5330  -49.0005 C.2       16 UNK         0.5000 
     93 O          -8.5681  -24.8059  -49.3756 O.2       16 UNK        -0.5000 
     94 N          -7.0581  -23.3318  -48.5317 N.am      17 UNK        -0.5000 
     95 CA         -7.8646  -22.1122  -48.4073 C.3       17 UNK         0.1400 
     96 CB         -9.0129  -22.3177  -47.3979 C.3       17 UNK        -0.1800 
     97 C          -8.3602  -21.5130  -49.7452 C.2       17 UNK         0.5000 
     98 O          -9.1721  -20.5859  -49.7202 O.2       17 UNK        -0.5000 
     99 N          -7.8626  -22.0159  -50.8822 N.am      18 UNK        -0.5000 
    100 CA        -8.1387  -21.5011  -52.2224 C.3       18 UNK         0.1400 
    101 CB        -8.2675  -22.6962  -53.1841 C.3       18 UNK        -0.1800 
    102 C         -7.0181  -20.5457  -52.6746 C.2       18 UNK         0.5000 
    103 O         -6.0392  -20.3442  -51.9527 O.2       18 UNK        -0.5000 
    104 N         -7.1698  -19.9813  -53.8804 N.am      19 UNK        -0.5000 
    105 CA        -6.1392  -19.1730  -54.5413 C.3       19 UNK         0.1400 
    106 CB        -6.7829  -18.3696  -55.6817 C.3       19 UNK        -0.1800 
    107 C         -4.9695  -20.0225  -55.0790 C.2       19 UNK         0.5000 
    108 O         -3.8624  -19.5040  -55.2225 O.2       19 UNK        -0.5000 
    109 N         -5.2486  -21.3006  -55.3884 N.am      20 UNK        -0.5000 
    110 CA        -4.3171  -22.3550  -55.8185 C.3       20 UNK         0.1400 
    111 CB        -3.4335  -22.7877  -54.6324 C.3       20 UNK        -0.1800 
    112 C         -3.4928  -22.0281  -57.0851 C.2       20 UNK         0.5000 
    113 O         -2.4408  -22.6306  -57.3035 O.2       20 UNK        -0.5000 
    114 N         -3.9909  -21.0811  -57.8949 N.am      21 UNK        -0.5000 
    115 CA        -3.3699  -20.5116  -59.0960 C.3       21 UNK         0.1400 
    116 CB        -3.2689  -21.5694  -60.2155 C.3       21 UNK        -0.1800 
    117 C         -2.0272  -19.7918  -58.8273 C.2       21 UNK         0.5000 
    118 O         -1.2125  -19.6645  -59.7440 O.2       21 UNK        -0.5000 
    119 N         -1.8159  -19.3257  -57.5883 N.am      22 UNK        -0.5000 
    120 CA        -0.6336  -18.5539  -57.1771 C.3       22 UNK         0.1400 
    121 C         -0.5886  -17.1420  -57.8269 C.2       22 UNK         0.5000 
    122 N          0.5960  -16.6368  -58.1440 N.am      22 UNK        -0.7600 
    123 O         -1.6108  -16.4833  -58.0083 O.2       22 UNK        -0.5000 
    124 C124       -0.5321  -18.4355  -55.6371 C.3       23 UNK        -0.0398 
    125 S125       -0.3448  -20.0520  -54.8102 S.3       23 UNK        -0.2404 
    126 C126       -1.0186  -19.6837  -53.1591 C.3       23 UNK        -0.0205 
    127 H127       -3.1468  -14.7902  -45.1361 H         1 UNK         0.0600 
    128 H128       -3.1138  -16.5404  -45.3953 H         1 UNK         0.0600 
    129 H129       -4.1490  -15.5222  -46.3974 H         1 UNK         0.0600 
    130 H130       -2.8252  -13.6349  -47.5052 H         1 UNK         0.3000 
    131 H131       -1.6309  -13.0775  -49.2194 H         1 UNK         0.0600 
    132 H132       -0.4606  -15.8803  -49.5256 H         1 UNK         0.0800 
    133 H133       -2.0941  -15.5092  -49.9703 H         1 UNK         0.0800 
    134 H134        1.7026  -14.8445  -51.0007 H         1 UNK         0.0800 
    135 H135        1.3877  -14.9882  -52.7137 H         1 UNK         0.0800 
    136 H136       -0.6005  -16.9848  -53.1108 H         1 UNK         0.1150 
    137 H137        0.7218  -20.6316  -51.2894 H         1 UNK         0.1150 
    138 H138        2.4447  -16.8935  -50.0950 H         1 UNK         0.1150 
    139 H139        2.4153  -20.6461  -49.6424 H         1 UNK         0.0800 
    140 H140        3.6122  -19.3946  -49.8525 H         1 UNK         0.0800 
    141 H141       -0.0034  -19.1325  -48.5092 H         1 UNK         0.0800 
    142 H142        0.1671  -18.7123  -46.8326 H         1 UNK         0.0800 
    143 H143        0.8530  -21.4993  -47.8718 H         1 UNK         0.0600 
    144 H144        1.1270  -20.3826  -45.2939 H         1 UNK         0.3000 
    145 H145        0.8811  -23.4650  -43.4414 H         1 UNK         0.0600 
    146 H146        3.0318  -22.5409  -42.6197 H         1 UNK         0.0600 
    147 H147        3.2180  -23.2053  -44.2363 H         1 UNK         0.0600 
    148 H148        3.1320  -21.4646  -44.0099 H         1 UNK         0.0600 
    149 H149        1.1735  -20.7483  -42.6028 H         1 UNK         0.3000 
    150 H150       -2.3180  -20.1089  -42.0745 H         1 UNK         0.0600 
    151 H151       -1.4500  -21.3729  -40.0868 H         1 UNK         0.0600 
    152 H152       -1.4361  -19.6367  -39.8168 H         1 UNK         0.0600 
    153 H153        0.0661  -20.4821  -40.1828 H         1 UNK         0.0600 
    154 H154       -0.0513  -18.4683  -41.6244 H         1 UNK         0.3000 
    155 H155        0.1676  -17.0446  -44.9125 H         1 UNK         0.0600 
    156 H156       -1.5835  -15.7933  -43.5721 H         1 UNK         0.0600 
    157 H157       -0.0213  -14.9868  -43.5843 H         1 UNK         0.0600 
    158 H158       -0.5421  -15.8920  -42.1650 H         1 UNK         0.0600 
    159 H159        1.7684  -16.5425  -42.6690 H         1 UNK         0.3000 
    160 H160        4.2199  -19.1083  -43.1559 H         1 UNK         0.0600 
    161 H161        4.1862  -16.0652  -43.5360 H         1 UNK         0.0600 
    162 H162        4.7649  -17.2469  -44.7036 H         1 UNK         0.0600 
    163 H163        5.6097  -17.0415  -43.1768 H         1 UNK         0.0600 
    164 H164        3.7538  -16.9521  -41.2585 H         1 UNK         0.3000 
    165 H165        2.3092  -19.0129  -38.7425 H         1 UNK         0.0600 
    166 H166        4.2268  -18.1286  -37.4489 H         1 UNK         0.0600 
    167 H167        4.7724  -19.3875  -38.5452 H         1 UNK         0.0600 
    168 H168        5.0732  -17.6983  -38.9354 H         1 UNK         0.0600 
    169 H169        3.0529  -16.2531  -38.7840 H         1 UNK         0.3000 
    170 H170       -0.1099  -15.0246  -39.9363 H         1 UNK         0.0600 
    171 H171       -0.3088  -15.5808  -37.5008 H         1 UNK         0.0600 
    172 H172        1.3054  -14.9368  -37.2249 H         1 UNK         0.0600 
    173 H173        0.0067  -13.8751  -37.7697 H         1 UNK         0.0600 
    174 H174        1.8974  -13.3810  -39.2142 H         1 UNK         0.3000 
    175 H175        2.9589  -12.1271  -40.6534 H         1 UNK         0.0600 
    176 H176        4.7600  -13.8833  -42.4161 H         1 UNK         0.0600 
    177 H177        5.1152  -12.2422  -41.8820 H         1 UNK         0.0600 
    178 H178        5.0268  -13.5479  -40.7089 H         1 UNK         0.0600 
    179 H179        3.0561  -12.5243  -43.5292 H         1 UNK         0.3000 
    180 H180       -0.2864  -11.4728  -44.1858 H         1 UNK         0.0600 
    181 H181        2.3917  -10.1140  -44.7751 H         1 UNK         0.0600 
    182 H182        0.9928   -9.3726  -44.0152 H         1 UNK         0.0600 
    183 H183        0.8999   -9.8971  -45.6895 H         1 UNK         0.0600 
    184 H184        0.2513  -13.0342  -45.6108 H         1 UNK         0.3000 
    185 H185        2.8443  -13.7122  -47.6776 H         1 UNK         0.0600 
    186 H186        3.7894  -15.2523  -45.9809 H         1 UNK         0.0600 
    187 H187        2.1729  -15.7625  -45.5124 H         1 UNK         0.0600 
    188 H188        2.7890  -16.1369  -47.1210 H         1 UNK         0.0600 
    189 H189        0.3801  -15.1424  -47.1097 H         1 UNK         0.3000 
    190 H190       -1.7105  -20.2542  -45.6482 H         1 UNK         0.3000 
    191 H191       -3.8968  -20.7693  -47.3519 H         1 UNK         0.0600 
    192 H192       -3.7596  -20.7116  -44.2919 H         1 UNK         0.0600 
    193 H193       -5.2408  -20.6376  -45.2411 H         1 UNK         0.0600 
    194 H194       -4.0654  -19.3360  -45.3505 H         1 UNK         0.0600 
    195 H195       -2.3248  -22.9072  -44.9299 H         1 UNK         0.3000 
    196 H196       -4.0848  -25.1226  -45.2424 H         1 UNK         0.0600 
    197 H197       -2.2430  -26.3929  -44.1222 H         1 UNK         0.0600 
    198 H198       -2.5914  -24.8838  -43.2923 H         1 UNK         0.0600 
    199 H199       -1.1653  -25.0155  -44.3174 H         1 UNK         0.0600 
    200 H200       -0.9209  -24.3765  -46.8053 H         1 UNK         0.3000 
    201 H201       -0.7680  -26.6983  -48.4152 H         1 UNK         0.0600 
    202 H202        1.1805  -25.2551  -47.9229 H         1 UNK         0.0600 
    203 H203        0.4622  -23.9201  -48.8215 H         1 UNK         0.0600 
    204 H204        0.9624  -25.3837  -49.6617 H         1 UNK         0.0600 
    205 H205       -2.1893  -23.4862  -49.0944 H         1 UNK         0.3000 
    206 H206       -2.9741  -24.1318  -51.8077 H         1 UNK         0.0600 
    207 H207       -2.3808  -21.8209  -50.9795 H         1 UNK         0.0600 
    208 H208       -3.9600  -21.8846  -51.7383 H         1 UNK         0.0600 
    209 H209       -3.8352  -21.8238  -49.9846 H         1 UNK         0.0600 
    210 H210       -4.2613  -25.1127  -48.8534 H         1 UNK         0.3000 
    211 H211       -6.1461  -25.9535  -48.0725 H         1 UNK         0.0600 
    212 H212       -6.8918  -26.4974  -50.9966 H         1 UNK         0.0600 
    213 H213       -7.5568  -27.3064  -49.5837 H         1 UNK         0.0600 
    214 H214       -5.8650  -27.5269  -49.9991 H         1 UNK         0.0600 
    215 H215       -6.0981  -23.2435  -48.2022 H         1 UNK         0.3000 
    216 H216       -7.1920  -21.3645  -47.9847 H         1 UNK         0.0600 
    217 H217       -9.5139  -21.3749  -47.1757 H         1 UNK         0.0600 
    218 H218       -8.6408  -22.7146  -46.4533 H         1 UNK         0.0600 
    219 H219       -9.7685  -23.0055  -47.7777 H         1 UNK         0.0600 
    220 H220       -7.1597  -22.7436  -50.8298 H         1 UNK         0.3000 
    221 H221       -9.0810  -20.9496  -52.2285 H         1 UNK         0.0600 
    222 H222       -7.3158  -23.2104  -53.3216 H         1 UNK         0.0600 
    223 H223       -8.9878  -23.4250  -52.8113 H         1 UNK         0.0600 
    224 H224       -8.6139  -22.3792  -54.1680 H         1 UNK         0.0600 
    225 H225       -8.0124  -20.1606  -54.4077 H         1 UNK         0.3000 
    226 H226       -5.7283  -18.4669  -53.8163 H         1 UNK         0.0600 
    227 H227       -7.5662  -17.7110  -55.3061 H         1 UNK         0.0600 
    228 H228       -6.0444  -17.7411  -56.1816 H         1 UNK         0.0600 
    229 H229       -7.2247  -19.0211  -56.4367 H         1 UNK         0.0600 
    230 H230       -6.2036  -21.6016  -55.2620 H         1 UNK         0.3000 
    231 H231       -4.9364  -23.2110  -56.0897 H         1 UNK         0.0600 
    232 H232       -2.7901  -23.6275  -54.8967 H         1 UNK         0.0600 
    233 H233       -4.0500  -23.1091  -53.7940 H         1 UNK         0.0600 
    234 H234       -2.7922  -21.9758  -54.2897 H         1 UNK         0.0600 
    235 H235       -4.8596  -20.6511  -57.6117 H         1 UNK         0.3000 
    236 H236       -4.0531  -19.7356  -59.4440 H         1 UNK         0.0600 
    237 H237       -2.9638  -21.1144  -61.1585 H         1 UNK         0.0600 
    238 H238       -2.5397  -22.3440  -59.9771 H         1 UNK         0.0600 
    239 H239       -4.2297  -22.0541  -60.3883 H         1 UNK         0.0600 
    240 H240       -2.5257  -19.4644  -56.8776 H         1 UNK         0.3000 
    241 H241        0.2434  -19.1033  -57.5257 H         1 UNK         0.0600 
    242 H242        0.6418  -15.7162  -58.5533 H         1 UNK         0.3800 
    243 H243        1.4493  -17.1552  -58.0006 H         1 UNK         0.3800 
    244 H244        0.3272  -17.8239  -55.3562 H         1 UNK         0.0800 
    245 H245       -1.4158  -17.9287  -55.2456 H         1 UNK         0.0800 
    246 H246       -1.2596  -20.6284  -52.6718 H         1 UNK         0.0800 
    247 H247       -1.9626  -19.1443  -53.2489 H         1 UNK         0.0800 
@<TRIPOS>BOND
     1    1    2 1    
     2    1  127 1    
     3    1  128 1    
     4    1  129 1    
     5    2    3 2    
     6    2    4 am   BACKBONE|DICT|INTERRES
     7    4    5 1    
     8    4  130 1    
     9    5    6 1    
    10    5   65 1    
    11    5  131 1    
    12    6    7 1    
    13    6  132 1    
    14    6  133 1    
    15    7    8 1    
    16    8    9 1    
    17    8  134 1    
    18    8  135 1    
    19    9   10 ar   
    20    9   14 ar   
    21   10   11 ar   
    22   10  136 1    
    23   11   12 ar   
    24   11  126 1    
    25   12   13 ar   
    26   12  137 1    
    27   13   14 ar   
    28   13   15 1    
    29   14  138 1    
    30   15   16 1    
    31   15  139 1    
    32   15  140 1    
    33   16   17 1    
    34   17   18 1    
    35   17  141 1    
    36   17  142 1    
    37   18   19 1    
    38   18   67 1    
    39   18  143 1    
    40   19   20 am   BACKBONE|DICT|INTERRES
    41   19  144 1    
    42   20   21 2    
    43   20   22 1    
    44   22   23 1    
    45   22   24 1    
    46   22  145 1    
    47   23  146 1    
    48   23  147 1    
    49   23  148 1    
    50   24   25 am   BACKBONE|DICT|INTERRES
    51   24  149 1    
    52   25   26 2    
    53   25   27 1    
    54   27   28 1    
    55   27   29 1    
    56   27  150 1    
    57   28  151 1    
    58   28  152 1    
    59   28  153 1    
    60   29   30 am   BACKBONE|DICT|INTERRES
    61   29  154 1    
    62   30   31 2    
    63   30   32 1    
    64   32   33 1    
    65   32   34 1    
    66   32  155 1    
    67   33  156 1    
    68   33  157 1    
    69   33  158 1    
    70   34   35 am   BACKBONE|DICT|INTERRES
    71   34  159 1    
    72   35   36 2    
    73   35   37 1    
    74   37   38 1    
    75   37   39 1    
    76   37  160 1    
    77   38  161 1    
    78   38  162 1    
    79   38  163 1    
    80   39   40 am   BACKBONE|DICT|INTERRES
    81   39  164 1    
    82   40   41 2    
    83   40   42 1    
    84   42   43 1    
    85   42   44 1    
    86   42  165 1    
    87   43  166 1    
    88   43  167 1    
    89   43  168 1    
    90   44   45 am   BACKBONE|DICT|INTERRES
    91   44  169 1    
    92   45   46 2    
    93   45   47 1    
    94   47   48 1    
    95   47   49 1    
    96   47  170 1    
    97   48  171 1    
    98   48  172 1    
    99   48  173 1    
   100   49   50 am   BACKBONE|DICT|INTERRES
   101   49  174 1    
   102   50   51 2    
   103   50   52 1    
   104   52   53 1    
   105   52   54 1    
   106   52  175 1    
   107   53  176 1    
   108   53  177 1    
   109   53  178 1    
   110   54   55 am   BACKBONE|DICT|INTERRES
   111   54  179 1    
   112   55   56 2    
   113   55   57 1    
   114   57   58 1    
   115   57   59 1    
   116   57  180 1    
   117   58  181 1    
   118   58  182 1    
   119   58  183 1    
   120   59   60 am   BACKBONE|DICT|INTERRES
   121   59  184 1    
   122   60   61 2    
   123   60   62 1    
   124   62   63 1    
   125   62   64 1    
   126   62  185 1    
   127   63  186 1    
   128   63  187 1    
   129   63  188 1    
   130   64   65 am   BACKBONE|DICT|INTERRES
   131   64  189 1    
   132   65   66 2    
   133   67   68 2    
   134   67   69 am   BACKBONE|DICT|INTERRES
   135   69   70 1    
   136   69  190 1    
   137   70   71 1    
   138   70   72 1    
   139   70  191 1    
   140   71  192 1    
   141   71  193 1    
   142   71  194 1    
   143   72   73 2    
   144   72   74 am   BACKBONE|DICT|INTERRES
   145   74   75 1    
   146   74  195 1    
   147   75   76 1    
   148   75   77 1    
   149   75  196 1    
   150   76  197 1    
   151   76  198 1    
   152   76  199 1    
   153   77   78 2    
   154   77   79 am   BACKBONE|DICT|INTERRES
   155   79   80 1    
   156   79  200 1    
   157   80   81 1    
   158   80   82 1    
   159   80  201 1    
   160   81  202 1    
   161   81  203 1    
   162   81  204 1    
   163   82   83 2    
   164   82   84 am   BACKBONE|DICT|INTERRES
   165   84   85 1    
   166   84  205 1    
   167   85   86 1    
   168   85   87 1    
   169   85  206 1    
   170   86  207 1    
   171   86  208 1    
   172   86  209 1    
   173   87   88 2    
   174   87   89 am   BACKBONE|DICT|INTERRES
   175   89   90 1    
   176   89  210 1    
   177   90   91 1    
   178   90   92 1    
   179   90  211 1    
   180   91  212 1    
   181   91  213 1    
   182   91  214 1    
   183   92   93 2    
   184   92   94 am   BACKBONE|DICT|INTERRES
   185   94   95 1    
   186   94  215 1    
   187   95   96 1    
   188   95   97 1    
   189   95  216 1    
   190   96  217 1    
   191   96  218 1    
   192   96  219 1    
   193   97   98 2    
   194   97   99 am   BACKBONE|DICT|INTERRES
   195   99  100 1    
   196   99  220 1    
   197  100  101 1    
   198  100  102 1    
   199  100  221 1    
   200  101  222 1    
   201  101  223 1    
   202  101  224 1    
   203  102  103 2    
   204  102  104 am   BACKBONE|DICT|INTERRES
   205  104  105 1    
   206  104  225 1    
   207  105  106 1    
   208  105  107 1    
   209  105  226 1    
   210  106  227 1    
   211  106  228 1    
   212  106  229 1    
   213  107  108 2    
   214  107  109 am   BACKBONE|DICT|INTERRES
   215  109  110 1    
   216  109  230 1    
   217  110  111 1    
   218  110  112 1    
   219  110  231 1    
   220  111  232 1    
   221  111  233 1    
   222  111  234 1    
   223  112  113 2    
   224  112  114 am   BACKBONE|DICT|INTERRES
   225  114  115 1    
   226  114  235 1    
   227  115  116 1    
   228  115  117 1    
   229  115  236 1    
   230  116  237 1    
   231  116  238 1    
   232  116  239 1    
   233  117  118 2    
   234  117  119 am   BACKBONE|DICT|INTERRES
   235  119  120 1    
   236  119  240 1    
   237  120  121 1    
   238  120  124 1    
   239  120  241 1    
   240  121  122 am   BACKBONE|DICT|INTERRES
   241  121  123 2    
   242  122  242 1    
   243  122  243 1    
   244  124  125 1    
   245  124  244 1    
   246  124  245 1    
   247  125  126 1    
   248  126  246 1    
   249  126  247 1    
@<TRIPOS>SUBSTRUCTURE
     1 UNK         1 GROUP             0       ****    0 ROOT    
