@<TRIPOS>MOLECULE
3R540
247   249    1
SMALL
USER_CHARGES


@<TRIPOS>ATOM
      1 CA          2.2997  -13.3682  -48.8684 C.3       0 UNK        -0.1800 
      2 C           0.9958  -13.2559  -48.0929 C.2       0 UNK         0.5000 
      3 O           1.0048  -12.8507  -46.9316 O.2       0 UNK        -0.5000 
      4 N          -0.1300  -13.5891  -48.7366 N.am      1 UNK        -0.5000 
      5 CA         -1.4770  -13.6599  -48.1448 C.3       1 UNK         0.1400 
      6 C6         -2.4201  -14.5736  -48.9658 C.3       23 UNK        -0.0398 
      7 S7         -1.8707  -16.3105  -48.9011 S.3       23 UNK        -0.2404 
      8 C8         -1.0649  -16.4962  -50.5175 C.3       23 UNK        -0.0205 
      9 C9         -0.2782  -17.7943  -50.6066 C.ar      23 UNK        -0.0193 
     10 C10        -0.7530  -18.8555  -51.3802 C.ar      23 UNK        -0.1150 
     11 C11         0.0080  -20.0166  -51.5395 C.ar      23 UNK        -0.0193 
     12 C12         1.2386  -20.1260  -50.8863 C.ar      23 UNK        -0.1150 
     13 C13         1.7106  -19.0859  -50.0810 C.ar      23 UNK        -0.0193 
     14 C14         0.9496  -17.9199  -49.9492 C.ar      23 UNK        -0.1150 
     15 C15         3.0608  -19.1986  -49.3895 C.3       23 UNK        -0.0205 
     16 S16         2.9291  -19.9561  -47.7399 S.3       23 UNK        -0.2404 
     17 C17         3.0096  -21.7486  -48.1160 C.3       23 UNK        -0.0398 
     18 CA          1.9200  -22.6007  -47.4162 C.3       11 UNK         0.1400 
     19 N           1.8639  -22.3376  -45.9739 N.am      11 UNK        -0.5000 
     20 C           1.1405  -23.0206  -45.0777 C.2       10 UNK         0.5000 
     21 O           0.4109  -23.9618  -45.3831 O.2       10 UNK        -0.5000 
     22 CA          1.1746  -22.5472  -43.6118 C.3       10 UNK         0.1400 
     23 CB          1.3798  -23.7105  -42.6216 C.3       10 UNK        -0.1800 
     24 N           2.0994  -21.4381  -43.3536 N.am      10 UNK        -0.5000 
     25 C           3.4400  -21.4542  -43.3340 C.2       9 UNK         0.5000 
     26 O           4.1216  -22.4598  -43.5307 O.2       9 UNK        -0.5000 
     27 CA          4.1398  -20.1126  -43.0640 C.3       9 UNK         0.1400 
     28 CB          4.4088  -19.3718  -44.3832 C.3       9 UNK        -0.1800 
     29 N           3.3420  -19.2475  -42.1912 N.am      9 UNK        -0.5000 
     30 C           3.7288  -18.8237  -40.9820 C.2       8 UNK         0.5000 
     31 O           4.7995  -19.1297  -40.4551 O.2       8 UNK        -0.5000 
     32 CA          2.7672  -17.8855  -40.2321 C.3       8 UNK         0.1400 
     33 CB          2.9615  -16.4331  -40.6954 C.3       8 UNK        -0.1800 
     34 N           1.3565  -18.2461  -40.3707 N.am      8 UNK        -0.5000 
     35 C           0.7792  -19.3097  -39.7944 C.2       7 UNK         0.5000 
     36 O           1.3982  -20.1662  -39.1624 O.2       7 UNK        -0.5000 
     37 CA         -0.7483  -19.4261  -39.9280 C.3       7 UNK         0.1400 
     38 CB         -1.4482  -18.4653  -38.9530 C.3       7 UNK        -0.1800 
     39 N          -1.1804  -19.1227  -41.2907 N.am      7 UNK        -0.5000 
     40 C          -1.5955  -20.0355  -42.1785 C.2       6 UNK         0.5000 
     41 O          -1.7355  -21.2293  -41.9150 O.2       6 UNK        -0.5000 
     42 CA         -1.8951  -19.5524  -43.6138 C.3       6 UNK         0.1400 
     43 CB         -3.4094  -19.4075  -43.8299 C.3       6 UNK        -0.1800 
     44 N          -1.2461  -18.2899  -43.9735 N.am      6 UNK        -0.5000 
     45 C           0.0764  -18.0900  -44.0472 C.2       5 UNK         0.5000 
     46 O           0.9134  -18.9676  -43.8399 O.2       5 UNK        -0.5000 
     47 CA          0.5443  -16.6517  -44.3265 C.3       5 UNK         0.1400 
     48 CB          0.6671  -16.4184  -45.8384 C.3       5 UNK        -0.1800 
     49 N          -0.3149  -15.6179  -43.7364 N.am      5 UNK        -0.5000 
     50 C          -0.6353  -15.4995  -42.4400 C.2       4 UNK         0.5000 
     51 O          -0.2722  -16.3087  -41.5846 O.2       4 UNK        -0.5000 
     52 CA         -1.5086  -14.2883  -42.0376 C.3       4 UNK         0.1400 
     53 CB         -1.7447  -14.2164  -40.5178 C.3       4 UNK        -0.1800 
     54 N          -0.9541  -13.0070  -42.4873 N.am      4 UNK        -0.5000 
     55 C          -0.9797  -12.5530  -43.7458 C.2       3 UNK         0.5000 
     56 O          -1.4827  -13.1915  -44.6741 O.2       3 UNK        -0.5000 
     57 CA         -0.3145  -11.1876  -44.0049 C.3       3 UNK         0.1400 
     58 CB          1.1976  -11.2546  -43.7289 C.3       3 UNK        -0.1800 
     59 N          -0.5089  -10.8139  -45.4024 N.am      3 UNK        -0.5000 
     60 C          -1.3999   -9.9255  -45.8635 C.2       2 UNK         0.5000 
     61 O          -2.0552   -9.1725  -45.1420 O.2       2 UNK        -0.5000 
     62 CA         -1.6164   -9.8924  -47.3934 C.3       2 UNK         0.1400 
     63 CB         -0.7153   -8.8330  -48.0456 C.3       2 UNK        -0.1800 
     64 N          -1.3471  -11.1937  -48.0084 N.am      2 UNK        -0.5000 
     65 C          -2.1122  -12.2815  -47.8382 C.2       1 UNK         0.5000 
     66 O          -3.2652  -12.2258  -47.4074 O.2       1 UNK        -0.5000 
     67 C           0.5413  -22.4573  -48.0931 C.2       11 UNK         0.5000 
     68 O           0.1412  -23.3247  -48.8712 O.2       11 UNK        -0.5000 
     69 N          -0.1812  -21.3921  -47.7250 N.am      12 UNK        -0.5000 
     70 CA         -1.5315  -21.0913  -48.1930 C.3       12 UNK         0.1400 
     71 CB         -1.9059  -19.6848  -47.7153 C.3       12 UNK        -0.1800 
     72 C          -2.5735  -22.1117  -47.7075 C.2       12 UNK         0.5000 
     73 O          -3.5094  -22.4184  -48.4463 O.2       12 UNK        -0.5000 
     74 N          -2.3780  -22.6233  -46.4840 N.am      13 UNK        -0.5000 
     75 CA         -3.2244  -23.6342  -45.8536 C.3       13 UNK         0.1400 
     76 CB         -3.0039  -23.6132  -44.3333 C.3       13 UNK        -0.1800 
     77 C          -2.9657  -25.0378  -46.4245 C.2       13 UNK         0.5000 
     78 O          -3.9209  -25.7769  -46.6587 O.2       13 UNK        -0.5000 
     79 N          -1.6884  -25.3669  -46.6661 N.am      14 UNK        -0.5000 
     80 CA         -1.2424  -26.6217  -47.2733 C.3       14 UNK         0.1400 
     81 CB          0.2882  -26.7199  -47.1838 C.3       14 UNK        -0.1800 
     82 C          -1.7146  -26.7706  -48.7296 C.2       14 UNK         0.5000 
     83 O          -2.1656  -27.8498  -49.1153 O.2       14 UNK        -0.5000 
     84 N          -1.6371  -25.6757  -49.4991 N.am      15 UNK        -0.5000 
     85 CA         -2.1877  -25.5857  -50.8525 C.3       15 UNK         0.1400 
     86 CB         -1.5784  -24.3653  -51.5556 C.3       15 UNK        -0.1800 
     87 C          -3.7259  -25.4879  -50.8663 C.2       15 UNK         0.5000 
     88 O          -4.3427  -25.8634  -51.8634 O.2       15 UNK        -0.5000 
     89 N          -4.3009  -24.9679  -49.7701 N.am      16 UNK        -0.5000 
     90 CA         -5.7121  -24.6261  -49.5636 C.3       16 UNK         0.1400 
     91 CB         -6.5831  -25.8979  -49.5130 C.3       16 UNK        -0.1800 
     92 C          -6.1941  -23.5895  -50.5987 C.2       16 UNK         0.5000 
     93 O          -7.2524  -23.7592  -51.2080 O.2       16 UNK        -0.5000 
     94 N          -5.3690  -22.5571  -50.8147 N.am      17 UNK        -0.5000 
     95 CA         -5.4837  -21.6354  -51.9393 C.3       17 UNK         0.1400 
     96 CB         -4.8760  -22.2809  -53.1987 C.3       17 UNK        -0.1800 
     97 C          -4.8389  -20.2849  -51.6022 C.2       17 UNK         0.5000 
     98 O          -3.9211  -19.8449  -52.2959 O.2       17 UNK        -0.5000 
     99 N          -5.3606  -19.6156  -50.5654 N.am      18 UNK        -0.5000 
    100 CA        -4.9418  -18.2743  -50.1291 C.3       18 UNK         0.1400 
    101 CB        -5.6278  -17.9436  -48.7952 C.3       18 UNK        -0.1800 
    102 C         -5.1756  -17.1502  -51.1670 C.2       18 UNK         0.5000 
    103 O         -4.6484  -16.0509  -51.0046 O.2       18 UNK        -0.5000 
    104 N         -5.9225  -17.4512  -52.2382 N.am      19 UNK        -0.5000 
    105 CA        -6.0597  -16.6272  -53.4413 C.3       19 UNK         0.1400 
    106 CB        -7.2650  -17.1435  -54.2444 C.3       19 UNK        -0.1800 
    107 C         -4.7911  -16.6033  -54.3275 C.2       19 UNK         0.5000 
    108 O         -4.7592  -15.8432  -55.2954 O.2       19 UNK        -0.5000 
    109 N         -3.7902  -17.4384  -54.0021 N.am      20 UNK        -0.5000 
    110 CA        -2.5130  -17.6319  -54.6999 C.3       20 UNK         0.1400 
    111 CB        -1.7129  -16.3194  -54.8322 C.3       20 UNK        -0.1800 
    112 C         -2.6496  -18.4101  -56.0232 C.2       20 UNK         0.5000 
    113 O         -1.7659  -18.3386  -56.8784 O.2       20 UNK        -0.5000 
    114 N         -3.7275  -19.1945  -56.1421 N.am      21 UNK        -0.5000 
    115 CA        -3.9592  -20.1728  -57.2032 C.3       21 UNK         0.1400 
    116 CB        -5.4503  -20.1393  -57.5848 C.3       21 UNK        -0.1800 
    117 C         -3.4982  -21.5565  -56.7055 C.2       21 UNK         0.5000 
    118 O         -4.3046  -22.4816  -56.6018 O.2       21 UNK        -0.5000 
    119 N         -2.2148  -21.6429  -56.3339 N.am      22 UNK        -0.5000 
    120 CA        -1.6109  -22.7611  -55.5877 C.3       22 UNK         0.1400 
    121 C         -1.5143  -24.1170  -56.3491 C.2       22 UNK         0.5000 
    122 N         -1.7162  -24.1632  -57.6599 N.am      22 UNK        -0.7600 
    123 O         -1.2481  -25.1466  -55.7358 O.2       22 UNK        -0.5000 
    124 C124       -0.2280  -22.3849  -54.9891 C.3       23 UNK        -0.0398 
    125 S125       -0.1588  -20.7440  -54.1860 S.3       23 UNK        -0.2404 
    126 C126       -0.4789  -21.1398  -52.4405 C.3       23 UNK        -0.0205 
    127 H127        2.1383  -13.7310  -49.8837 H         1 UNK         0.0600 
    128 H128        2.9743  -14.0599  -48.3639 H         1 UNK         0.0600 
    129 H129        2.7872  -12.3951  -48.9263 H         1 UNK         0.0600 
    130 H130       -0.0705  -13.8744  -49.7023 H         1 UNK         0.3000 
    131 H131       -1.3622  -14.1288  -47.1655 H         1 UNK         0.0600 
    132 H132       -3.4348  -14.5555  -48.5645 H         1 UNK         0.0800 
    133 H133       -2.4989  -14.2353  -50.0002 H         1 UNK         0.0800 
    134 H134       -0.3869  -15.6614  -50.6938 H         1 UNK         0.0800 
    135 H135       -1.8231  -16.4492  -51.3010 H         1 UNK         0.0800 
    136 H136       -1.7023  -18.7655  -51.8830 H         1 UNK         0.1150 
    137 H137        1.8334  -21.0183  -51.0161 H         1 UNK         0.1150 
    138 H138        1.3165  -17.1030  -49.3435 H         1 UNK         0.1150 
    139 H139        3.7623  -19.7615  -50.0070 H         1 UNK         0.0800 
    140 H140        3.4957  -18.2044  -49.2768 H         1 UNK         0.0800 
    141 H141        3.9910  -22.0970  -47.7915 H         1 UNK         0.0800 
    142 H142        2.9915  -21.9147  -49.1936 H         1 UNK         0.0800 
    143 H143        2.2075  -23.6480  -47.5308 H         1 UNK         0.0600 
    144 H144        2.4184  -21.5608  -45.6458 H         1 UNK         0.3000 
    145 H145        0.1815  -22.1431  -43.4255 H         1 UNK         0.0600 
    146 H146        0.5782  -24.4444  -42.7128 H         1 UNK         0.0600 
    147 H147        1.3759  -23.3548  -41.5912 H         1 UNK         0.0600 
    148 H148        2.3192  -24.2351  -42.7956 H         1 UNK         0.0600 
    149 H149        1.6499  -20.5279  -43.2922 H         1 UNK         0.3000 
    150 H150        5.1038  -20.3439  -42.6064 H         1 UNK         0.0600 
    151 H151        4.9673  -19.9975  -45.0808 H         1 UNK         0.0600 
    152 H152        4.9975  -18.4704  -44.2126 H         1 UNK         0.0600 
    153 H153        3.4823  -19.0742  -44.8751 H         1 UNK         0.0600 
    154 H154        2.4369  -18.9609  -42.5457 H         1 UNK         0.3000 
    155 H155        3.0214  -17.9345  -39.1710 H         1 UNK         0.0600 
    156 H156        2.7048  -16.3077  -41.7474 H         1 UNK         0.0600 
    157 H157        3.9980  -16.1174  -40.5698 H         1 UNK         0.0600 
    158 H158        2.3405  -15.7485  -40.1172 H         1 UNK         0.0600 
    159 H159        0.7659  -17.5634  -40.8407 H         1 UNK         0.3000 
    160 H160       -1.0286  -20.4447  -39.6515 H         1 UNK         0.0600 
    161 H161       -1.2098  -17.4229  -39.1678 H         1 UNK         0.0600 
    162 H162       -1.1475  -18.6660  -37.9239 H         1 UNK         0.0600 
    163 H163       -2.5313  -18.5767  -39.0029 H         1 UNK         0.0600 
    164 H164       -1.0654  -18.1618  -41.5917 H         1 UNK         0.3000 
    165 H165       -1.5248  -20.3223  -44.2932 H         1 UNK         0.0600 
    166 H166       -3.6415  -19.1659  -44.8672 H         1 UNK         0.0600 
    167 H167       -3.9327  -20.3336  -43.5900 H         1 UNK         0.0600 
    168 H168       -3.8302  -18.6228  -43.2001 H         1 UNK         0.0600 
    169 H169       -1.8535  -17.5016  -44.1424 H         1 UNK         0.3000 
    170 H170        1.5366  -16.5436  -43.8855 H         1 UNK         0.0600 
    171 H171        1.2902  -17.1814  -46.3079 H         1 UNK         0.0600 
    172 H172       -0.3062  -16.4416  -46.3287 H         1 UNK         0.0600 
    173 H173        1.1262  -15.4532  -46.0473 H         1 UNK         0.0600 
    174 H174       -0.6604  -14.8949  -44.3618 H         1 UNK         0.3000 
    175 H175       -2.4811  -14.4300  -42.5134 H         1 UNK         0.0600 
    176 H176       -0.8098  -14.0870  -39.9709 H         1 UNK         0.0600 
    177 H177       -2.4034  -13.3873  -40.2590 H         1 UNK         0.0600 
    178 H178       -2.2169  -15.1285  -40.1502 H         1 UNK         0.0600 
    179 H179       -0.4972  -12.4506  -41.7793 H         1 UNK         0.3000 
    180 H180       -0.7678  -10.4495  -43.3403 H         1 UNK         0.0600 
    181 H181        1.6810  -12.0313  -44.3234 H         1 UNK         0.0600 
    182 H182        1.4023  -11.4685  -42.6795 H         1 UNK         0.0600 
    183 H183        1.6815  -10.3065  -43.9639 H         1 UNK         0.0600 
    184 H184       -0.0636  -11.4421  -46.0652 H         1 UNK         0.3000 
    185 H185       -2.6580   -9.6237  -47.5818 H         1 UNK         0.0600 
    186 H186       -0.9073   -7.8455  -47.6238 H         1 UNK         0.0600 
    187 H187        0.3419   -9.0549  -47.8945 H         1 UNK         0.0600 
    188 H188       -0.8957   -8.7682  -49.1187 H         1 UNK         0.0600 
    189 H189       -0.4176  -11.3337  -48.3764 H         1 UNK         0.3000 
    190 H190        0.2461  -20.7206  -47.1042 H         1 UNK         0.3000 
    191 H191       -1.5287  -21.1023  -49.2846 H         1 UNK         0.0600 
    192 H192       -2.8810  -19.3858  -48.0982 H         1 UNK         0.0600 
    193 H193       -1.1752  -18.9559  -48.0612 H         1 UNK         0.0600 
    194 H194       -1.9447  -19.6203  -46.6288 H         1 UNK         0.0600 
    195 H195       -1.5467  -22.3532  -45.9824 H         1 UNK         0.3000 
    196 H196       -4.2690  -23.3806  -46.0475 H         1 UNK         0.0600 
    197 H197       -1.9721  -23.8428  -44.0662 H         1 UNK         0.0600 
    198 H198       -3.2482  -22.6386  -43.9127 H         1 UNK         0.0600 
    199 H199       -3.6403  -24.3473  -43.8377 H         1 UNK         0.0600 
    200 H200       -0.9538  -24.7278  -46.3716 H         1 UNK         0.3000 
    201 H201       -1.6713  -27.4441  -46.6972 H         1 UNK         0.0600 
    202 H202        0.6235  -26.6994  -46.1467 H         1 UNK         0.0600 
    203 H203        0.7757  -25.8973  -47.7082 H         1 UNK         0.0600 
    204 H204        0.6474  -27.6510  -47.6237 H         1 UNK         0.0600 
    205 H205       -1.1866  -24.8434  -49.1308 H         1 UNK         0.3000 
    206 H206       -1.9019  -26.4810  -51.4086 H         1 UNK         0.0600 
    207 H207       -0.4916  -24.4381  -51.5974 H         1 UNK         0.0600 
    208 H208       -1.9397  -24.2822  -52.5812 H         1 UNK         0.0600 
    209 H209       -1.8346  -23.4406  -51.0367 H         1 UNK         0.0600 
    210 H210       -3.6850  -24.6704  -49.0266 H         1 UNK         0.3000 
    211 H211       -5.7745  -24.1429  -48.5875 H         1 UNK         0.0600 
    212 H212       -7.6128  -25.6548  -49.2490 H         1 UNK         0.0600 
    213 H213       -6.2116  -26.5965  -48.7630 H         1 UNK         0.0600 
    214 H214       -6.6046  -26.4156  -50.4724 H         1 UNK         0.0600 
    215 H215       -4.5565  -22.4517  -50.2139 H         1 UNK         0.3000 
    216 H216       -6.5383  -21.4319  -52.1359 H         1 UNK         0.0600 
    217 H217       -3.8235  -22.5208  -53.0504 H         1 UNK         0.0600 
    218 H218       -4.9482  -21.6092  -54.0540 H         1 UNK         0.0600 
    219 H219       -5.3933  -23.2019  -53.4680 H         1 UNK         0.0600 
    220 H220       -6.1110  -20.0447  -50.0427 H         1 UNK         0.3000 
    221 H221       -3.8648  -18.3127  -49.9581 H         1 UNK         0.0600 
    222 H222       -5.3911  -18.6873  -48.0340 H         1 UNK         0.0600 
    223 H223       -6.7124  -17.9012  -48.9010 H         1 UNK         0.0600 
    224 H224       -5.2952  -16.9767  -48.4146 H         1 UNK         0.0600 
    225 H225       -6.3384  -18.3692  -52.2754 H         1 UNK         0.3000 
    226 H226       -6.2634  -15.5991  -53.1351 H         1 UNK         0.0600 
    227 H227       -7.1142  -18.1695  -54.5827 H         1 UNK         0.0600 
    228 H228       -8.1777  -17.1160  -53.6487 H         1 UNK         0.0600 
    229 H229       -7.4397  -16.5295  -55.1289 H         1 UNK         0.0600 
    230 H230       -3.9360  -18.0667  -53.2182 H         1 UNK         0.3000 
    231 H231       -1.9305  -18.2872  -54.0548 H         1 UNK         0.0600 
    232 H232       -2.1610  -15.6383  -55.5555 H         1 UNK         0.0600 
    233 H233       -0.6936  -16.5191  -55.1647 H         1 UNK         0.0600 
    234 H234       -1.6443  -15.8010  -53.8759 H         1 UNK         0.0600 
    235 H235       -4.3729  -19.2186  -55.3668 H         1 UNK         0.3000 
    236 H236       -3.3755  -19.9238  -58.0917 H         1 UNK         0.0600 
    237 H237       -5.7416  -19.1512  -57.9417 H         1 UNK         0.0600 
    238 H238       -5.6651  -20.8495  -58.3842 H         1 UNK         0.0600 
    239 H239       -6.0911  -20.3906  -56.7385 H         1 UNK         0.0600 
    240 H240       -1.6280  -20.8277  -56.4455 H         1 UNK         0.3000 
    241 H241       -2.2764  -22.9531  -54.7458 H         1 UNK         0.0600 
    242 H242       -1.6542  -25.0461  -58.1422 H         1 UNK         0.3800 
    243 H243       -1.9480  -23.3269  -58.1714 H         1 UNK         0.3800 
    244 H244        0.5249  -22.3776  -55.7792 H         1 UNK         0.0800 
    245 H245        0.0984  -23.1458  -54.2781 H         1 UNK         0.0800 
    246 H246       -1.5475  -21.3030  -52.2944 H         1 UNK         0.0800 
    247 H247        0.0251  -22.0688  -52.1730 H         1 UNK         0.0800 
@<TRIPOS>BOND
     1    1    2 1    
     2    1  127 1    
     3    1  128 1    
     4    1  129 1    
     5    2    3 2    
     6    2    4 am   BACKBONE|DICT|INTERRES
     7    4    5 1    
     8    4  130 1    
     9    5    6 1    
    10    5   65 1    
    11    5  131 1    
    12    6    7 1    
    13    6  132 1    
    14    6  133 1    
    15    7    8 1    
    16    8    9 1    
    17    8  134 1    
    18    8  135 1    
    19    9   10 ar   
    20    9   14 ar   
    21   10   11 ar   
    22   10  136 1    
    23   11   12 ar   
    24   11  126 1    
    25   12   13 ar   
    26   12  137 1    
    27   13   14 ar   
    28   13   15 1    
    29   14  138 1    
    30   15   16 1    
    31   15  139 1    
    32   15  140 1    
    33   16   17 1    
    34   17   18 1    
    35   17  141 1    
    36   17  142 1    
    37   18   19 1    
    38   18   67 1    
    39   18  143 1    
    40   19   20 am   BACKBONE|DICT|INTERRES
    41   19  144 1    
    42   20   21 2    
    43   20   22 1    
    44   22   23 1    
    45   22   24 1    
    46   22  145 1    
    47   23  146 1    
    48   23  147 1    
    49   23  148 1    
    50   24   25 am   BACKBONE|DICT|INTERRES
    51   24  149 1    
    52   25   26 2    
    53   25   27 1    
    54   27   28 1    
    55   27   29 1    
    56   27  150 1    
    57   28  151 1    
    58   28  152 1    
    59   28  153 1    
    60   29   30 am   BACKBONE|DICT|INTERRES
    61   29  154 1    
    62   30   31 2    
    63   30   32 1    
    64   32   33 1    
    65   32   34 1    
    66   32  155 1    
    67   33  156 1    
    68   33  157 1    
    69   33  158 1    
    70   34   35 am   BACKBONE|DICT|INTERRES
    71   34  159 1    
    72   35   36 2    
    73   35   37 1    
    74   37   38 1    
    75   37   39 1    
    76   37  160 1    
    77   38  161 1    
    78   38  162 1    
    79   38  163 1    
    80   39   40 am   BACKBONE|DICT|INTERRES
    81   39  164 1    
    82   40   41 2    
    83   40   42 1    
    84   42   43 1    
    85   42   44 1    
    86   42  165 1    
    87   43  166 1    
    88   43  167 1    
    89   43  168 1    
    90   44   45 am   BACKBONE|DICT|INTERRES
    91   44  169 1    
    92   45   46 2    
    93   45   47 1    
    94   47   48 1    
    95   47   49 1    
    96   47  170 1    
    97   48  171 1    
    98   48  172 1    
    99   48  173 1    
   100   49   50 am   BACKBONE|DICT|INTERRES
   101   49  174 1    
   102   50   51 2    
   103   50   52 1    
   104   52   53 1    
   105   52   54 1    
   106   52  175 1    
   107   53  176 1    
   108   53  177 1    
   109   53  178 1    
   110   54   55 am   BACKBONE|DICT|INTERRES
   111   54  179 1    
   112   55   56 2    
   113   55   57 1    
   114   57   58 1    
   115   57   59 1    
   116   57  180 1    
   117   58  181 1    
   118   58  182 1    
   119   58  183 1    
   120   59   60 am   BACKBONE|DICT|INTERRES
   121   59  184 1    
   122   60   61 2    
   123   60   62 1    
   124   62   63 1    
   125   62   64 1    
   126   62  185 1    
   127   63  186 1    
   128   63  187 1    
   129   63  188 1    
   130   64   65 am   BACKBONE|DICT|INTERRES
   131   64  189 1    
   132   65   66 2    
   133   67   68 2    
   134   67   69 am   BACKBONE|DICT|INTERRES
   135   69   70 1    
   136   69  190 1    
   137   70   71 1    
   138   70   72 1    
   139   70  191 1    
   140   71  192 1    
   141   71  193 1    
   142   71  194 1    
   143   72   73 2    
   144   72   74 am   BACKBONE|DICT|INTERRES
   145   74   75 1    
   146   74  195 1    
   147   75   76 1    
   148   75   77 1    
   149   75  196 1    
   150   76  197 1    
   151   76  198 1    
   152   76  199 1    
   153   77   78 2    
   154   77   79 am   BACKBONE|DICT|INTERRES
   155   79   80 1    
   156   79  200 1    
   157   80   81 1    
   158   80   82 1    
   159   80  201 1    
   160   81  202 1    
   161   81  203 1    
   162   81  204 1    
   163   82   83 2    
   164   82   84 am   BACKBONE|DICT|INTERRES
   165   84   85 1    
   166   84  205 1    
   167   85   86 1    
   168   85   87 1    
   169   85  206 1    
   170   86  207 1    
   171   86  208 1    
   172   86  209 1    
   173   87   88 2    
   174   87   89 am   BACKBONE|DICT|INTERRES
   175   89   90 1    
   176   89  210 1    
   177   90   91 1    
   178   90   92 1    
   179   90  211 1    
   180   91  212 1    
   181   91  213 1    
   182   91  214 1    
   183   92   93 2    
   184   92   94 am   BACKBONE|DICT|INTERRES
   185   94   95 1    
   186   94  215 1    
   187   95   96 1    
   188   95   97 1    
   189   95  216 1    
   190   96  217 1    
   191   96  218 1    
   192   96  219 1    
   193   97   98 2    
   194   97   99 am   BACKBONE|DICT|INTERRES
   195   99  100 1    
   196   99  220 1    
   197  100  101 1    
   198  100  102 1    
   199  100  221 1    
   200  101  222 1    
   201  101  223 1    
   202  101  224 1    
   203  102  103 2    
   204  102  104 am   BACKBONE|DICT|INTERRES
   205  104  105 1    
   206  104  225 1    
   207  105  106 1    
   208  105  107 1    
   209  105  226 1    
   210  106  227 1    
   211  106  228 1    
   212  106  229 1    
   213  107  108 2    
   214  107  109 am   BACKBONE|DICT|INTERRES
   215  109  110 1    
   216  109  230 1    
   217  110  111 1    
   218  110  112 1    
   219  110  231 1    
   220  111  232 1    
   221  111  233 1    
   222  111  234 1    
   223  112  113 2    
   224  112  114 am   BACKBONE|DICT|INTERRES
   225  114  115 1    
   226  114  235 1    
   227  115  116 1    
   228  115  117 1    
   229  115  236 1    
   230  116  237 1    
   231  116  238 1    
   232  116  239 1    
   233  117  118 2    
   234  117  119 am   BACKBONE|DICT|INTERRES
   235  119  120 1    
   236  119  240 1    
   237  120  121 1    
   238  120  124 1    
   239  120  241 1    
   240  121  122 am   BACKBONE|DICT|INTERRES
   241  121  123 2    
   242  122  242 1    
   243  122  243 1    
   244  124  125 1    
   245  124  244 1    
   246  124  245 1    
   247  125  126 1    
   248  126  246 1    
   249  126  247 1    
@<TRIPOS>SUBSTRUCTURE
     1 UNK         1 GROUP             0       ****    0 ROOT    
