@<TRIPOS>MOLECULE
3R540
247   249    1
SMALL
USER_CHARGES


@<TRIPOS>ATOM
      1 CA          7.9011  -11.4214  -49.1384 C.3       0 UNK        -0.1800 
      2 C           7.3177  -12.0984  -47.9058 C.2       0 UNK         0.5000 
      3 O           7.8367  -11.9174  -46.8036 O.2       0 UNK        -0.5000 
      4 N           6.2497  -12.8832  -48.0894 N.am      1 UNK        -0.5000 
      5 CA          5.5032  -13.5545  -47.0212 C.3       1 UNK         0.1400 
      6 C6          4.7138  -14.7760  -47.5599 C.3       23 UNK        -0.0398 
      7 S7          3.5117  -14.3905  -48.8779 S.3       23 UNK        -0.2404 
      8 C8          2.9182  -16.0659  -49.2748 C.3       23 UNK        -0.0205 
      9 C9          1.5863  -16.0303  -50.0104 C.ar      23 UNK        -0.0193 
     10 C10         1.4734  -16.5327  -51.3103 C.ar      23 UNK        -0.1150 
     11 C11         0.2478  -16.4888  -51.9835 C.ar      23 UNK        -0.0193 
     12 C12        -0.8715  -15.9465  -51.3447 C.ar      23 UNK        -0.1150 
     13 C13        -0.7725  -15.4491  -50.0426 C.ar      23 UNK        -0.0193 
     14 C14         0.4581  -15.4952  -49.3827 C.ar      23 UNK        -0.1150 
     15 C15        -1.9841  -14.8363  -49.3543 C.3       23 UNK        -0.0205 
     16 S16        -3.1882  -16.0875  -48.8041 S.3       23 UNK        -0.2404 
     17 C17        -2.1901  -17.1147  -47.6750 C.3       23 UNK        -0.0398 
     18 CA         -2.0588  -18.5720  -48.1893 C.3       11 UNK         0.1400 
     19 N          -0.6953  -19.0966  -48.0693 N.am      11 UNK        -0.5000 
     20 C          -0.2681  -20.2120  -48.6805 C.2       10 UNK         0.5000 
     21 O          -0.9752  -20.9084  -49.4050 O.2       10 UNK        -0.5000 
     22 CA          1.1747  -20.6580  -48.3921 C.3       10 UNK         0.1400 
     23 CB          2.1582  -19.9452  -49.3307 C.3       10 UNK        -0.1800 
     24 N           1.5714  -20.4295  -47.0035 N.am      10 UNK        -0.5000 
     25 C           0.9991  -20.9906  -45.9315 C.2       9 UNK         0.5000 
     26 O           0.0584  -21.7814  -45.9994 O.2       9 UNK        -0.5000 
     27 CA          1.5313  -20.5683  -44.5517 C.3       9 UNK         0.1400 
     28 CB          2.8383  -21.3018  -44.2002 C.3       9 UNK        -0.1800 
     29 N           1.6620  -19.1170  -44.3873 N.am      9 UNK        -0.5000 
     30 C           2.5063  -18.2559  -44.9743 C.2       8 UNK         0.5000 
     31 O           3.3397  -18.5681  -45.8252 O.2       8 UNK        -0.5000 
     32 CA          2.3740  -16.7833  -44.5504 C.3       8 UNK         0.1400 
     33 CB          1.3435  -16.0744  -45.4396 C.3       8 UNK        -0.1800 
     34 N           1.9735  -16.6312  -43.1530 N.am      8 UNK        -0.5000 
     35 C           2.7192  -16.9732  -42.0927 C.2       7 UNK         0.5000 
     36 O           3.8735  -17.3945  -42.1699 O.2       7 UNK        -0.5000 
     37 CA          2.0458  -16.8435  -40.7160 C.3       7 UNK         0.1400 
     38 CB          2.1708  -15.4104  -40.1777 C.3       7 UNK        -0.1800 
     39 N           0.6336  -17.2238  -40.7730 N.am      7 UNK        -0.5000 
     40 C           0.1952  -18.4899  -40.8214 C.2       6 UNK         0.5000 
     41 O           0.9327  -19.4734  -40.7574 O.2       6 UNK        -0.5000 
     42 CA         -1.3217  -18.6934  -40.9892 C.3       6 UNK         0.1400 
     43 CB         -2.0162  -18.7376  -39.6200 C.3       6 UNK        -0.1800 
     44 N          -1.9462  -17.6569  -41.8121 N.am      6 UNK        -0.5000 
     45 C          -1.7801  -17.5414  -43.1360 C.2       5 UNK         0.5000 
     46 O          -1.0889  -18.3028  -43.8137 O.2       5 UNK        -0.5000 
     47 CA         -2.4903  -16.3597  -43.8172 C.3       5 UNK         0.1400 
     48 CB         -3.9306  -16.7471  -44.1876 C.3       5 UNK        -0.1800 
     49 N          -2.5042  -15.1213  -43.0335 N.am      5 UNK        -0.5000 
     50 C          -1.4125  -14.4626  -42.6243 C.2       4 UNK         0.5000 
     51 O          -0.2640  -14.8929  -42.7460 O.2       4 UNK        -0.5000 
     52 CA         -1.6358  -13.1015  -41.9494 C.3       4 UNK         0.1400 
     53 CB         -1.2822  -13.1676  -40.4558 C.3       4 UNK        -0.1800 
     54 N          -0.8109  -12.0850  -42.5986 N.am      4 UNK        -0.5000 
     55 C          -1.1232  -11.4781  -43.7523 C.2       3 UNK         0.5000 
     56 O          -2.1833  -11.6582  -44.3530 O.2       3 UNK        -0.5000 
     57 CA         -0.0808  -10.5016  -44.3322 C.3       3 UNK         0.1400 
     58 CB         -0.3230   -9.0796  -43.8028 C.3       3 UNK        -0.1800 
     59 N           1.2969  -10.8983  -44.0313 N.am      3 UNK        -0.5000 
     60 C           1.9406  -11.8987  -44.6466 C.2       2 UNK         0.5000 
     61 O           1.4536  -12.5593  -45.5658 O.2       2 UNK        -0.5000 
     62 CA          3.3476  -12.2258  -44.1045 C.3       2 UNK         0.1400 
     63 CB          3.2317  -13.0203  -42.7939 C.3       2 UNK        -0.1800 
     64 N           4.1785  -12.9945  -45.0350 N.am      2 UNK        -0.5000 
     65 C           4.6171  -12.5638  -46.2258 C.2       1 UNK         0.5000 
     66 O           4.3669  -11.4431  -46.6807 O.2       1 UNK        -0.5000 
     67 C          -3.0851  -19.4992  -47.5063 C.2       11 UNK         0.5000 
     68 O          -4.1447  -19.7608  -48.0753 O.2       11 UNK        -0.5000 
     69 N          -2.7366  -20.0096  -46.3145 N.am      12 UNK        -0.5000 
     70 CA         -3.5400  -20.9854  -45.5777 C.3       12 UNK         0.1400 
     71 CB         -2.9774  -21.1691  -44.1602 C.3       12 UNK        -0.1800 
     72 C          -3.6376  -22.3303  -46.3177 C.2       12 UNK         0.5000 
     73 O          -4.7296  -22.8888  -46.4120 O.2       12 UNK        -0.5000 
     74 N          -2.5119  -22.7978  -46.8759 N.am      13 UNK        -0.5000 
     75 CA         -2.4428  -23.9971  -47.7103 C.3       13 UNK         0.1400 
     76 CB         -0.9777  -24.3382  -48.0144 C.3       13 UNK        -0.1800 
     77 C          -3.2572  -23.8656  -49.0096 C.2       13 UNK         0.5000 
     78 O          -3.9330  -24.8204  -49.3914 O.2       13 UNK        -0.5000 
     79 N          -3.2051  -22.6895  -49.6497 N.am      14 UNK        -0.5000 
     80 CA         -3.9978  -22.3452  -50.8303 C.3       14 UNK         0.1400 
     81 CB         -3.5336  -20.9921  -51.3915 C.3       14 UNK        -0.1800 
     82 C          -5.5074  -22.3255  -50.5341 C.2       14 UNK         0.5000 
     83 O          -6.2826  -22.8941  -51.3024 O.2       14 UNK        -0.5000 
     84 N          -5.8934  -21.7106  -49.4062 N.am      15 UNK        -0.5000 
     85 CA         -7.2731  -21.6513  -48.9167 C.3       15 UNK         0.1400 
     86 CB         -7.3523  -20.6859  -47.7244 C.3       15 UNK        -0.1800 
     87 C          -7.8394  -23.0337  -48.5388 C.2       15 UNK         0.5000 
     88 O          -9.0062  -23.3105  -48.8186 O.2       15 UNK        -0.5000 
     89 N          -6.9961  -23.8855  -47.9404 N.am      16 UNK        -0.5000 
     90 CA         -7.3077  -25.2742  -47.5937 C.3       16 UNK         0.1400 
     91 CB         -6.2841  -25.7623  -46.5558 C.3       16 UNK        -0.1800 
     92 C          -7.3260  -26.2280  -48.8065 C.2       16 UNK         0.5000 
     93 O          -7.7830  -27.3628  -48.6650 O.2       16 UNK        -0.5000 
     94 N          -6.8047  -25.7695  -49.9547 N.am      17 UNK        -0.5000 
     95 CA         -6.5784  -26.5123  -51.1997 C.3       17 UNK         0.1400 
     96 CB         -7.9074  -26.9984  -51.8144 C.3       17 UNK        -0.1800 
     97 C          -5.5280  -27.6367  -51.0549 C.2       17 UNK         0.5000 
     98 O          -5.5467  -28.6043  -51.8179 O.2       17 UNK        -0.5000 
     99 N          -4.6140  -27.4764  -50.0889 N.am      18 UNK        -0.5000 
    100 CA        -3.4234  -28.3055  -49.9067 C.3       18 UNK         0.1400 
    101 CB        -2.9576  -28.1972  -48.4465 C.3       18 UNK        -0.1800 
    102 C         -2.3020  -27.8754  -50.8707 C.2       18 UNK         0.5000 
    103 O         -1.5268  -28.7187  -51.3228 O.2       18 UNK        -0.5000 
    104 N         -2.2670  -26.5760  -51.1857 N.am      19 UNK        -0.5000 
    105 CA        -1.4815  -25.9709  -52.2548 C.3       19 UNK         0.1400 
    106 CB        -0.6171  -24.8447  -51.6615 C.3       19 UNK        -0.1800 
    107 C         -2.4437  -25.4176  -53.3199 C.2       19 UNK         0.5000 
    108 O         -3.6590  -25.3834  -53.1041 O.2       19 UNK        -0.5000 
    109 N         -1.8815  -24.9836  -54.4538 N.am      20 UNK        -0.5000 
    110 CA        -2.6084  -24.3110  -55.5310 C.3       20 UNK         0.1400 
    111 CB        -1.6693  -24.1474  -56.7362 C.3       20 UNK        -0.1800 
    112 C         -3.1547  -22.9396  -55.0892 C.2       20 UNK         0.5000 
    113 O         -2.5549  -22.2841  -54.2338 O.2       20 UNK        -0.5000 
    114 N         -4.2656  -22.5184  -55.7049 N.am      21 UNK        -0.5000 
    115 CA        -4.9270  -21.2342  -55.4726 C.3       21 UNK         0.1400 
    116 CB        -6.3755  -21.3247  -55.9848 C.3       21 UNK        -0.1800 
    117 C         -4.1414  -20.0739  -56.1181 C.2       21 UNK         0.5000 
    118 O         -4.5410  -19.5598  -57.1645 O.2       21 UNK        -0.5000 
    119 N         -3.0109  -19.7151  -55.5001 N.am      22 UNK        -0.5000 
    120 CA        -2.0748  -18.6806  -55.9668 C.3       22 UNK         0.1400 
    121 C         -2.5849  -17.2105  -55.8767 C.2       22 UNK         0.5000 
    122 N         -3.6815  -16.9246  -55.1855 N.am      22 UNK        -0.7600 
    123 O         -1.9766  -16.3142  -56.4554 O.2       22 UNK        -0.5000 
    124 C124       -0.6715  -18.8581  -55.3290 C.3       23 UNK        -0.0398 
    125 S125       -0.6265  -18.6349  -53.5129 S.3       23 UNK        -0.2404 
    126 C126        0.1384  -16.9861  -53.4156 C.3       23 UNK        -0.0205 
    127 H127        7.3498  -11.6810  -50.0426 H         1 UNK         0.0600 
    128 H128        7.8704  -10.3382  -49.0209 H         1 UNK         0.0600 
    129 H129        8.9400  -11.7217  -49.2758 H         1 UNK         0.0600 
    130 H130        5.8431  -12.9644  -49.0106 H         1 UNK         0.3000 
    131 H131        6.2372  -13.9447  -46.3124 H         1 UNK         0.0600 
    132 H132        4.1899  -15.2813  -46.7482 H         1 UNK         0.0800 
    133 H133        5.4185  -15.5102  -47.9533 H         1 UNK         0.0800 
    134 H134        3.6774  -16.5777  -49.8683 H         1 UNK         0.0800 
    135 H135        2.8020  -16.6479  -48.3609 H         1 UNK         0.0800 
    136 H136        2.3412  -16.9475  -51.8035 H         1 UNK         0.1150 
    137 H137       -1.8194  -15.9079  -51.8633 H         1 UNK         0.1150 
    138 H138        0.5453  -15.0978  -48.3813 H         1 UNK         0.1150 
    139 H139       -1.6776  -14.2352  -48.4966 H         1 UNK         0.0800 
    140 H140       -2.4794  -14.1504  -50.0430 H         1 UNK         0.0800 
    141 H141       -2.6530  -17.0709  -46.6913 H         1 UNK         0.0800 
    142 H142       -1.2114  -16.6565  -47.5416 H         1 UNK         0.0800 
    143 H143       -2.2852  -18.5844  -49.2583 H         1 UNK         0.0600 
    144 H144       -0.0522  -18.5942  -47.4777 H         1 UNK         0.3000 
    145 H145        1.2357  -21.7311  -48.5835 H         1 UNK         0.0600 
    146 H146        3.1752  -20.3117  -49.1905 H         1 UNK         0.0600 
    147 H147        1.8921  -20.1110  -50.3757 H         1 UNK         0.0600 
    148 H148        2.1627  -18.8693  -49.1615 H         1 UNK         0.0600 
    149 H149        2.3372  -19.7820  -46.8353 H         1 UNK         0.3000 
    150 H150        0.7801  -20.8741  -43.8214 H         1 UNK         0.0600 
    151 H151        2.6945  -22.3826  -44.2245 H         1 UNK         0.0600 
    152 H152        3.1760  -21.0405  -43.1971 H         1 UNK         0.0600 
    153 H153        3.6427  -21.0653  -44.8971 H         1 UNK         0.0600 
    154 H154        0.9494  -18.7087  -43.7927 H         1 UNK         0.3000 
    155 H155        3.3440  -16.3001  -44.6783 H         1 UNK         0.0600 
    156 H156        1.1816  -15.0497  -45.1119 H         1 UNK         0.0600 
    157 H157        0.3785  -16.5802  -45.4239 H         1 UNK         0.0600 
    158 H158        1.6786  -16.0345  -46.4737 H         1 UNK         0.0600 
    159 H159        1.0645  -16.2061  -42.9883 H         1 UNK         0.3000 
    160 H160        2.5631  -17.5110  -40.0235 H         1 UNK         0.0600 
    161 H161        1.6748  -14.6912  -40.8282 H         1 UNK         0.0600 
    162 H162        3.2174  -15.1132  -40.1002 H         1 UNK         0.0600 
    163 H163        1.7323  -15.3222  -39.1837 H         1 UNK         0.0600 
    164 H164       -0.0339  -16.4743  -40.8813 H         1 UNK         0.3000 
    165 H165       -1.4740  -19.6576  -41.4796 H         1 UNK         0.0600 
    166 H166       -1.9170  -17.7916  -39.0863 H         1 UNK         0.0600 
    167 H167       -3.0793  -18.9553  -39.7243 H         1 UNK         0.0600 
    168 H168       -1.5864  -19.5172  -38.9895 H         1 UNK         0.0600 
    169 H169       -2.5338  -16.9865  -41.3387 H         1 UNK         0.3000 
    170 H170       -1.9417  -16.1443  -44.7347 H         1 UNK         0.0600 
    171 H171       -3.9592  -17.6870  -44.7407 H         1 UNK         0.0600 
    172 H172       -4.5532  -16.8743  -43.3013 H         1 UNK         0.0600 
    173 H173       -4.3935  -15.9869  -44.8172 H         1 UNK         0.0600 
    174 H174       -3.4096  -14.6996  -42.8837 H         1 UNK         0.3000 
    175 H175       -2.6877  -12.8212  -42.0379 H         1 UNK         0.0600 
    176 H176       -1.4915  -12.2187  -39.9615 H         1 UNK         0.0600 
    177 H177       -1.8688  -13.9341  -39.9478 H         1 UNK         0.0600 
    178 H178       -0.2294  -13.3996  -40.2966 H         1 UNK         0.0600 
    179 H179        0.0982  -11.9173  -42.1960 H         1 UNK         0.3000 
    180 H180       -0.2097  -10.4845  -45.4168 H         1 UNK         0.0600 
    181 H181       -0.1968   -9.0241  -42.7209 H         1 UNK         0.0600 
    182 H182       -1.3357   -8.7452  -44.0325 H         1 UNK         0.0600 
    183 H183        0.3642   -8.3666  -44.2589 H         1 UNK         0.0600 
    184 H184        1.7615  -10.3925  -43.2909 H         1 UNK         0.3000 
    185 H185        3.8622  -11.2845  -43.9006 H         1 UNK         0.0600 
    186 H186        4.2125  -13.2590  -42.3822 H         1 UNK         0.0600 
    187 H187        2.6921  -12.4557  -42.0329 H         1 UNK         0.0600 
    188 H188        2.6937  -13.9552  -42.9476 H         1 UNK         0.0600 
    189 H189        4.4242  -13.9245  -44.7331 H         1 UNK         0.3000 
    190 H190       -1.8421  -19.7669  -45.9133 H         1 UNK         0.3000 
    191 H191       -4.5528  -20.5872  -45.4866 H         1 UNK         0.0600 
    192 H192       -3.0552  -20.2471  -43.5856 H         1 UNK         0.0600 
    193 H193       -3.5324  -21.9340  -43.6157 H         1 UNK         0.0600 
    194 H194       -1.9297  -21.4701  -44.1730 H         1 UNK         0.0600 
    195 H195       -1.6386  -22.3051  -46.7081 H         1 UNK         0.3000 
    196 H196       -2.8684  -24.8220  -47.1356 H         1 UNK         0.0600 
    197 H197       -0.9045  -25.2696  -48.5768 H         1 UNK         0.0600 
    198 H198       -0.4038  -24.4672  -47.0965 H         1 UNK         0.0600 
    199 H199       -0.4956  -23.5578  -48.6033 H         1 UNK         0.0600 
    200 H200       -2.5568  -21.9789  -49.3217 H         1 UNK         0.3000 
    201 H201       -3.8167  -23.1064  -51.5912 H         1 UNK         0.0600 
    202 H202       -2.4914  -21.0353  -51.7085 H         1 UNK         0.0600 
    203 H203       -3.6260  -20.1926  -50.6576 H         1 UNK         0.0600 
    204 H204       -4.1232  -20.7048  -52.2611 H         1 UNK         0.0600 
    205 H205       -5.1944  -21.2248  -48.8509 H         1 UNK         0.3000 
    206 H206       -7.8931  -21.2490  -49.7204 H         1 UNK         0.0600 
    207 H207       -7.0276  -19.6842  -48.0066 H         1 UNK         0.0600 
    208 H208       -8.3749  -20.6046  -47.3540 H         1 UNK         0.0600 
    209 H209       -6.7272  -21.0179  -46.8952 H         1 UNK         0.0600 
    210 H210       -6.0753  -23.5499  -47.6718 H         1 UNK         0.3000 
    211 H211       -8.2993  -25.3040  -47.1376 H         1 UNK         0.0600 
    212 H212       -5.2700  -25.7497  -46.9568 H         1 UNK         0.0600 
    213 H213       -6.4995  -26.7837  -46.2396 H         1 UNK         0.0600 
    214 H214       -6.2989  -25.1371  -45.6628 H         1 UNK         0.0600 
    215 H215       -6.4458  -24.8232  -49.9547 H         1 UNK         0.3000 
    216 H216       -6.1448  -25.7916  -51.8942 H         1 UNK         0.0600 
    217 H217       -8.6249  -26.1819  -51.8964 H         1 UNK         0.0600 
    218 H218       -8.3648  -27.7911  -51.2222 H         1 UNK         0.0600 
    219 H219       -7.7504  -27.3927  -52.8189 H         1 UNK         0.0600 
    220 H220       -4.6374  -26.6057  -49.5669 H         1 UNK         0.3000 
    221 H221       -3.6738  -29.3479  -50.1141 H         1 UNK         0.0600 
    222 H222       -2.6901  -27.1738  -48.1826 H         1 UNK         0.0600 
    223 H223       -3.7374  -28.5264  -47.7595 H         1 UNK         0.0600 
    224 H224       -2.0815  -28.8222  -48.2696 H         1 UNK         0.0600 
    225 H225       -2.9903  -25.9798  -50.7981 H         1 UNK         0.3000 
    226 H226       -0.8334  -26.7113  -52.7278 H         1 UNK         0.0600 
    227 H227        0.0307  -25.2210  -50.8700 H         1 UNK         0.0600 
    228 H228        0.0284  -24.4013  -52.4202 H         1 UNK         0.0600 
    229 H229       -1.2262  -24.0416  -51.2464 H         1 UNK         0.0600 
    230 H230       -0.8770  -25.0147  -54.5455 H         1 UNK         0.3000 
    231 H231       -3.4481  -24.9454  -55.8227 H         1 UNK         0.0600 
    232 H232       -2.1848  -23.6763  -57.5742 H         1 UNK         0.0600 
    233 H233       -1.3012  -25.1126  -57.0846 H         1 UNK         0.0600 
    234 H234       -0.8065  -23.5261  -56.4919 H         1 UNK         0.0600 
    235 H235       -4.6746  -23.1011  -56.4210 H         1 UNK         0.3000 
    236 H236       -4.9719  -21.0502  -54.3981 H         1 UNK         0.0600 
    237 H237       -6.9044  -20.3837  -55.8276 H         1 UNK         0.0600 
    238 H238       -6.4159  -21.5509  -57.0510 H         1 UNK         0.0600 
    239 H239       -6.9312  -22.0998  -55.4566 H         1 UNK         0.0600 
    240 H240       -2.7197  -20.2471  -54.6872 H         1 UNK         0.3000 
    241 H241       -1.9434  -18.8592  -57.0359 H         1 UNK         0.0600 
    242 H242       -4.1849  -17.6507  -54.7031 H         1 UNK         0.3800 
    243 H243       -4.0066  -15.9718  -55.1406 H         1 UNK         0.3800 
    244 H244       -0.3047  -19.8628  -55.5439 H         1 UNK         0.0800 
    245 H245        0.0463  -18.1860  -55.8023 H         1 UNK         0.0800 
    246 H246        1.1250  -17.0194  -53.8804 H         1 UNK         0.0800 
    247 H247       -0.4501  -16.2746  -53.9964 H         1 UNK         0.0800 
@<TRIPOS>BOND
     1    1    2 1    
     2    1  127 1    
     3    1  128 1    
     4    1  129 1    
     5    2    3 2    
     6    2    4 am   BACKBONE|DICT|INTERRES
     7    4    5 1    
     8    4  130 1    
     9    5    6 1    
    10    5   65 1    
    11    5  131 1    
    12    6    7 1    
    13    6  132 1    
    14    6  133 1    
    15    7    8 1    
    16    8    9 1    
    17    8  134 1    
    18    8  135 1    
    19    9   10 ar   
    20    9   14 ar   
    21   10   11 ar   
    22   10  136 1    
    23   11   12 ar   
    24   11  126 1    
    25   12   13 ar   
    26   12  137 1    
    27   13   14 ar   
    28   13   15 1    
    29   14  138 1    
    30   15   16 1    
    31   15  139 1    
    32   15  140 1    
    33   16   17 1    
    34   17   18 1    
    35   17  141 1    
    36   17  142 1    
    37   18   19 1    
    38   18   67 1    
    39   18  143 1    
    40   19   20 am   BACKBONE|DICT|INTERRES
    41   19  144 1    
    42   20   21 2    
    43   20   22 1    
    44   22   23 1    
    45   22   24 1    
    46   22  145 1    
    47   23  146 1    
    48   23  147 1    
    49   23  148 1    
    50   24   25 am   BACKBONE|DICT|INTERRES
    51   24  149 1    
    52   25   26 2    
    53   25   27 1    
    54   27   28 1    
    55   27   29 1    
    56   27  150 1    
    57   28  151 1    
    58   28  152 1    
    59   28  153 1    
    60   29   30 am   BACKBONE|DICT|INTERRES
    61   29  154 1    
    62   30   31 2    
    63   30   32 1    
    64   32   33 1    
    65   32   34 1    
    66   32  155 1    
    67   33  156 1    
    68   33  157 1    
    69   33  158 1    
    70   34   35 am   BACKBONE|DICT|INTERRES
    71   34  159 1    
    72   35   36 2    
    73   35   37 1    
    74   37   38 1    
    75   37   39 1    
    76   37  160 1    
    77   38  161 1    
    78   38  162 1    
    79   38  163 1    
    80   39   40 am   BACKBONE|DICT|INTERRES
    81   39  164 1    
    82   40   41 2    
    83   40   42 1    
    84   42   43 1    
    85   42   44 1    
    86   42  165 1    
    87   43  166 1    
    88   43  167 1    
    89   43  168 1    
    90   44   45 am   BACKBONE|DICT|INTERRES
    91   44  169 1    
    92   45   46 2    
    93   45   47 1    
    94   47   48 1    
    95   47   49 1    
    96   47  170 1    
    97   48  171 1    
    98   48  172 1    
    99   48  173 1    
   100   49   50 am   BACKBONE|DICT|INTERRES
   101   49  174 1    
   102   50   51 2    
   103   50   52 1    
   104   52   53 1    
   105   52   54 1    
   106   52  175 1    
   107   53  176 1    
   108   53  177 1    
   109   53  178 1    
   110   54   55 am   BACKBONE|DICT|INTERRES
   111   54  179 1    
   112   55   56 2    
   113   55   57 1    
   114   57   58 1    
   115   57   59 1    
   116   57  180 1    
   117   58  181 1    
   118   58  182 1    
   119   58  183 1    
   120   59   60 am   BACKBONE|DICT|INTERRES
   121   59  184 1    
   122   60   61 2    
   123   60   62 1    
   124   62   63 1    
   125   62   64 1    
   126   62  185 1    
   127   63  186 1    
   128   63  187 1    
   129   63  188 1    
   130   64   65 am   BACKBONE|DICT|INTERRES
   131   64  189 1    
   132   65   66 2    
   133   67   68 2    
   134   67   69 am   BACKBONE|DICT|INTERRES
   135   69   70 1    
   136   69  190 1    
   137   70   71 1    
   138   70   72 1    
   139   70  191 1    
   140   71  192 1    
   141   71  193 1    
   142   71  194 1    
   143   72   73 2    
   144   72   74 am   BACKBONE|DICT|INTERRES
   145   74   75 1    
   146   74  195 1    
   147   75   76 1    
   148   75   77 1    
   149   75  196 1    
   150   76  197 1    
   151   76  198 1    
   152   76  199 1    
   153   77   78 2    
   154   77   79 am   BACKBONE|DICT|INTERRES
   155   79   80 1    
   156   79  200 1    
   157   80   81 1    
   158   80   82 1    
   159   80  201 1    
   160   81  202 1    
   161   81  203 1    
   162   81  204 1    
   163   82   83 2    
   164   82   84 am   BACKBONE|DICT|INTERRES
   165   84   85 1    
   166   84  205 1    
   167   85   86 1    
   168   85   87 1    
   169   85  206 1    
   170   86  207 1    
   171   86  208 1    
   172   86  209 1    
   173   87   88 2    
   174   87   89 am   BACKBONE|DICT|INTERRES
   175   89   90 1    
   176   89  210 1    
   177   90   91 1    
   178   90   92 1    
   179   90  211 1    
   180   91  212 1    
   181   91  213 1    
   182   91  214 1    
   183   92   93 2    
   184   92   94 am   BACKBONE|DICT|INTERRES
   185   94   95 1    
   186   94  215 1    
   187   95   96 1    
   188   95   97 1    
   189   95  216 1    
   190   96  217 1    
   191   96  218 1    
   192   96  219 1    
   193   97   98 2    
   194   97   99 am   BACKBONE|DICT|INTERRES
   195   99  100 1    
   196   99  220 1    
   197  100  101 1    
   198  100  102 1    
   199  100  221 1    
   200  101  222 1    
   201  101  223 1    
   202  101  224 1    
   203  102  103 2    
   204  102  104 am   BACKBONE|DICT|INTERRES
   205  104  105 1    
   206  104  225 1    
   207  105  106 1    
   208  105  107 1    
   209  105  226 1    
   210  106  227 1    
   211  106  228 1    
   212  106  229 1    
   213  107  108 2    
   214  107  109 am   BACKBONE|DICT|INTERRES
   215  109  110 1    
   216  109  230 1    
   217  110  111 1    
   218  110  112 1    
   219  110  231 1    
   220  111  232 1    
   221  111  233 1    
   222  111  234 1    
   223  112  113 2    
   224  112  114 am   BACKBONE|DICT|INTERRES
   225  114  115 1    
   226  114  235 1    
   227  115  116 1    
   228  115  117 1    
   229  115  236 1    
   230  116  237 1    
   231  116  238 1    
   232  116  239 1    
   233  117  118 2    
   234  117  119 am   BACKBONE|DICT|INTERRES
   235  119  120 1    
   236  119  240 1    
   237  120  121 1    
   238  120  124 1    
   239  120  241 1    
   240  121  122 am   BACKBONE|DICT|INTERRES
   241  121  123 2    
   242  122  242 1    
   243  122  243 1    
   244  124  125 1    
   245  124  244 1    
   246  124  245 1    
   247  125  126 1    
   248  126  246 1    
   249  126  247 1    
@<TRIPOS>SUBSTRUCTURE
     1 UNK         1 GROUP             0       ****    0 ROOT    
