@<TRIPOS>MOLECULE
3R540
247   249    1
SMALL
USER_CHARGES


@<TRIPOS>ATOM
      1 CA         -4.9144  -14.7710  -51.2016 C.3       0 UNK        -0.1800 
      2 C          -3.4864  -14.2420  -51.2018 C.2       0 UNK         0.5000 
      3 O          -2.9789  -13.8453  -52.2509 O.2       0 UNK        -0.5000 
      4 N          -2.8384  -14.2355  -50.0344 N.am      1 UNK        -0.5000 
      5 CA         -1.4557  -13.8136  -49.8210 C.3       1 UNK         0.1400 
      6 C6         -0.4539  -14.8930  -50.3180 C.3       23 UNK        -0.0398 
      7 S7          1.2330  -14.2685  -50.6332 S.3       23 UNK        -0.2404 
      8 C8          2.2510  -15.6120  -49.9188 C.3       23 UNK        -0.0205 
      9 C9          2.1395  -16.9776  -50.6057 C.ar      23 UNK        -0.0193 
     10 C10         1.5759  -17.1409  -51.8781 C.ar      23 UNK        -0.1150 
     11 C11         1.4865  -18.4034  -52.4679 C.ar      23 UNK        -0.0193 
     12 C12         2.0013  -19.5140  -51.7958 C.ar      23 UNK        -0.1150 
     13 C13         2.5894  -19.3706  -50.5354 C.ar      23 UNK        -0.0193 
     14 C14         2.6432  -18.1034  -49.9442 C.ar      23 UNK        -0.1150 
     15 C15         3.2045  -20.5746  -49.8308 C.3       23 UNK        -0.0205 
     16 S16         2.0267  -21.9426  -49.5893 S.3       23 UNK        -0.2404 
     17 C17         0.9028  -21.2168  -48.3561 C.3       23 UNK        -0.0398 
     18 CA         -0.1118  -22.2537  -47.8298 C.3       11 UNK         0.1400 
     19 N           0.5156  -23.3585  -47.0985 N.am      11 UNK        -0.5000 
     20 C          -0.0993  -24.5257  -46.8585 C.2       10 UNK         0.5000 
     21 O          -1.2406  -24.7819  -47.2359 O.2       10 UNK        -0.5000 
     22 CA          0.6579  -25.5679  -46.0175 C.3       10 UNK         0.1400 
     23 CB          1.5655  -26.4253  -46.9115 C.3       10 UNK        -0.1800 
     24 N           1.4545  -24.9810  -44.9415 N.am      10 UNK        -0.5000 
     25 C           0.9755  -24.2194  -43.9491 C.2       9 UNK         0.5000 
     26 O          -0.2140  -23.9226  -43.8282 O.2       9 UNK        -0.5000 
     27 CA          1.9948  -23.6681  -42.9342 C.3       9 UNK         0.1400 
     28 CB          3.3412  -24.4259  -42.9268 C.3       9 UNK        -0.1800 
     29 N           2.2332  -22.2320  -43.1032 N.am      9 UNK        -0.5000 
     30 C           2.6282  -21.5818  -44.2090 C.2       8 UNK         0.5000 
     31 O           2.7241  -22.1116  -45.3176 O.2       8 UNK        -0.5000 
     32 CA          2.9686  -20.0824  -44.0607 C.3       8 UNK         0.1400 
     33 CB          2.2936  -19.2370  -45.1510 C.3       8 UNK        -0.1800 
     34 N           2.6159  -19.5209  -42.7543 N.am      8 UNK        -0.5000 
     35 C           3.3565  -19.5952  -41.6426 C.2       7 UNK         0.5000 
     36 O           4.4221  -20.2095  -41.5760 O.2       7 UNK        -0.5000 
     37 CA          2.8098  -18.8321  -40.4167 C.3       7 UNK         0.1400 
     38 CB          3.6533  -19.0604  -39.1495 C.3       7 UNK        -0.1800 
     39 N           2.7284  -17.3930  -40.6752 N.am      7 UNK        -0.5000 
     40 C           1.7903  -16.7874  -41.4131 C.2       6 UNK         0.5000 
     41 O           0.8594  -17.3850  -41.9594 O.2       6 UNK        -0.5000 
     42 CA          1.9696  -15.2758  -41.6290 C.3       6 UNK         0.1400 
     43 CB          2.8197  -15.0205  -42.8840 C.3       6 UNK        -0.1800 
     44 N           0.6872  -14.5924  -41.7789 N.am      6 UNK        -0.5000 
     45 C          -0.1829  -14.3723  -40.7847 C.2       5 UNK         0.5000 
     46 O           0.0226  -14.7019  -39.6155 O.2       5 UNK        -0.5000 
     47 CA         -1.4951  -13.6560  -41.1429 C.3       5 UNK         0.1400 
     48 CB         -1.2844  -12.1338  -41.1766 C.3       5 UNK        -0.1800 
     49 N          -2.0209  -14.0920  -42.4370 N.am      5 UNK        -0.5000 
     50 C          -3.2399  -14.6130  -42.6347 C.2       4 UNK         0.5000 
     51 O          -4.0615  -14.7960  -41.7355 O.2       4 UNK        -0.5000 
     52 CA         -3.6258  -14.9785  -44.0836 C.3       4 UNK         0.1400 
     53 CB         -4.3589  -13.7961  -44.7386 C.3       4 UNK        -0.1800 
     54 N          -2.4812  -15.3437  -44.9188 N.am      4 UNK        -0.5000 
     55 C          -1.6969  -16.4144  -44.7258 C.2       3 UNK         0.5000 
     56 O          -1.9765  -17.3200  -43.9423 O.2       3 UNK        -0.5000 
     57 CA         -0.3736  -16.4898  -45.5230 C.3       3 UNK         0.1400 
     58 CB         -0.4732  -17.5606  -46.6223 C.3       3 UNK        -0.1800 
     59 N           0.0426  -15.2395  -46.1645 N.am      3 UNK        -0.5000 
     60 C           0.2007  -14.0308  -45.6056 C.2       2 UNK         0.5000 
     61 O           0.1163  -13.8185  -44.3968 O.2       2 UNK        -0.5000 
     62 CA          0.4054  -12.8456  -46.5709 C.3       2 UNK         0.1400 
     63 CB          1.8854  -12.4378  -46.6001 C.3       2 UNK        -0.1800 
     64 N          -0.0442  -13.1055  -47.9451 N.am      2 UNK        -0.5000 
     65 C          -1.2763  -13.4733  -48.3269 C.2       1 UNK         0.5000 
     66 O          -2.2214  -13.5960  -47.5407 O.2       1 UNK        -0.5000 
     67 C          -1.2006  -21.5725  -46.9830 C.2       11 UNK         0.5000 
     68 O          -2.2489  -21.2273  -47.5230 O.2       11 UNK        -0.5000 
     69 N          -0.9650  -21.4280  -45.6704 N.am      12 UNK        -0.5000 
     70 CA         -1.9449  -20.8868  -44.7252 C.3       12 UNK         0.1400 
     71 CB         -1.2852  -20.6467  -43.3583 C.3       12 UNK        -0.1800 
     72 C          -3.1849  -21.7911  -44.6117 C.2       12 UNK         0.5000 
     73 O          -4.3101  -21.2931  -44.6834 O.2       12 UNK        -0.5000 
     74 N          -2.9448  -23.1072  -44.5124 N.am      13 UNK        -0.5000 
     75 CA         -3.9663  -24.1547  -44.5290 C.3       13 UNK         0.1400 
     76 CB         -3.3069  -25.5113  -44.2398 C.3       13 UNK        -0.1800 
     77 C          -4.7613  -24.2030  -45.8484 C.2       13 UNK         0.5000 
     78 O          -5.9781  -24.3915  -45.8155 O.2       13 UNK        -0.5000 
     79 N          -4.0802  -23.9819  -46.9814 N.am      14 UNK        -0.5000 
     80 CA         -4.6484  -23.8892  -48.3289 C.3       14 UNK         0.1400 
     81 CB         -3.5423  -24.1744  -49.3576 C.3       14 UNK        -0.1800 
     82 C          -5.3628  -22.5436  -48.5876 C.2       14 UNK         0.5000 
     83 O          -5.0859  -21.8713  -49.5857 O.2       14 UNK        -0.5000 
     84 N          -6.2931  -22.1971  -47.6878 N.am      15 UNK        -0.5000 
     85 CA         -7.2046  -21.0525  -47.7306 C.3       15 UNK         0.1400 
     86 CB         -8.2600  -21.2669  -48.8367 C.3       15 UNK        -0.1800 
     87 C          -6.4766  -19.6997  -47.8534 C.2       15 UNK         0.5000 
     88 O          -6.8486  -18.8808  -48.6939 O.2       15 UNK        -0.5000 
     89 N          -5.4312  -19.4979  -47.0351 N.am      16 UNK        -0.5000 
     90 CA         -4.5657  -18.3093  -47.0313 C.3       16 UNK         0.1400 
     91 CB         -5.3383  -17.0769  -46.5224 C.3       16 UNK        -0.1800 
     92 C          -3.8929  -18.0667  -48.4000 C.2       16 UNK         0.5000 
     93 O          -3.8688  -16.9420  -48.8987 O.2       16 UNK        -0.5000 
     94 N          -3.3847  -19.1599  -48.9783 N.am      17 UNK        -0.5000 
     95 CA         -2.7392  -19.3179  -50.2797 C.3       17 UNK         0.1400 
     96 CB         -1.5521  -18.3571  -50.4471 C.3       17 UNK        -0.1800 
     97 C          -3.6858  -19.2610  -51.4929 C.2       17 UNK         0.5000 
     98 O          -3.2146  -19.4686  -52.6133 O.2       17 UNK        -0.5000 
     99 N          -4.9913  -19.0358  -51.2850 N.am      18 UNK        -0.5000 
    100 CA        -5.9835  -18.9684  -52.3606 C.3       18 UNK         0.1400 
    101 CB        -7.3128  -18.4246  -51.8193 C.3       18 UNK        -0.1800 
    102 C         -6.1976  -20.3156  -53.0755 C.2       18 UNK         0.5000 
    103 O         -6.4542  -20.3169  -54.2801 O.2       18 UNK        -0.5000 
    104 N         -6.0630  -21.4306  -52.3416 N.am      19 UNK        -0.5000 
    105 CA        -6.1153  -22.7812  -52.9049 C.3       19 UNK         0.1400 
    106 CB        -6.7905  -23.7336  -51.9058 C.3       19 UNK        -0.1800 
    107 C         -4.7195  -23.2945  -53.3092 C.2       19 UNK         0.5000 
    108 O         -4.6392  -24.2356  -54.0994 O.2       19 UNK        -0.5000 
    109 N         -3.6486  -22.6774  -52.7829 N.am      20 UNK        -0.5000 
    110 CA        -2.2636  -22.9661  -53.1675 C.3       20 UNK         0.1400 
    111 CB        -1.2828  -22.3819  -52.1364 C.3       20 UNK        -0.1800 
    112 C         -1.9488  -22.4266  -54.5727 C.2       20 UNK         0.5000 
    113 O         -1.3275  -23.1317  -55.3684 O.2       20 UNK        -0.5000 
    114 N         -2.3948  -21.1904  -54.8451 N.am      21 UNK        -0.5000 
    115 CA        -2.3445  -20.4361  -56.1056 C.3       21 UNK         0.1400 
    116 CB        -3.1287  -21.1606  -57.2153 C.3       21 UNK        -0.1800 
    117 C         -0.9348  -20.0382  -56.5919 C.2       21 UNK         0.5000 
    118 O         -0.7799  -18.9255  -57.0938 O.2       21 UNK        -0.5000 
    119 N          0.0440  -20.9393  -56.4374 N.am      22 UNK        -0.5000 
    120 CA         1.4983  -20.8560  -56.6956 C.3       22 UNK         0.1400 
    121 C          1.9971  -20.3441  -58.0839 C.2       22 UNK         0.5000 
    122 N          1.1646  -19.7570  -58.9296 N.am      22 UNK        -0.7600 
    123 O          3.1653  -20.5259  -58.4175 O.2       22 UNK        -0.5000 
    124 C124        2.2936  -20.2441  -55.5072 C.3       23 UNK        -0.0398 
    125 S125        1.9763  -18.4723  -55.1959 S.3       23 UNK        -0.2404 
    126 C126        0.7966  -18.5582  -53.8134 C.3       23 UNK        -0.0205 
    127 H127       -5.2904  -14.9160  -50.1883 H         1 UNK         0.0600 
    128 H128       -5.5779  -14.0737  -51.7129 H         1 UNK         0.0600 
    129 H129       -4.9574  -15.7301  -51.7183 H         1 UNK         0.0600 
    130 H130       -3.3010  -14.5673  -49.1950 H         1 UNK         0.3000 
    131 H131       -1.2984  -12.8887  -50.3799 H         1 UNK         0.0600 
    132 H132       -0.7970  -15.3092  -51.2657 H         1 UNK         0.0800 
    133 H133       -0.4200  -15.7335  -49.6233 H         1 UNK         0.0800 
    134 H134        1.9995  -15.7145  -48.8621 H         1 UNK         0.0800 
    135 H135        3.2954  -15.2998  -49.9553 H         1 UNK         0.0800 
    136 H136        1.1909  -16.2916  -52.4220 H         1 UNK         0.1150 
    137 H137        1.9442  -20.4928  -52.2498 H         1 UNK         0.1150 
    138 H138        3.0977  -17.9880  -48.9700 H         1 UNK         0.1150 
    139 H139        4.0394  -20.9370  -50.4318 H         1 UNK         0.0800 
    140 H140        3.6245  -20.2919  -48.8642 H         1 UNK         0.0800 
    141 H141        1.4912  -20.8069  -47.5368 H         1 UNK         0.0800 
    142 H142        0.3896  -20.3765  -48.8273 H         1 UNK         0.0800 
    143 H143       -0.6146  -22.6776  -48.7013 H         1 UNK         0.0600 
    144 H144        1.4416  -23.1939  -46.7201 H         1 UNK         0.3000 
    145 H145       -0.0853  -26.2219  -45.5572 H         1 UNK         0.0600 
    146 H146        2.0400  -27.2247  -46.3421 H         1 UNK         0.0600 
    147 H147        0.9930  -26.8942  -47.7130 H         1 UNK         0.0600 
    148 H148        2.3525  -25.8292  -47.3756 H         1 UNK         0.0600 
    149 H149        2.4504  -25.1411  -44.9791 H         1 UNK         0.3000 
    150 H150        1.5403  -23.7955  -41.9507 H         1 UNK         0.0600 
    151 H151        3.1919  -25.4962  -42.7772 H         1 UNK         0.0600 
    152 H152        3.9760  -24.0760  -42.1125 H         1 UNK         0.0600 
    153 H153        3.8984  -24.2907  -43.8545 H         1 UNK         0.0600 
    154 H154        2.1496  -21.6807  -42.2623 H         1 UNK         0.3000 
    155 H155        4.0485  -19.9907  -44.1935 H         1 UNK         0.0600 
    156 H156        2.6880  -19.4865  -46.1356 H         1 UNK         0.0600 
    157 H157        2.4774  -18.1733  -44.9985 H         1 UNK         0.0600 
    158 H158        1.2162  -19.3957  -45.1683 H         1 UNK         0.0600 
    159 H159        1.7724  -18.9560  -42.7101 H         1 UNK         0.3000 
    160 H160        1.8052  -19.2118  -40.2184 H         1 UNK         0.0600 
    161 H161        4.6723  -18.6905  -39.2697 H         1 UNK         0.0600 
    162 H162        3.7148  -20.1220  -38.9063 H         1 UNK         0.0600 
    163 H163        3.2137  -18.5573  -38.2881 H         1 UNK         0.0600 
    164 H164        3.4825  -16.8363  -40.2994 H         1 UNK         0.3000 
    165 H165        2.4855  -14.8517  -40.7650 H         1 UNK         0.0600 
    166 H166        2.3645  -15.4560  -43.7743 H         1 UNK         0.0600 
    167 H167        2.9500  -13.9531  -43.0635 H         1 UNK         0.0600 
    168 H168        3.8138  -15.4567  -42.7794 H         1 UNK         0.0600 
    169 H169        0.4518  -14.2964  -42.7229 H         1 UNK         0.3000 
    170 H170       -2.2062  -13.8796  -40.3450 H         1 UNK         0.0600 
    171 H171       -0.8840  -11.7725  -40.2285 H         1 UNK         0.0600 
    172 H172       -0.5868  -11.8414  -41.9627 H         1 UNK         0.0600 
    173 H173       -2.2247  -11.6113  -41.3529 H         1 UNK         0.0600 
    174 H174       -1.3962  -13.9977  -43.2317 H         1 UNK         0.3000 
    175 H175       -4.3038  -15.8324  -44.0388 H         1 UNK         0.0600 
    176 H176       -3.7223  -12.9117  -44.7918 H         1 UNK         0.0600 
    177 H177       -4.6803  -14.0300  -45.7529 H         1 UNK         0.0600 
    178 H178       -5.2499  -13.5258  -44.1705 H         1 UNK         0.0600 
    179 H179       -2.2196  -14.6767  -45.6352 H         1 UNK         0.3000 
    180 H180        0.4071  -16.7772  -44.8169 H         1 UNK         0.0600 
    181 H181       -0.7775  -18.5225  -46.2134 H         1 UNK         0.0600 
    182 H182       -1.2043  -17.2828  -47.3815 H         1 UNK         0.0600 
    183 H183        0.4849  -17.7104  -47.1208 H         1 UNK         0.0600 
    184 H184        0.1303  -15.2795  -47.1671 H         1 UNK         0.3000 
    185 H185       -0.1787  -12.0086  -46.1837 H         1 UNK         0.0600 
    186 H186        2.2509  -12.2167  -45.5961 H         1 UNK         0.0600 
    187 H187        2.5128  -13.2300  -47.0109 H         1 UNK         0.0600 
    188 H188        2.0365  -11.5424  -47.2033 H         1 UNK         0.0600 
    189 H189        0.6688  -13.0419  -48.6603 H         1 UNK         0.3000 
    190 H190       -0.1176  -21.8150  -45.2819 H         1 UNK         0.3000 
    191 H191       -2.2823  -19.9210  -45.1030 H         1 UNK         0.0600 
    192 H192       -2.0020  -20.2233  -42.6538 H         1 UNK         0.0600 
    193 H193       -0.4612  -19.9379  -43.4374 H         1 UNK         0.0600 
    194 H194       -0.8989  -21.5658  -42.9191 H         1 UNK         0.0600 
    195 H195       -1.9800  -23.4156  -44.4256 H         1 UNK         0.3000 
    196 H196       -4.6725  -23.9399  -43.7245 H         1 UNK         0.0600 
    197 H197       -4.0507  -26.3084  -44.2072 H         1 UNK         0.0600 
    198 H198       -2.7946  -25.5036  -43.2775 H         1 UNK         0.0600 
    199 H199       -2.5760  -25.7747  -45.0046 H         1 UNK         0.0600 
    200 H200       -3.0736  -23.8770  -46.9228 H         1 UNK         0.3000 
    201 H201       -5.4028  -24.6709  -48.4374 H         1 UNK         0.0600 
    202 H202       -3.0891  -25.1513  -49.1905 H         1 UNK         0.0600 
    203 H203       -2.7555  -23.4242  -49.3034 H         1 UNK         0.0600 
    204 H204       -3.9312  -24.1736  -50.3749 H         1 UNK         0.0600 
    205 H205       -6.4147  -22.8277  -46.9009 H         1 UNK         0.3000 
    206 H206       -7.7258  -21.0335  -46.7726 H         1 UNK         0.0600 
    207 H207       -8.7894  -22.2095  -48.6984 H         1 UNK         0.0600 
    208 H208       -9.0068  -20.4722  -48.8269 H         1 UNK         0.0600 
    209 H209       -7.8091  -21.2807  -49.8293 H         1 UNK         0.0600 
    210 H210       -5.1758  -20.2336  -46.3850 H         1 UNK         0.3000 
    211 H211       -3.7594  -18.5083  -46.3251 H         1 UNK         0.0600 
    212 H212       -6.1727  -16.8163  -47.1737 H         1 UNK         0.0600 
    213 H213       -4.6835  -16.2088  -46.4827 H         1 UNK         0.0600 
    214 H214       -5.7314  -17.2424  -45.5197 H         1 UNK         0.0600 
    215 H215       -3.4227  -20.0244  -48.4441 H         1 UNK         0.3000 
    216 H216       -2.3380  -20.3310  -50.2630 H         1 UNK         0.0600 
    217 H217       -1.8917  -17.3302  -50.5683 H         1 UNK         0.0600 
    218 H218       -0.9803  -18.6135  -51.3369 H         1 UNK         0.0600 
    219 H219       -0.8711  -18.3997  -49.5980 H         1 UNK         0.0600 
    220 H220       -5.3291  -18.9081  -50.3383 H         1 UNK         0.3000 
    221 H221       -5.6123  -18.2582  -53.1026 H         1 UNK         0.0600 
    222 H222       -7.7865  -19.1277  -51.1344 H         1 UNK         0.0600 
    223 H223       -7.1708  -17.4817  -51.2907 H         1 UNK         0.0600 
    224 H224       -8.0160  -18.2407  -52.6323 H         1 UNK         0.0600 
    225 H225       -5.8300  -21.3575  -51.3548 H         1 UNK         0.3000 
    226 H226       -6.7298  -22.7766  -53.8077 H         1 UNK         0.0600 
    227 H227       -7.7693  -23.3607  -51.6034 H         1 UNK         0.0600 
    228 H228       -6.9411  -24.7175  -52.3514 H         1 UNK         0.0600 
    229 H229       -6.1938  -23.8755  -51.0080 H         1 UNK         0.0600 
    230 H230       -3.8030  -21.9040  -52.1542 H         1 UNK         0.3000 
    231 H231       -2.1315  -24.0502  -53.1806 H         1 UNK         0.0600 
    232 H232       -1.2793  -21.2925  -52.1441 H         1 UNK         0.0600 
    233 H233       -1.5176  -22.7137  -51.1268 H         1 UNK         0.0600 
    234 H234       -0.2629  -22.7038  -52.3507 H         1 UNK         0.0600 
    235 H235       -2.8219  -20.6784  -54.0771 H         1 UNK         0.3000 
    236 H236       -2.8693  -19.5025  -55.8959 H         1 UNK         0.0600 
    237 H237       -4.1520  -21.3679  -56.9013 H         1 UNK         0.0600 
    238 H238       -3.1825  -20.5487  -58.1165 H         1 UNK         0.0600 
    239 H239       -2.6642  -22.1073  -57.4923 H         1 UNK         0.0600 
    240 H240       -0.2628  -21.8370  -56.0697 H         1 UNK         0.3000 
    241 H241        1.7864  -21.9078  -56.7177 H         1 UNK         0.0600 
    242 H242        1.4920  -19.4418  -59.8288 H         1 UNK         0.3800 
    243 H243        0.2485  -19.4843  -58.5893 H         1 UNK         0.3800 
    244 H244        3.3656  -20.3643  -55.6721 H         1 UNK         0.0800 
    245 H245        2.0845  -20.8130  -54.6014 H         1 UNK         0.0800 
    246 H246        0.0558  -17.7675  -53.9423 H         1 UNK         0.0800 
    247 H247        0.2349  -19.4929  -53.8413 H         1 UNK         0.0800 
@<TRIPOS>BOND
     1    1    2 1    
     2    1  127 1    
     3    1  128 1    
     4    1  129 1    
     5    2    3 2    
     6    2    4 am   BACKBONE|DICT|INTERRES
     7    4    5 1    
     8    4  130 1    
     9    5    6 1    
    10    5   65 1    
    11    5  131 1    
    12    6    7 1    
    13    6  132 1    
    14    6  133 1    
    15    7    8 1    
    16    8    9 1    
    17    8  134 1    
    18    8  135 1    
    19    9   10 ar   
    20    9   14 ar   
    21   10   11 ar   
    22   10  136 1    
    23   11   12 ar   
    24   11  126 1    
    25   12   13 ar   
    26   12  137 1    
    27   13   14 ar   
    28   13   15 1    
    29   14  138 1    
    30   15   16 1    
    31   15  139 1    
    32   15  140 1    
    33   16   17 1    
    34   17   18 1    
    35   17  141 1    
    36   17  142 1    
    37   18   19 1    
    38   18   67 1    
    39   18  143 1    
    40   19   20 am   BACKBONE|DICT|INTERRES
    41   19  144 1    
    42   20   21 2    
    43   20   22 1    
    44   22   23 1    
    45   22   24 1    
    46   22  145 1    
    47   23  146 1    
    48   23  147 1    
    49   23  148 1    
    50   24   25 am   BACKBONE|DICT|INTERRES
    51   24  149 1    
    52   25   26 2    
    53   25   27 1    
    54   27   28 1    
    55   27   29 1    
    56   27  150 1    
    57   28  151 1    
    58   28  152 1    
    59   28  153 1    
    60   29   30 am   BACKBONE|DICT|INTERRES
    61   29  154 1    
    62   30   31 2    
    63   30   32 1    
    64   32   33 1    
    65   32   34 1    
    66   32  155 1    
    67   33  156 1    
    68   33  157 1    
    69   33  158 1    
    70   34   35 am   BACKBONE|DICT|INTERRES
    71   34  159 1    
    72   35   36 2    
    73   35   37 1    
    74   37   38 1    
    75   37   39 1    
    76   37  160 1    
    77   38  161 1    
    78   38  162 1    
    79   38  163 1    
    80   39   40 am   BACKBONE|DICT|INTERRES
    81   39  164 1    
    82   40   41 2    
    83   40   42 1    
    84   42   43 1    
    85   42   44 1    
    86   42  165 1    
    87   43  166 1    
    88   43  167 1    
    89   43  168 1    
    90   44   45 am   BACKBONE|DICT|INTERRES
    91   44  169 1    
    92   45   46 2    
    93   45   47 1    
    94   47   48 1    
    95   47   49 1    
    96   47  170 1    
    97   48  171 1    
    98   48  172 1    
    99   48  173 1    
   100   49   50 am   BACKBONE|DICT|INTERRES
   101   49  174 1    
   102   50   51 2    
   103   50   52 1    
   104   52   53 1    
   105   52   54 1    
   106   52  175 1    
   107   53  176 1    
   108   53  177 1    
   109   53  178 1    
   110   54   55 am   BACKBONE|DICT|INTERRES
   111   54  179 1    
   112   55   56 2    
   113   55   57 1    
   114   57   58 1    
   115   57   59 1    
   116   57  180 1    
   117   58  181 1    
   118   58  182 1    
   119   58  183 1    
   120   59   60 am   BACKBONE|DICT|INTERRES
   121   59  184 1    
   122   60   61 2    
   123   60   62 1    
   124   62   63 1    
   125   62   64 1    
   126   62  185 1    
   127   63  186 1    
   128   63  187 1    
   129   63  188 1    
   130   64   65 am   BACKBONE|DICT|INTERRES
   131   64  189 1    
   132   65   66 2    
   133   67   68 2    
   134   67   69 am   BACKBONE|DICT|INTERRES
   135   69   70 1    
   136   69  190 1    
   137   70   71 1    
   138   70   72 1    
   139   70  191 1    
   140   71  192 1    
   141   71  193 1    
   142   71  194 1    
   143   72   73 2    
   144   72   74 am   BACKBONE|DICT|INTERRES
   145   74   75 1    
   146   74  195 1    
   147   75   76 1    
   148   75   77 1    
   149   75  196 1    
   150   76  197 1    
   151   76  198 1    
   152   76  199 1    
   153   77   78 2    
   154   77   79 am   BACKBONE|DICT|INTERRES
   155   79   80 1    
   156   79  200 1    
   157   80   81 1    
   158   80   82 1    
   159   80  201 1    
   160   81  202 1    
   161   81  203 1    
   162   81  204 1    
   163   82   83 2    
   164   82   84 am   BACKBONE|DICT|INTERRES
   165   84   85 1    
   166   84  205 1    
   167   85   86 1    
   168   85   87 1    
   169   85  206 1    
   170   86  207 1    
   171   86  208 1    
   172   86  209 1    
   173   87   88 2    
   174   87   89 am   BACKBONE|DICT|INTERRES
   175   89   90 1    
   176   89  210 1    
   177   90   91 1    
   178   90   92 1    
   179   90  211 1    
   180   91  212 1    
   181   91  213 1    
   182   91  214 1    
   183   92   93 2    
   184   92   94 am   BACKBONE|DICT|INTERRES
   185   94   95 1    
   186   94  215 1    
   187   95   96 1    
   188   95   97 1    
   189   95  216 1    
   190   96  217 1    
   191   96  218 1    
   192   96  219 1    
   193   97   98 2    
   194   97   99 am   BACKBONE|DICT|INTERRES
   195   99  100 1    
   196   99  220 1    
   197  100  101 1    
   198  100  102 1    
   199  100  221 1    
   200  101  222 1    
   201  101  223 1    
   202  101  224 1    
   203  102  103 2    
   204  102  104 am   BACKBONE|DICT|INTERRES
   205  104  105 1    
   206  104  225 1    
   207  105  106 1    
   208  105  107 1    
   209  105  226 1    
   210  106  227 1    
   211  106  228 1    
   212  106  229 1    
   213  107  108 2    
   214  107  109 am   BACKBONE|DICT|INTERRES
   215  109  110 1    
   216  109  230 1    
   217  110  111 1    
   218  110  112 1    
   219  110  231 1    
   220  111  232 1    
   221  111  233 1    
   222  111  234 1    
   223  112  113 2    
   224  112  114 am   BACKBONE|DICT|INTERRES
   225  114  115 1    
   226  114  235 1    
   227  115  116 1    
   228  115  117 1    
   229  115  236 1    
   230  116  237 1    
   231  116  238 1    
   232  116  239 1    
   233  117  118 2    
   234  117  119 am   BACKBONE|DICT|INTERRES
   235  119  120 1    
   236  119  240 1    
   237  120  121 1    
   238  120  124 1    
   239  120  241 1    
   240  121  122 am   BACKBONE|DICT|INTERRES
   241  121  123 2    
   242  122  242 1    
   243  122  243 1    
   244  124  125 1    
   245  124  244 1    
   246  124  245 1    
   247  125  126 1    
   248  126  246 1    
   249  126  247 1    
@<TRIPOS>SUBSTRUCTURE
     1 UNK         1 GROUP             0       ****    0 ROOT    
