@<TRIPOS>MOLECULE
3R540
247   249    1
SMALL
USER_CHARGES


@<TRIPOS>ATOM
      1 CA          1.9975   -8.8554  -49.3321 C.3       0 UNK        -0.1800 
      2 C           1.8192  -10.3343  -49.0201 C.2       0 UNK         0.5000 
      3 O           1.9598  -10.7400  -47.8657 O.2       0 UNK        -0.5000 
      4 N           1.4979  -11.1425  -50.0385 N.am      1 UNK        -0.5000 
      5 CA          1.2738  -12.5911  -49.9475 C.3       1 UNK         0.1400 
      6 C6          1.5970  -13.2931  -51.2976 C.3       23 UNK        -0.0398 
      7 S7          2.3930  -14.9212  -51.0905 S.3       23 UNK        -0.2404 
      8 C8          0.9612  -16.0486  -51.1219 C.3       23 UNK        -0.0205 
      9 C9          1.3686  -17.5081  -51.3009 C.ar      23 UNK        -0.0193 
     10 C10         0.7401  -18.2881  -52.2773 C.ar      23 UNK        -0.1150 
     11 C11         1.0815  -19.6326  -52.4461 C.ar      23 UNK        -0.0193 
     12 C12         2.0739  -20.1943  -51.6399 C.ar      23 UNK        -0.1150 
     13 C13         2.7161  -19.4297  -50.6622 C.ar      23 UNK        -0.0193 
     14 C14         2.3511  -18.0906  -50.4897 C.ar      23 UNK        -0.1150 
     15 C15         3.8130  -20.0537  -49.8079 C.3       23 UNK        -0.0205 
     16 S16         3.3047  -20.3093  -48.0775 S.3       23 UNK        -0.2404 
     17 C17         1.8464  -21.3958  -48.2482 C.3       23 UNK        -0.0398 
     18 CA          1.9982  -22.7853  -47.5795 C.3       11 UNK         0.1400 
     19 N           2.3242  -22.6657  -46.1566 N.am      11 UNK        -0.5000 
     20 C           2.7703  -23.6624  -45.3820 C.2       10 UNK         0.5000 
     21 O           3.1283  -24.7572  -45.8223 O.2       10 UNK        -0.5000 
     22 CA          2.7805  -23.3944  -43.8633 C.3       10 UNK         0.1400 
     23 CB          3.6462  -24.3939  -43.0673 C.3       10 UNK        -0.1800 
     24 N           3.1154  -22.0092  -43.5243 N.am      10 UNK        -0.5000 
     25 C           4.2836  -21.3769  -43.7133 C.2       9 UNK         0.5000 
     26 O           5.2798  -21.9132  -44.2005 O.2       9 UNK        -0.5000 
     27 CA          4.3684  -19.8945  -43.2865 C.3       9 UNK         0.1400 
     28 CB          4.6542  -18.9947  -44.4998 C.3       9 UNK        -0.1800 
     29 N           3.1656  -19.4047  -42.6085 N.am      9 UNK        -0.5000 
     30 C           2.8180  -19.6802  -41.3443 C.2       8 UNK         0.5000 
     31 O           3.5203  -20.3305  -40.5697 O.2       8 UNK        -0.5000 
     32 CA          1.4335  -19.1836  -40.8815 C.3       8 UNK         0.1400 
     33 CB          1.5301  -17.7626  -40.3068 C.3       8 UNK        -0.1800 
     34 N           0.4222  -19.2174  -41.9434 N.am      8 UNK        -0.5000 
     35 C          -0.0277  -20.3368  -42.5306 C.2       7 UNK         0.5000 
     36 O           0.3398  -21.4675  -42.2121 O.2       7 UNK        -0.5000 
     37 CA         -1.0028  -20.1684  -43.7113 C.3       7 UNK         0.1400 
     38 CB         -2.4349  -19.9199  -43.2177 C.3       7 UNK        -0.1800 
     39 N          -0.5960  -19.1062  -44.6318 N.am      7 UNK        -0.5000 
     40 C           0.5387  -19.1306  -45.3448 C.2       6 UNK         0.5000 
     41 O           1.3197  -20.0810  -45.3286 O.2       6 UNK        -0.5000 
     42 CA          0.8876  -17.8736  -46.1653 C.3       6 UNK         0.1400 
     43 CB          0.1228  -17.8229  -47.4955 C.3       6 UNK        -0.1800 
     44 N           0.6307  -16.6400  -45.4279 N.am      6 UNK        -0.5000 
     45 C           1.2630  -16.2721  -44.3068 C.2       5 UNK         0.5000 
     46 O           2.1719  -16.9178  -43.7880 O.2       5 UNK        -0.5000 
     47 CA          0.7540  -14.9930  -43.6233 C.3       5 UNK         0.1400 
     48 CB          1.2947  -13.7382  -44.3264 C.3       5 UNK        -0.1800 
     49 N          -0.7077  -14.9470  -43.5798 N.am      5 UNK        -0.5000 
     50 C          -1.4681  -15.7737  -42.8477 C.2       4 UNK         0.5000 
     51 O          -1.0155  -16.6457  -42.1066 O.2       4 UNK        -0.5000 
     52 CA         -2.9921  -15.6236  -42.9984 C.3       4 UNK         0.1400 
     53 CB         -3.5173  -14.4932  -42.1009 C.3       4 UNK        -0.1800 
     54 N          -3.3986  -15.3748  -44.3817 N.am      4 UNK        -0.5000 
     55 C          -3.2791  -16.2660  -45.3758 C.2       3 UNK         0.5000 
     56 O          -2.8181  -17.3967  -45.2332 O.2       3 UNK        -0.5000 
     57 CA         -3.6995  -15.7904  -46.7763 C.3       3 UNK         0.1400 
     58 CB         -5.2245  -15.8703  -46.9348 C.3       3 UNK        -0.1800 
     59 N          -3.2506  -14.4301  -47.0853 N.am      3 UNK        -0.5000 
     60 C          -1.9699  -14.0400  -47.1202 C.2       2 UNK         0.5000 
     61 O          -1.0218  -14.7693  -46.8225 O.2       2 UNK        -0.5000 
     62 CA         -1.7126  -12.5735  -47.5046 C.3       2 UNK         0.1400 
     63 CB         -1.7128  -11.6853  -46.2510 C.3       2 UNK        -0.1800 
     64 N          -0.4381  -12.4070  -48.2006 N.am      2 UNK        -0.5000 
     65 C          -0.1506  -12.8864  -49.4175 C.2       1 UNK         0.5000 
     66 O          -0.9708  -13.4826  -50.1177 O.2       1 UNK        -0.5000 
     67 C           0.6884  -23.5886  -47.7661 C.2       11 UNK         0.5000 
     68 O          -0.0125  -23.8752  -46.7912 O.2       11 UNK        -0.5000 
     69 N           0.3202  -23.8550  -49.0297 N.am      12 UNK        -0.5000 
     70 CA         -0.9547  -24.4658  -49.4378 C.3       12 UNK         0.1400 
     71 CB         -1.0064  -24.5385  -50.9713 C.3       12 UNK        -0.1800 
     72 C          -2.2092  -23.7439  -48.8983 C.2       12 UNK         0.5000 
     73 O          -3.2357  -24.3879  -48.6808 O.2       12 UNK        -0.5000 
     74 N          -2.0804  -22.4382  -48.6213 N.am      13 UNK        -0.5000 
     75 CA         -3.0648  -21.5907  -47.9462 C.3       13 UNK         0.1400 
     76 CB         -2.5010  -20.1679  -47.8425 C.3       13 UNK        -0.1800 
     77 C          -3.4970  -22.0907  -46.5530 C.2       13 UNK         0.5000 
     78 O          -4.6061  -21.7752  -46.1261 O.2       13 UNK        -0.5000 
     79 N          -2.6546  -22.8921  -45.8820 N.am      14 UNK        -0.5000 
     80 CA         -2.9905  -23.5592  -44.6218 C.3       14 UNK         0.1400 
     81 CB         -1.7243  -24.1965  -44.0284 C.3       14 UNK        -0.1800 
     82 C          -4.1039  -24.6168  -44.7755 C.2       14 UNK         0.5000 
     83 O          -4.8359  -24.8609  -43.8158 O.2       14 UNK        -0.5000 
     84 N          -4.2182  -25.2119  -45.9712 N.am      15 UNK        -0.5000 
     85 CA         -5.2577  -26.1754  -46.3287 C.3       15 UNK         0.1400 
     86 CB         -4.6232  -27.3278  -47.1235 C.3       15 UNK        -0.1800 
     87 C          -6.3769  -25.5093  -47.1466 C.2       15 UNK         0.5000 
     88 O          -7.5514  -25.7913  -46.9073 O.2       15 UNK        -0.5000 
     89 N          -5.9998  -24.6424  -48.0976 N.am      16 UNK        -0.5000 
     90 CA         -6.9140  -23.9737  -49.0271 C.3       16 UNK         0.1400 
     91 CB         -6.1118  -23.4622  -50.2348 C.3       16 UNK        -0.1800 
     92 C          -7.7300  -22.8268  -48.3994 C.2       16 UNK         0.5000 
     93 O          -8.7172  -22.4026  -49.0013 O.2       16 UNK        -0.5000 
     94 N          -7.2980  -22.3240  -47.2336 N.am      17 UNK        -0.5000 
     95 CA         -7.8383  -21.2095  -46.4412 C.3       17 UNK         0.1400 
     96 CB         -9.3105  -21.4402  -46.0497 C.3       17 UNK        -0.1800 
     97 C          -7.6317  -19.8238  -47.0843 C.2       17 UNK         0.5000 
     98 O          -7.2515  -18.8852  -46.3845 O.2       17 UNK        -0.5000 
     99 N          -7.8642  -19.7193  -48.3965 N.am      18 UNK        -0.5000 
    100 CA        -7.5000  -18.5791  -49.2331 C.3       18 UNK         0.1400 
    101 CB        -8.3701  -18.6090  -50.4997 C.3       18 UNK        -0.1800 
    102 C         -6.0069  -18.6340  -49.6067 C.2       18 UNK         0.5000 
    103 O         -5.3917  -19.6985  -49.5310 O.2       18 UNK        -0.5000 
    104 N         -5.4589  -17.4937  -50.0485 N.am      19 UNK        -0.5000 
    105 CA        -4.0602  -17.3558  -50.4742 C.3       19 UNK         0.1400 
    106 CB        -3.7296  -15.8642  -50.6439 C.3       19 UNK        -0.1800 
    107 C         -3.7175  -18.1196  -51.7700 C.2       19 UNK         0.5000 
    108 O         -2.5422  -18.3948  -52.0076 O.2       19 UNK        -0.5000 
    109 N         -4.7408  -18.4346  -52.5795 N.am      20 UNK        -0.5000 
    110 CA        -4.6606  -19.0818  -53.8913 C.3       20 UNK         0.1400 
    111 CB        -4.1440  -20.5344  -53.7572 C.3       20 UNK        -0.1800 
    112 C         -3.8794  -18.2088  -54.8987 C.2       20 UNK         0.5000 
    113 O         -4.1250  -17.0019  -54.9624 O.2       20 UNK        -0.5000 
    114 N         -2.9717  -18.8182  -55.6674 N.am      21 UNK        -0.5000 
    115 CA        -2.0897  -18.1436  -56.6187 C.3       21 UNK         0.1400 
    116 CB        -2.8284  -17.8416  -57.9356 C.3       21 UNK        -0.1800 
    117 C         -0.8370  -18.9931  -56.8634 C.2       21 UNK         0.5000 
    118 O          0.2671  -18.4517  -56.8448 O.2       21 UNK        -0.5000 
    119 N         -1.0489  -20.3016  -57.0740 N.am      22 UNK        -0.5000 
    120 CA        -0.0837  -21.4131  -57.2247 C.3       22 UNK         0.1400 
    121 C          1.0726  -21.2834  -58.2669 C.2       22 UNK         0.5000 
    122 N          1.3434  -20.1199  -58.8378 N.am      22 UNK        -0.7600 
    123 O          1.7103  -22.2796  -58.5982 O.2       22 UNK        -0.5000 
    124 C124        0.3939  -21.9936  -55.8638 C.3       23 UNK        -0.0398 
    125 S125        1.4705  -20.8979  -54.8748 S.3       23 UNK        -0.2404 
    126 C126        0.3713  -20.4885  -53.4832 C.3       23 UNK        -0.0205 
    127 H127        1.8425   -8.6422  -50.3900 H         1 UNK         0.0600 
    128 H128        3.0043   -8.5348  -49.0646 H         1 UNK         0.0600 
    129 H129        1.2857   -8.2628  -48.7575 H         1 UNK         0.0600 
    130 H130        1.3589  -10.7391  -50.9544 H         1 UNK         0.3000 
    131 H131        1.9680  -12.9783  -49.1980 H         1 UNK         0.0600 
    132 H132        0.7326  -13.3658  -51.9596 H         1 UNK         0.0800 
    133 H133        2.3202  -12.6964  -51.8554 H         1 UNK         0.0800 
    134 H134        0.2894  -15.7443  -51.9261 H         1 UNK         0.0800 
    135 H135        0.3969  -15.9446  -50.1953 H         1 UNK         0.0800 
    136 H136       -0.0291  -17.8528  -52.8999 H         1 UNK         0.1150 
    137 H137        2.3466  -21.2310  -51.7798 H         1 UNK         0.1150 
    138 H138        2.8386  -17.5003  -49.7267 H         1 UNK         0.1150 
    139 H139        4.1357  -21.0079  -50.2272 H         1 UNK         0.0800 
    140 H140        4.6891  -19.4040  -49.8233 H         1 UNK         0.0800 
    141 H141        1.6215  -21.5152  -49.3063 H         1 UNK         0.0800 
    142 H142        0.9911  -20.8695  -47.8263 H         1 UNK         0.0800 
    143 H143        2.8037  -23.3295  -48.0766 H         1 UNK         0.0600 
    144 H144        2.0527  -21.7876  -45.7207 H         1 UNK         0.3000 
    145 H145        1.7491  -23.5341  -43.5369 H         1 UNK         0.0600 
    146 H146        3.6201  -24.1745  -41.9999 H         1 UNK         0.0600 
    147 H147        3.2817  -25.4135  -43.1968 H         1 UNK         0.0600 
    148 H148        4.6876  -24.3780  -43.3892 H         1 UNK         0.0600 
    149 H149        2.3508  -21.4704  -43.1366 H         1 UNK         0.3000 
    150 H150        5.2103  -19.8072  -42.5970 H         1 UNK         0.0600 
    151 H151        5.5695  -19.2975  -45.0095 H         1 UNK         0.0600 
    152 H152        4.7794  -17.9544  -44.1994 H         1 UNK         0.0600 
    153 H153        3.8453  -19.0375  -45.2288 H         1 UNK         0.0600 
    154 H154        2.5609  -18.7988  -43.1541 H         1 UNK         0.3000 
    155 H155        1.0973  -19.8483  -40.0831 H         1 UNK         0.0600 
    156 H156        2.2636  -17.7152  -39.5010 H         1 UNK         0.0600 
    157 H157        0.5741  -17.4384  -39.8953 H         1 UNK         0.0600 
    158 H158        1.8290  -17.0402  -41.0665 H         1 UNK         0.0600 
    159 H159        0.0403  -18.3218  -42.2330 H         1 UNK         0.3000 
    160 H160       -1.0009  -21.1030  -44.2743 H         1 UNK         0.0600 
    161 H161       -2.5222  -18.9648  -42.6995 H         1 UNK         0.0600 
    162 H162       -2.7516  -20.7009  -42.5256 H         1 UNK         0.0600 
    163 H163       -3.1409  -19.9166  -44.0486 H         1 UNK         0.0600 
    164 H164       -1.2339  -18.3211  -44.7345 H         1 UNK         0.3000 
    165 H165        1.9548  -17.9115  -46.3920 H         1 UNK         0.0600 
    166 H166        0.4293  -16.9573  -48.0812 H         1 UNK         0.0600 
    167 H167        0.3158  -18.7046  -48.1048 H         1 UNK         0.0600 
    168 H168       -0.9534  -17.7492  -47.3398 H         1 UNK         0.0600 
    169 H169       -0.0792  -16.0215  -45.8139 H         1 UNK         0.3000 
    170 H170        1.1240  -14.9922  -42.5958 H         1 UNK         0.0600 
    171 H171        2.3854  -13.7344  -44.3269 H         1 UNK         0.0600 
    172 H172        0.9675  -12.8299  -43.8204 H         1 UNK         0.0600 
    173 H173        0.9692  -13.6803  -45.3654 H         1 UNK         0.0600 
    174 H174       -1.1615  -14.2968  -44.2028 H         1 UNK         0.3000 
    175 H175       -3.4522  -16.5590  -42.6729 H         1 UNK         0.0600 
    176 H176       -3.2409  -14.6624  -41.0593 H         1 UNK         0.0600 
    177 H177       -3.1143  -13.5230  -42.3942 H         1 UNK         0.0600 
    178 H178       -4.6050  -14.4313  -42.1411 H         1 UNK         0.0600 
    179 H179       -3.7817  -14.4650  -44.5912 H         1 UNK         0.3000 
    180 H180       -3.2422  -16.4636  -47.5041 H         1 UNK         0.0600 
    181 H181       -5.5709  -16.8935  -46.7912 H         1 UNK         0.0600 
    182 H182       -5.7417  -15.2434  -46.2075 H         1 UNK         0.0600 
    183 H183       -5.5420  -15.5566  -47.9282 H         1 UNK         0.0600 
    184 H184       -3.9711  -13.7628  -47.3200 H         1 UNK         0.3000 
    185 H185       -2.5095  -12.2404  -48.1727 H         1 UNK         0.0600 
    186 H186       -2.6587  -11.7627  -45.7134 H         1 UNK         0.0600 
    187 H187       -0.9174  -11.9636  -45.5589 H         1 UNK         0.0600 
    188 H188       -1.5747  -10.6360  -46.5126 H         1 UNK         0.0600 
    189 H189        0.2948  -11.9086  -47.7078 H         1 UNK         0.3000 
    190 H190        0.9470  -23.6113  -49.7827 H         1 UNK         0.3000 
    191 H191       -0.9729  -25.4832  -49.0421 H         1 UNK         0.0600 
    192 H192       -0.9562  -23.5471  -51.4236 H         1 UNK         0.0600 
    193 H193       -1.9321  -25.0066  -51.3094 H         1 UNK         0.0600 
    194 H194       -0.1819  -25.1315  -51.3674 H         1 UNK         0.0600 
    195 H195       -1.2025  -21.9998  -48.8494 H         1 UNK         0.3000 
    196 H196       -3.9563  -21.5688  -48.5705 H         1 UNK         0.0600 
    197 H197       -3.2296  -19.4888  -47.3964 H         1 UNK         0.0600 
    198 H198       -2.2441  -19.7696  -48.8241 H         1 UNK         0.0600 
    199 H199       -1.6074  -20.1458  -47.2200 H         1 UNK         0.0600 
    200 H200       -1.7569  -23.1333  -46.2928 H         1 UNK         0.3000 
    201 H201       -3.3495  -22.7999  -43.9244 H         1 UNK         0.0600 
    202 H202       -1.9296  -24.6336  -43.0506 H         1 UNK         0.0600 
    203 H203       -1.3378  -24.9911  -44.6678 H         1 UNK         0.0600 
    204 H204       -0.9305  -23.4621  -43.8947 H         1 UNK         0.0600 
    205 H205       -3.5969  -24.9257  -46.7185 H         1 UNK         0.3000 
    206 H206       -5.7078  -26.5993  -45.4286 H         1 UNK         0.0600 
    207 H207       -3.8644  -27.8407  -46.5323 H         1 UNK         0.0600 
    208 H208       -5.3734  -28.0686  -47.4029 H         1 UNK         0.0600 
    209 H209       -4.1502  -26.9765  -48.0414 H         1 UNK         0.0600 
    210 H210       -5.0062  -24.5015  -48.2657 H         1 UNK         0.3000 
    211 H211       -7.6290  -24.7148  -49.3906 H         1 UNK         0.0600 
    212 H212       -6.7706  -23.0240  -50.9856 H         1 UNK         0.0600 
    213 H213       -5.5628  -24.2712  -50.7170 H         1 UNK         0.0600 
    214 H214       -5.3933  -22.6955  -49.9474 H         1 UNK         0.0600 
    215 H215       -6.4230  -22.6866  -46.8751 H         1 UNK         0.3000 
    216 H216       -7.2578  -21.2091  -45.5173 H         1 UNK         0.0600 
    217 H217       -9.6489  -20.6724  -45.3530 H         1 UNK         0.0600 
    218 H218       -9.4414  -22.4050  -45.5598 H         1 UNK         0.0600 
    219 H219       -9.9756  -21.4079  -46.9128 H         1 UNK         0.0600 
    220 H220       -8.1659  -20.5606  -48.8776 H         1 UNK         0.3000 
    221 H221       -7.6943  -17.6534  -48.6874 H         1 UNK         0.0600 
    222 H222       -8.1938  -19.5114  -51.0871 H         1 UNK         0.0600 
    223 H223       -9.4305  -18.5763  -50.2488 H         1 UNK         0.0600 
    224 H224       -8.1641  -17.7520  -51.1419 H         1 UNK         0.0600 
    225 H225       -6.0309  -16.6640  -50.1105 H         1 UNK         0.3000 
    226 H226       -3.4254  -17.7574  -49.6821 H         1 UNK         0.0600 
    227 H227       -2.6788  -15.7253  -50.9033 H         1 UNK         0.0600 
    228 H228       -4.3246  -15.4083  -51.4361 H         1 UNK         0.0600 
    229 H229       -3.9076  -15.3043  -49.7277 H         1 UNK         0.0600 
    230 H230       -5.6608  -18.1286  -52.3008 H         1 UNK         0.3000 
    231 H231       -5.6831  -19.1323  -54.2677 H         1 UNK         0.0600 
    232 H232       -4.7255  -21.0849  -53.0172 H         1 UNK         0.0600 
    233 H233       -3.0993  -20.5758  -53.4472 H         1 UNK         0.0600 
    234 H234       -4.2360  -21.0765  -54.6988 H         1 UNK         0.0600 
    235 H235       -2.7893  -19.7980  -55.5070 H         1 UNK         0.3000 
    236 H236       -1.7576  -17.1996  -56.1805 H         1 UNK         0.0600 
    237 H237       -3.6587  -17.1539  -57.7752 H         1 UNK         0.0600 
    238 H238       -2.1593  -17.3758  -58.6602 H         1 UNK         0.0600 
    239 H239       -3.2290  -18.7475  -58.3915 H         1 UNK         0.0600 
    240 H240       -2.0105  -20.5912  -57.1730 H         1 UNK         0.3000 
    241 H241       -0.7026  -22.1968  -57.6638 H         1 UNK         0.0600 
    242 H242        0.9173  -19.2842  -58.4525 H         1 UNK         0.3800 
    243 H243        2.0819  -20.0495  -59.5197 H         1 UNK         0.3800 
    244 H244       -0.4758  -22.2744  -55.2688 H         1 UNK         0.0800 
    245 H245        0.9353  -22.9270  -56.0266 H         1 UNK         0.0800 
    246 H246        0.0225  -21.4069  -53.0089 H         1 UNK         0.0800 
    247 H247       -0.5154  -19.9764  -53.8603 H         1 UNK         0.0800 
@<TRIPOS>BOND
     1    1    2 1    
     2    1  127 1    
     3    1  128 1    
     4    1  129 1    
     5    2    3 2    
     6    2    4 am   BACKBONE|DICT|INTERRES
     7    4    5 1    
     8    4  130 1    
     9    5    6 1    
    10    5   65 1    
    11    5  131 1    
    12    6    7 1    
    13    6  132 1    
    14    6  133 1    
    15    7    8 1    
    16    8    9 1    
    17    8  134 1    
    18    8  135 1    
    19    9   10 ar   
    20    9   14 ar   
    21   10   11 ar   
    22   10  136 1    
    23   11   12 ar   
    24   11  126 1    
    25   12   13 ar   
    26   12  137 1    
    27   13   14 ar   
    28   13   15 1    
    29   14  138 1    
    30   15   16 1    
    31   15  139 1    
    32   15  140 1    
    33   16   17 1    
    34   17   18 1    
    35   17  141 1    
    36   17  142 1    
    37   18   19 1    
    38   18   67 1    
    39   18  143 1    
    40   19   20 am   BACKBONE|DICT|INTERRES
    41   19  144 1    
    42   20   21 2    
    43   20   22 1    
    44   22   23 1    
    45   22   24 1    
    46   22  145 1    
    47   23  146 1    
    48   23  147 1    
    49   23  148 1    
    50   24   25 am   BACKBONE|DICT|INTERRES
    51   24  149 1    
    52   25   26 2    
    53   25   27 1    
    54   27   28 1    
    55   27   29 1    
    56   27  150 1    
    57   28  151 1    
    58   28  152 1    
    59   28  153 1    
    60   29   30 am   BACKBONE|DICT|INTERRES
    61   29  154 1    
    62   30   31 2    
    63   30   32 1    
    64   32   33 1    
    65   32   34 1    
    66   32  155 1    
    67   33  156 1    
    68   33  157 1    
    69   33  158 1    
    70   34   35 am   BACKBONE|DICT|INTERRES
    71   34  159 1    
    72   35   36 2    
    73   35   37 1    
    74   37   38 1    
    75   37   39 1    
    76   37  160 1    
    77   38  161 1    
    78   38  162 1    
    79   38  163 1    
    80   39   40 am   BACKBONE|DICT|INTERRES
    81   39  164 1    
    82   40   41 2    
    83   40   42 1    
    84   42   43 1    
    85   42   44 1    
    86   42  165 1    
    87   43  166 1    
    88   43  167 1    
    89   43  168 1    
    90   44   45 am   BACKBONE|DICT|INTERRES
    91   44  169 1    
    92   45   46 2    
    93   45   47 1    
    94   47   48 1    
    95   47   49 1    
    96   47  170 1    
    97   48  171 1    
    98   48  172 1    
    99   48  173 1    
   100   49   50 am   BACKBONE|DICT|INTERRES
   101   49  174 1    
   102   50   51 2    
   103   50   52 1    
   104   52   53 1    
   105   52   54 1    
   106   52  175 1    
   107   53  176 1    
   108   53  177 1    
   109   53  178 1    
   110   54   55 am   BACKBONE|DICT|INTERRES
   111   54  179 1    
   112   55   56 2    
   113   55   57 1    
   114   57   58 1    
   115   57   59 1    
   116   57  180 1    
   117   58  181 1    
   118   58  182 1    
   119   58  183 1    
   120   59   60 am   BACKBONE|DICT|INTERRES
   121   59  184 1    
   122   60   61 2    
   123   60   62 1    
   124   62   63 1    
   125   62   64 1    
   126   62  185 1    
   127   63  186 1    
   128   63  187 1    
   129   63  188 1    
   130   64   65 am   BACKBONE|DICT|INTERRES
   131   64  189 1    
   132   65   66 2    
   133   67   68 2    
   134   67   69 am   BACKBONE|DICT|INTERRES
   135   69   70 1    
   136   69  190 1    
   137   70   71 1    
   138   70   72 1    
   139   70  191 1    
   140   71  192 1    
   141   71  193 1    
   142   71  194 1    
   143   72   73 2    
   144   72   74 am   BACKBONE|DICT|INTERRES
   145   74   75 1    
   146   74  195 1    
   147   75   76 1    
   148   75   77 1    
   149   75  196 1    
   150   76  197 1    
   151   76  198 1    
   152   76  199 1    
   153   77   78 2    
   154   77   79 am   BACKBONE|DICT|INTERRES
   155   79   80 1    
   156   79  200 1    
   157   80   81 1    
   158   80   82 1    
   159   80  201 1    
   160   81  202 1    
   161   81  203 1    
   162   81  204 1    
   163   82   83 2    
   164   82   84 am   BACKBONE|DICT|INTERRES
   165   84   85 1    
   166   84  205 1    
   167   85   86 1    
   168   85   87 1    
   169   85  206 1    
   170   86  207 1    
   171   86  208 1    
   172   86  209 1    
   173   87   88 2    
   174   87   89 am   BACKBONE|DICT|INTERRES
   175   89   90 1    
   176   89  210 1    
   177   90   91 1    
   178   90   92 1    
   179   90  211 1    
   180   91  212 1    
   181   91  213 1    
   182   91  214 1    
   183   92   93 2    
   184   92   94 am   BACKBONE|DICT|INTERRES
   185   94   95 1    
   186   94  215 1    
   187   95   96 1    
   188   95   97 1    
   189   95  216 1    
   190   96  217 1    
   191   96  218 1    
   192   96  219 1    
   193   97   98 2    
   194   97   99 am   BACKBONE|DICT|INTERRES
   195   99  100 1    
   196   99  220 1    
   197  100  101 1    
   198  100  102 1    
   199  100  221 1    
   200  101  222 1    
   201  101  223 1    
   202  101  224 1    
   203  102  103 2    
   204  102  104 am   BACKBONE|DICT|INTERRES
   205  104  105 1    
   206  104  225 1    
   207  105  106 1    
   208  105  107 1    
   209  105  226 1    
   210  106  227 1    
   211  106  228 1    
   212  106  229 1    
   213  107  108 2    
   214  107  109 am   BACKBONE|DICT|INTERRES
   215  109  110 1    
   216  109  230 1    
   217  110  111 1    
   218  110  112 1    
   219  110  231 1    
   220  111  232 1    
   221  111  233 1    
   222  111  234 1    
   223  112  113 2    
   224  112  114 am   BACKBONE|DICT|INTERRES
   225  114  115 1    
   226  114  235 1    
   227  115  116 1    
   228  115  117 1    
   229  115  236 1    
   230  116  237 1    
   231  116  238 1    
   232  116  239 1    
   233  117  118 2    
   234  117  119 am   BACKBONE|DICT|INTERRES
   235  119  120 1    
   236  119  240 1    
   237  120  121 1    
   238  120  124 1    
   239  120  241 1    
   240  121  122 am   BACKBONE|DICT|INTERRES
   241  121  123 2    
   242  122  242 1    
   243  122  243 1    
   244  124  125 1    
   245  124  244 1    
   246  124  245 1    
   247  125  126 1    
   248  126  246 1    
   249  126  247 1    
@<TRIPOS>SUBSTRUCTURE
     1 UNK         1 GROUP             0       ****    0 ROOT    
