@<TRIPOS>MOLECULE
3R540
247   249    1
SMALL
USER_CHARGES


@<TRIPOS>ATOM
      1 CA          6.2534  -11.2885  -48.5875 C.3       0 UNK        -0.1800 
      2 C           5.0597  -11.6305  -47.7072 C.2       0 UNK         0.5000 
      3 O           4.7659  -10.8999  -46.7612 O.2       0 UNK        -0.5000 
      4 N           4.3711  -12.7369  -48.0166 N.am      1 UNK        -0.5000 
      5 CA          3.2061  -13.2355  -47.2708 C.3       1 UNK         0.1400 
      6 C6          2.8956  -14.7256  -47.5730 C.3       23 UNK        -0.0398 
      7 S7          4.3321  -15.8406  -47.4034 S.3       23 UNK        -0.2404 
      8 C8          4.8285  -16.1014  -49.1403 C.3       23 UNK        -0.0205 
      9 C9          3.9408  -17.1059  -49.8637 C.ar      23 UNK        -0.0193 
     10 C10         2.8082  -16.6773  -50.5636 C.ar      23 UNK        -0.1150 
     11 C11         1.9951  -17.5947  -51.2320 C.ar      23 UNK        -0.0193 
     12 C12         2.3434  -18.9483  -51.2326 C.ar      23 UNK        -0.1150 
     13 C13         3.4876  -19.3895  -50.5611 C.ar      23 UNK        -0.0193 
     14 C14         4.2747  -18.4645  -49.8675 C.ar      23 UNK        -0.1150 
     15 C15         3.8944  -20.8569  -50.6182 C.3       23 UNK        -0.0205 
     16 S16         3.5414  -21.7451  -49.0686 S.3       23 UNK        -0.2404 
     17 C17         1.7196  -21.6887  -49.0313 C.3       23 UNK        -0.0398 
     18 CA          1.0744  -22.9229  -48.3609 C.3       11 UNK         0.1400 
     19 N           1.5858  -23.1718  -47.0104 N.am      11 UNK        -0.5000 
     20 C           1.3936  -24.3143  -46.3364 C.2       10 UNK         0.5000 
     21 O           0.7864  -25.2807  -46.7969 O.2       10 UNK        -0.5000 
     22 CA          1.9223  -24.3783  -44.8909 C.3       10 UNK         0.1400 
     23 CB          3.3619  -24.9121  -44.8696 C.3       10 UNK        -0.1800 
     24 N           1.8752  -23.0948  -44.1894 N.am      10 UNK        -0.5000 
     25 C           0.7711  -22.3669  -43.9729 C.2       9 UNK         0.5000 
     26 O          -0.3537  -22.7140  -44.3337 O.2       9 UNK        -0.5000 
     27 CA          0.9516  -21.0096  -43.2674 C.3       9 UNK         0.1400 
     28 CB          2.2356  -20.9182  -42.4148 C.3       9 UNK        -0.1800 
     29 N           0.8927  -19.8758  -44.1926 N.am      9 UNK        -0.5000 
     30 C           1.6176  -19.6739  -45.3045 C.2       8 UNK         0.5000 
     31 O           2.3604  -20.5170  -45.8083 O.2       8 UNK        -0.5000 
     32 CA          1.5241  -18.2753  -45.9447 C.3       8 UNK         0.1400 
     33 CB          0.3813  -18.2008  -46.9634 C.3       8 UNK        -0.1800 
     34 N           1.3371  -17.2063  -44.9642 N.am      8 UNK        -0.5000 
     35 C           2.2412  -16.8269  -44.0502 C.2       7 UNK         0.5000 
     36 O           3.3587  -17.3298  -43.9330 O.2       7 UNK        -0.5000 
     37 CA          1.8124  -15.7012  -43.0955 C.3       7 UNK         0.1400 
     38 CB          1.9501  -14.3291  -43.7711 C.3       7 UNK        -0.1800 
     39 N           0.4331  -15.8843  -42.6464 N.am      7 UNK        -0.5000 
     40 C           0.0764  -16.6403  -41.5991 C.2       6 UNK         0.5000 
     41 O           0.8793  -17.2268  -40.8728 O.2       6 UNK        -0.5000 
     42 CA         -1.4325  -16.7677  -41.3111 C.3       6 UNK         0.1400 
     43 CB         -1.8858  -15.6772  -40.3286 C.3       6 UNK        -0.1800 
     44 N          -2.2612  -16.6992  -42.5159 N.am      6 UNK        -0.5000 
     45 C          -2.2866  -17.6371  -43.4721 C.2       5 UNK         0.5000 
     46 O          -1.6204  -18.6704  -43.4347 O.2       5 UNK        -0.5000 
     47 CA         -3.1684  -17.3494  -44.7009 C.3       5 UNK         0.1400 
     48 CB         -4.5941  -17.8772  -44.4844 C.3       5 UNK        -0.1800 
     49 N          -3.2201  -15.9361  -45.0859 N.am      5 UNK        -0.5000 
     50 C          -2.1546  -15.2098  -45.4465 C.2       4 UNK         0.5000 
     51 O          -0.9931  -15.6208  -45.3897 O.2       4 UNK        -0.5000 
     52 CA         -2.4219  -13.7845  -45.9476 C.3       4 UNK         0.1400 
     53 CB         -1.8660  -12.7468  -44.9606 C.3       4 UNK        -0.1800 
     54 N          -1.7867  -13.6125  -47.2507 N.am      4 UNK        -0.5000 
     55 C          -2.3041  -14.0641  -48.4037 C.2       3 UNK         0.5000 
     56 O          -3.4240  -14.5716  -48.4820 O.2       3 UNK        -0.5000 
     57 CA         -1.4254  -13.9617  -49.6729 C.3       3 UNK         0.1400 
     58 CB         -2.2495  -13.8032  -50.9671 C.3       3 UNK        -0.1800 
     59 N          -0.3716  -12.9452  -49.5913 N.am      3 UNK        -0.5000 
     60 C          -0.5113  -11.6234  -49.4029 C.2       2 UNK         0.5000 
     61 O          -1.5971  -11.0419  -49.3951 O.2       2 UNK        -0.5000 
     62 CA          0.7936  -10.8304  -49.1515 C.3       2 UNK         0.1400 
     63 CB          0.5720   -9.6177  -48.2238 C.3       2 UNK        -0.1800 
     64 N           1.9058  -11.6575  -48.6536 N.am      2 UNK        -0.5000 
     65 C           1.9370  -12.3933  -47.5283 C.2       1 UNK         0.5000 
     66 O           0.9921  -12.4770  -46.7450 O.2       1 UNK        -0.5000 
     67 C          -0.4633  -22.7968  -48.3542 C.2       11 UNK         0.5000 
     68 O          -1.1228  -23.3437  -49.2363 O.2       11 UNK        -0.5000 
     69 N          -1.0156  -22.1304  -47.3290 N.am      12 UNK        -0.5000 
     70 CA         -2.4579  -22.0015  -47.1228 C.3       12 UNK         0.1400 
     71 CB         -2.7451  -20.8672  -46.1321 C.3       12 UNK        -0.1800 
     72 C          -3.1080  -23.3184  -46.6718 C.2       12 UNK         0.5000 
     73 O          -4.2271  -23.6098  -47.0931 O.2       12 UNK        -0.5000 
     74 N          -2.3862  -24.1129  -45.8698 N.am      13 UNK        -0.5000 
     75 CA         -2.7791  -25.4684  -45.4840 C.3       13 UNK         0.1400 
     76 CB         -1.8194  -26.0076  -44.4135 C.3       13 UNK        -0.1800 
     77 C          -2.8497  -26.4140  -46.6978 C.2       13 UNK         0.5000 
     78 O          -3.8377  -27.1331  -46.8459 O.2       13 UNK        -0.5000 
     79 N          -1.8395  -26.3467  -47.5787 N.am      14 UNK        -0.5000 
     80 CA         -1.7917  -27.0698  -48.8534 C.3       14 UNK         0.1400 
     81 CB         -0.4057  -26.8941  -49.4917 C.3       14 UNK        -0.1800 
     82 C          -2.9020  -26.6421  -49.8341 C.2       14 UNK         0.5000 
     83 O          -3.4277  -27.4850  -50.5615 O.2       14 UNK        -0.5000 
     84 N          -3.2683  -25.3533  -49.8048 N.am      15 UNK        -0.5000 
     85 CA         -4.3834  -24.7743  -50.5578 C.3       15 UNK         0.1400 
     86 CB         -4.2031  -23.2488  -50.6205 C.3       15 UNK        -0.1800 
     87 C          -5.7715  -25.1129  -49.9751 C.2       15 UNK         0.5000 
     88 O          -6.7727  -24.7475  -50.5897 O.2       15 UNK        -0.5000 
     89 N          -5.8182  -25.7589  -48.7995 N.am      16 UNK        -0.5000 
     90 CA         -7.0128  -26.0974  -48.0193 C.3       16 UNK         0.1400 
     91 CB         -7.8872  -27.1283  -48.7637 C.3       16 UNK        -0.1800 
     92 C          -7.7928  -24.8457  -47.5633 C.2       16 UNK         0.5000 
     93 O          -9.0231  -24.8200  -47.6296 O.2       16 UNK        -0.5000 
     94 N          -7.0440  -23.8286  -47.1114 N.am      17 UNK        -0.5000 
     95 CA         -7.5035  -22.5264  -46.6179 C.3       17 UNK         0.1400 
     96 CB         -8.3815  -22.6814  -45.3580 C.3       17 UNK        -0.1800 
     97 C          -8.1467  -21.6369  -47.7037 C.2       17 UNK         0.5000 
     98 O          -8.9674  -20.7749  -47.3824 O.2       17 UNK        -0.5000 
     99 N          -7.7404  -21.8364  -48.9656 N.am      18 UNK        -0.5000 
    100 CA        -8.0596  -20.9641  -50.0971 C.3       18 UNK         0.1400 
    101 CB        -8.0808  -21.8021  -51.3894 C.3       18 UNK        -0.1800 
    102 C         -7.0835  -19.7659  -50.1608 C.2       18 UNK         0.5000 
    103 O         -6.5424  -19.3536  -49.1317 O.2       18 UNK        -0.5000 
    104 N         -6.8599  -19.2187  -51.3639 N.am      19 UNK        -0.5000 
    105 CA        -6.0459  -18.0289  -51.6490 C.3       19 UNK         0.1400 
    106 CB        -6.4333  -17.4958  -53.0404 C.3       19 UNK        -0.1800 
    107 C         -4.5194  -18.2435  -51.5068 C.2       19 UNK         0.5000 
    108 O         -3.7517  -17.8447  -52.3838 O.2       19 UNK        -0.5000 
    109 N         -4.0999  -18.8821  -50.4067 N.am      20 UNK        -0.5000 
    110 CA        -2.7205  -19.0914  -49.9474 C.3       20 UNK         0.1400 
    111 CB        -2.0737  -17.7329  -49.6055 C.3       20 UNK        -0.1800 
    112 C         -1.8180  -19.9349  -50.8758 C.2       20 UNK         0.5000 
    113 O         -0.6251  -20.0314  -50.6021 O.2       20 UNK        -0.5000 
    114 N         -2.3875  -20.5185  -51.9398 N.am      21 UNK        -0.5000 
    115 CA        -1.7169  -21.1616  -53.0789 C.3       21 UNK         0.1400 
    116 CB        -0.7360  -22.2769  -52.6490 C.3       21 UNK        -0.1800 
    117 C         -1.0739  -20.1497  -54.0555 C.2       21 UNK         0.5000 
    118 O         -0.1729  -20.5246  -54.8082 O.2       21 UNK        -0.5000 
    119 N         -1.5661  -18.9044  -54.0596 N.am      22 UNK        -0.5000 
    120 CA        -1.2189  -17.8502  -55.0247 C.3       22 UNK         0.1400 
    121 C         -2.4314  -17.5070  -55.9362 C.2       22 UNK         0.5000 
    122 N         -2.2088  -16.7651  -57.0132 N.am      22 UNK        -0.7600 
    123 O         -3.5703  -17.9014  -55.6941 O.2       22 UNK        -0.5000 
    124 C124       -0.6691  -16.5870  -54.3093 C.3       23 UNK        -0.0398 
    125 S125        1.0376  -16.8316  -53.7103 S.3       23 UNK        -0.2404 
    126 C126        0.7380  -17.1247  -51.9462 C.3       23 UNK        -0.0205 
    127 H127        6.1102  -10.3126  -49.0513 H         1 UNK         0.0600 
    128 H128        6.3980  -12.0238  -49.3794 H         1 UNK         0.0600 
    129 H129        7.1630  -11.2520  -47.9880 H         1 UNK         0.0600 
    130 H130        4.6784  -13.3082  -48.7892 H         1 UNK         0.3000 
    131 H131        3.4349  -13.1510  -46.2070 H         1 UNK         0.0600 
    132 H132        2.1256  -15.0896  -46.8903 H         1 UNK         0.0800 
    133 H133        2.4702  -14.8318  -48.5677 H         1 UNK         0.0800 
    134 H134        5.8605  -16.4556  -49.1526 H         1 UNK         0.0800 
    135 H135        4.8349  -15.1516  -49.6756 H         1 UNK         0.0800 
    136 H136        2.5560  -15.6282  -50.5991 H         1 UNK         0.1150 
    137 H137        1.7235  -19.6559  -51.7653 H         1 UNK         0.1150 
    138 H138        5.1571  -18.8025  -49.3425 H         1 UNK         0.1150 
    139 H139        3.3974  -21.3633  -51.4472 H         1 UNK         0.0800 
    140 H140        4.9639  -20.9229  -50.8226 H         1 UNK         0.0800 
    141 H141        1.3570  -21.6027  -50.0559 H         1 UNK         0.0800 
    142 H142        1.4279  -20.7715  -48.5242 H         1 UNK         0.0800 
    143 H143        1.3228  -23.7935  -48.9721 H         1 UNK         0.0600 
    144 H144        2.0741  -22.4024  -46.5619 H         1 UNK         0.3000 
    145 H145        1.2915  -25.0768  -44.3386 H         1 UNK         0.0600 
    146 H146        3.7190  -25.0457  -43.8483 H         1 UNK         0.0600 
    147 H147        3.4259  -25.8821  -45.3647 H         1 UNK         0.0600 
    148 H148        4.0485  -24.2362  -45.3812 H         1 UNK         0.0600 
    149 H149        2.7610  -22.7098  -43.8963 H         1 UNK         0.3000 
    150 H150        0.1003  -20.9014  -42.5937 H         1 UNK         0.0600 
    151 H151        2.3017  -21.7472  -41.7090 H         1 UNK         0.0600 
    152 H152        2.2436  -19.9977  -41.8303 H         1 UNK         0.0600 
    153 H153        3.1393  -20.9228  -43.0252 H         1 UNK         0.0600 
    154 H154        0.2240  -19.1593  -43.9276 H         1 UNK         0.3000 
    155 H155        2.4626  -18.0917  -46.4716 H         1 UNK         0.0600 
    156 H156       -0.5876  -18.3488  -46.4890 H         1 UNK         0.0600 
    157 H157        0.3662  -17.2280  -47.4554 H         1 UNK         0.0600 
    158 H158        0.4876  -18.9535  -47.7415 H         1 UNK         0.0600 
    159 H159        0.4574  -16.6981  -45.0175 H         1 UNK         0.3000 
    160 H160        2.4810  -15.7163  -42.2320 H         1 UNK         0.0600 
    161 H161        1.3168  -14.2477  -44.6546 H         1 UNK         0.0600 
    162 H162        2.9800  -14.1552  -44.0836 H         1 UNK         0.0600 
    163 H163        1.6766  -13.5237  -43.0895 H         1 UNK         0.0600 
    164 H164       -0.2896  -15.4850  -43.2293 H         1 UNK         0.3000 
    165 H165       -1.5972  -17.7400  -40.8416 H         1 UNK         0.0600 
    166 H166       -2.9334  -15.8032  -40.0548 H         1 UNK         0.0600 
    167 H167       -1.3035  -15.7155  -39.4070 H         1 UNK         0.0600 
    168 H168       -1.7659  -14.6789  -40.7514 H         1 UNK         0.0600 
    169 H169       -2.8363  -15.8778  -42.6309 H         1 UNK         0.3000 
    170 H170       -2.7348  -17.8894  -45.5422 H         1 UNK         0.0600 
    171 H171       -4.5826  -18.9322  -44.2066 H         1 UNK         0.0600 
    172 H172       -5.1084  -17.3343  -43.6906 H         1 UNK         0.0600 
    173 H173       -5.1893  -17.7897  -45.3936 H         1 UNK         0.0600 
    174 H174       -4.1395  -15.5252  -45.1597 H         1 UNK         0.3000 
    175 H175       -3.4974  -13.6222  -46.0454 H         1 UNK         0.0600 
    176 H176       -0.7988  -12.8842  -44.7837 H         1 UNK         0.0600 
    177 H177       -2.0136  -11.7323  -45.3313 H         1 UNK         0.0600 
    178 H178       -2.3687  -12.8187  -43.9956 H         1 UNK         0.0600 
    179 H179       -0.8461  -13.2328  -47.2376 H         1 UNK         0.3000 
    180 H180       -0.9043  -14.9174  -49.7372 H         1 UNK         0.0600 
    181 H181       -2.8497  -12.8932  -50.9550 H         1 UNK         0.0600 
    182 H182       -2.9317  -14.6433  -51.1043 H         1 UNK         0.0600 
    183 H183       -1.6030  -13.7688  -51.8439 H         1 UNK         0.0600 
    184 H184        0.5722  -13.3007  -49.5921 H         1 UNK         0.3000 
    185 H185        1.1064  -10.4495  -50.1246 H         1 UNK         0.0600 
    186 H186       -0.1416   -8.9161  -48.6571 H         1 UNK         0.0600 
    187 H187        0.1838   -9.9191  -47.2503 H         1 UNK         0.0600 
    188 H188        1.5014   -9.0723  -48.0596 H         1 UNK         0.0600 
    189 H189        2.7334  -11.6651  -49.2333 H         1 UNK         0.3000 
    190 H190       -0.4182  -21.7881  -46.5903 H         1 UNK         0.3000 
    191 H191       -2.9133  -21.7353  -48.0772 H         1 UNK         0.0600 
    192 H192       -2.2952  -21.0502  -45.1559 H         1 UNK         0.0600 
    193 H193       -3.8180  -20.7405  -45.9827 H         1 UNK         0.0600 
    194 H194       -2.3557  -19.9241  -46.5098 H         1 UNK         0.0600 
    195 H195       -1.5098  -23.7592  -45.4980 H         1 UNK         0.3000 
    196 H196       -3.7774  -25.4114  -45.0450 H         1 UNK         0.0600 
    197 H197       -2.1559  -26.9775  -44.0453 H         1 UNK         0.0600 
    198 H198       -1.7629  -25.3349  -43.5575 H         1 UNK         0.0600 
    199 H199       -0.8110  -26.1402  -44.8033 H         1 UNK         0.0600 
    200 H200       -1.0354  -25.7660  -47.3591 H         1 UNK         0.3000 
    201 H201       -1.9338  -28.1308  -48.6378 H         1 UNK         0.0600 
    202 H202        0.3807  -27.2652  -48.8343 H         1 UNK         0.0600 
    203 H203       -0.1919  -25.8478  -49.7105 H         1 UNK         0.0600 
    204 H204       -0.3340  -27.4469  -50.4292 H         1 UNK         0.0600 
    205 H205       -2.7267  -24.7123  -49.2363 H         1 UNK         0.3000 
    206 H206       -4.3474  -25.1648  -51.5767 H         1 UNK         0.0600 
    207 H207       -3.1959  -22.9838  -50.9306 H         1 UNK         0.0600 
    208 H208       -4.8864  -22.8039  -51.3427 H         1 UNK         0.0600 
    209 H209       -4.3903  -22.7764  -49.6568 H         1 UNK         0.0600 
    210 H210       -4.9387  -26.0017  -48.3603 H         1 UNK         0.3000 
    211 H211       -6.6517  -26.5752  -47.1075 H         1 UNK         0.0600 
    212 H212       -8.3395  -26.7069  -49.6618 H         1 UNK         0.0600 
    213 H213       -8.6980  -27.4834  -48.1267 H         1 UNK         0.0600 
    214 H214       -7.3024  -27.9994  -49.0593 H         1 UNK         0.0600 
    215 H215       -6.0306  -23.9357  -47.1302 H         1 UNK         0.3000 
    216 H216       -6.5987  -21.9985  -46.3128 H         1 UNK         0.0600 
    217 H217       -8.5735  -21.7133  -44.8940 H         1 UNK         0.0600 
    218 H218       -7.8918  -23.3053  -44.6105 H         1 UNK         0.0600 
    219 H219       -9.3487  -23.1283  -45.5887 H         1 UNK         0.0600 
    220 H220       -7.0842  -22.5827  -49.1431 H         1 UNK         0.3000 
    221 H221       -9.0607  -20.5521  -49.9561 H         1 UNK         0.0600 
    222 H222       -7.0851  -22.1436  -51.6698 H         1 UNK         0.0600 
    223 H223       -8.7104  -22.6847  -51.2722 H         1 UNK         0.0600 
    224 H224       -8.4874  -21.2352  -52.2273 H         1 UNK         0.0600 
    225 H225       -7.3134  -19.6367  -52.1633 H         1 UNK         0.3000 
    226 H226       -6.3136  -17.2610  -50.9203 H         1 UNK         0.0600 
    227 H227       -7.5018  -17.2891  -53.1025 H         1 UNK         0.0600 
    228 H228       -5.9129  -16.5634  -53.2639 H         1 UNK         0.0600 
    229 H229       -6.1807  -18.2077  -53.8274 H         1 UNK         0.0600 
    230 H230       -4.8302  -19.1666  -49.7568 H         1 UNK         0.3000 
    231 H231       -2.7931  -19.6547  -49.0188 H         1 UNK         0.0600 
    232 H232       -1.0403  -17.8488  -49.2850 H         1 UNK         0.0600 
    233 H233       -2.6100  -17.2388  -48.7956 H         1 UNK         0.0600 
    234 H234       -2.0644  -17.0597  -50.4621 H         1 UNK         0.0600 
    235 H235       -3.3784  -20.3658  -52.0569 H         1 UNK         0.3000 
    236 H236       -2.5151  -21.6445  -53.6440 H         1 UNK         0.0600 
    237 H237       -0.4347  -22.8779  -53.5074 H         1 UNK         0.0600 
    238 H238        0.1750  -21.8715  -52.2097 H         1 UNK         0.0600 
    239 H239       -1.1822  -22.9569  -51.9263 H         1 UNK         0.0600 
    240 H240       -2.3449  -18.6746  -53.4480 H         1 UNK         0.3000 
    241 H241       -0.4464  -18.2173  -55.7029 H         1 UNK         0.0600 
    242 H242       -1.2856  -16.4384  -57.2541 H         1 UNK         0.3800 
    243 H243       -2.9849  -16.5362  -57.6151 H         1 UNK         0.3800 
    244 H244       -0.6363  -15.7336  -54.9883 H         1 UNK         0.0800 
    245 H245       -1.3245  -16.2894  -53.4885 H         1 UNK         0.0800 
    246 H246       -0.0440  -17.8730  -51.8433 H         1 UNK         0.0800 
    247 H247        0.3551  -16.2129  -51.4868 H         1 UNK         0.0800 
@<TRIPOS>BOND
     1    1    2 1    
     2    1  127 1    
     3    1  128 1    
     4    1  129 1    
     5    2    3 2    
     6    2    4 am   BACKBONE|DICT|INTERRES
     7    4    5 1    
     8    4  130 1    
     9    5    6 1    
    10    5   65 1    
    11    5  131 1    
    12    6    7 1    
    13    6  132 1    
    14    6  133 1    
    15    7    8 1    
    16    8    9 1    
    17    8  134 1    
    18    8  135 1    
    19    9   10 ar   
    20    9   14 ar   
    21   10   11 ar   
    22   10  136 1    
    23   11   12 ar   
    24   11  126 1    
    25   12   13 ar   
    26   12  137 1    
    27   13   14 ar   
    28   13   15 1    
    29   14  138 1    
    30   15   16 1    
    31   15  139 1    
    32   15  140 1    
    33   16   17 1    
    34   17   18 1    
    35   17  141 1    
    36   17  142 1    
    37   18   19 1    
    38   18   67 1    
    39   18  143 1    
    40   19   20 am   BACKBONE|DICT|INTERRES
    41   19  144 1    
    42   20   21 2    
    43   20   22 1    
    44   22   23 1    
    45   22   24 1    
    46   22  145 1    
    47   23  146 1    
    48   23  147 1    
    49   23  148 1    
    50   24   25 am   BACKBONE|DICT|INTERRES
    51   24  149 1    
    52   25   26 2    
    53   25   27 1    
    54   27   28 1    
    55   27   29 1    
    56   27  150 1    
    57   28  151 1    
    58   28  152 1    
    59   28  153 1    
    60   29   30 am   BACKBONE|DICT|INTERRES
    61   29  154 1    
    62   30   31 2    
    63   30   32 1    
    64   32   33 1    
    65   32   34 1    
    66   32  155 1    
    67   33  156 1    
    68   33  157 1    
    69   33  158 1    
    70   34   35 am   BACKBONE|DICT|INTERRES
    71   34  159 1    
    72   35   36 2    
    73   35   37 1    
    74   37   38 1    
    75   37   39 1    
    76   37  160 1    
    77   38  161 1    
    78   38  162 1    
    79   38  163 1    
    80   39   40 am   BACKBONE|DICT|INTERRES
    81   39  164 1    
    82   40   41 2    
    83   40   42 1    
    84   42   43 1    
    85   42   44 1    
    86   42  165 1    
    87   43  166 1    
    88   43  167 1    
    89   43  168 1    
    90   44   45 am   BACKBONE|DICT|INTERRES
    91   44  169 1    
    92   45   46 2    
    93   45   47 1    
    94   47   48 1    
    95   47   49 1    
    96   47  170 1    
    97   48  171 1    
    98   48  172 1    
    99   48  173 1    
   100   49   50 am   BACKBONE|DICT|INTERRES
   101   49  174 1    
   102   50   51 2    
   103   50   52 1    
   104   52   53 1    
   105   52   54 1    
   106   52  175 1    
   107   53  176 1    
   108   53  177 1    
   109   53  178 1    
   110   54   55 am   BACKBONE|DICT|INTERRES
   111   54  179 1    
   112   55   56 2    
   113   55   57 1    
   114   57   58 1    
   115   57   59 1    
   116   57  180 1    
   117   58  181 1    
   118   58  182 1    
   119   58  183 1    
   120   59   60 am   BACKBONE|DICT|INTERRES
   121   59  184 1    
   122   60   61 2    
   123   60   62 1    
   124   62   63 1    
   125   62   64 1    
   126   62  185 1    
   127   63  186 1    
   128   63  187 1    
   129   63  188 1    
   130   64   65 am   BACKBONE|DICT|INTERRES
   131   64  189 1    
   132   65   66 2    
   133   67   68 2    
   134   67   69 am   BACKBONE|DICT|INTERRES
   135   69   70 1    
   136   69  190 1    
   137   70   71 1    
   138   70   72 1    
   139   70  191 1    
   140   71  192 1    
   141   71  193 1    
   142   71  194 1    
   143   72   73 2    
   144   72   74 am   BACKBONE|DICT|INTERRES
   145   74   75 1    
   146   74  195 1    
   147   75   76 1    
   148   75   77 1    
   149   75  196 1    
   150   76  197 1    
   151   76  198 1    
   152   76  199 1    
   153   77   78 2    
   154   77   79 am   BACKBONE|DICT|INTERRES
   155   79   80 1    
   156   79  200 1    
   157   80   81 1    
   158   80   82 1    
   159   80  201 1    
   160   81  202 1    
   161   81  203 1    
   162   81  204 1    
   163   82   83 2    
   164   82   84 am   BACKBONE|DICT|INTERRES
   165   84   85 1    
   166   84  205 1    
   167   85   86 1    
   168   85   87 1    
   169   85  206 1    
   170   86  207 1    
   171   86  208 1    
   172   86  209 1    
   173   87   88 2    
   174   87   89 am   BACKBONE|DICT|INTERRES
   175   89   90 1    
   176   89  210 1    
   177   90   91 1    
   178   90   92 1    
   179   90  211 1    
   180   91  212 1    
   181   91  213 1    
   182   91  214 1    
   183   92   93 2    
   184   92   94 am   BACKBONE|DICT|INTERRES
   185   94   95 1    
   186   94  215 1    
   187   95   96 1    
   188   95   97 1    
   189   95  216 1    
   190   96  217 1    
   191   96  218 1    
   192   96  219 1    
   193   97   98 2    
   194   97   99 am   BACKBONE|DICT|INTERRES
   195   99  100 1    
   196   99  220 1    
   197  100  101 1    
   198  100  102 1    
   199  100  221 1    
   200  101  222 1    
   201  101  223 1    
   202  101  224 1    
   203  102  103 2    
   204  102  104 am   BACKBONE|DICT|INTERRES
   205  104  105 1    
   206  104  225 1    
   207  105  106 1    
   208  105  107 1    
   209  105  226 1    
   210  106  227 1    
   211  106  228 1    
   212  106  229 1    
   213  107  108 2    
   214  107  109 am   BACKBONE|DICT|INTERRES
   215  109  110 1    
   216  109  230 1    
   217  110  111 1    
   218  110  112 1    
   219  110  231 1    
   220  111  232 1    
   221  111  233 1    
   222  111  234 1    
   223  112  113 2    
   224  112  114 am   BACKBONE|DICT|INTERRES
   225  114  115 1    
   226  114  235 1    
   227  115  116 1    
   228  115  117 1    
   229  115  236 1    
   230  116  237 1    
   231  116  238 1    
   232  116  239 1    
   233  117  118 2    
   234  117  119 am   BACKBONE|DICT|INTERRES
   235  119  120 1    
   236  119  240 1    
   237  120  121 1    
   238  120  124 1    
   239  120  241 1    
   240  121  122 am   BACKBONE|DICT|INTERRES
   241  121  123 2    
   242  122  242 1    
   243  122  243 1    
   244  124  125 1    
   245  124  244 1    
   246  124  245 1    
   247  125  126 1    
   248  126  246 1    
   249  126  247 1    
@<TRIPOS>SUBSTRUCTURE
     1 UNK         1 GROUP             0       ****    0 ROOT    
