@<TRIPOS>MOLECULE
3R540
247   249    1
SMALL
USER_CHARGES


@<TRIPOS>ATOM
      1 CA         -4.2887  -17.0536  -43.2581 C.3       0 UNK        -0.1800 
      2 C          -3.9624  -15.5888  -43.5084 C.2       0 UNK         0.5000 
      3 O          -4.5571  -14.7115  -42.8825 O.2       0 UNK        -0.5000 
      4 N          -3.0161  -15.3221  -44.4164 N.am      1 UNK        -0.5000 
      5 CA         -2.5429  -13.9802  -44.7771 C.3       1 UNK         0.1400 
      6 C6         -1.8173  -13.9992  -46.1500 C.3       23 UNK        -0.0398 
      7 S7         -2.3210  -12.6456  -47.2611 S.3       23 UNK        -0.2404 
      8 C8         -3.8619  -13.3059  -47.9830 C.3       23 UNK        -0.0205 
      9 C9         -3.6457  -14.5895  -48.7748 C.ar      23 UNK        -0.0193 
     10 C10        -3.1133  -14.5424  -50.0663 C.ar      23 UNK        -0.1150 
     11 C11        -2.9214  -15.7200  -50.7931 C.ar      23 UNK        -0.0193 
     12 C12        -3.2452  -16.9468  -50.2112 C.ar      23 UNK        -0.1150 
     13 C13        -3.7994  -17.0159  -48.9305 C.ar      23 UNK        -0.0193 
     14 C14        -4.0011  -15.8242  -48.2206 C.ar      23 UNK        -0.1150 
     15 C15        -4.1944  -18.3918  -48.3895 C.3       23 UNK        -0.0205 
     16 S16        -4.5670  -18.4676  -46.6046 S.3       23 UNK        -0.2404 
     17 C17        -4.8820  -20.2497  -46.4002 C.3       23 UNK        -0.0398 
     18 CA         -3.6259  -21.0265  -45.9390 C.3       11 UNK         0.1400 
     19 N          -3.1004  -20.5276  -44.6562 N.am      11 UNK        -0.5000 
     20 C          -1.9981  -20.9620  -44.0288 C.2       10 UNK         0.5000 
     21 O          -1.3396  -21.9361  -44.3936 O.2       10 UNK        -0.5000 
     22 CA         -1.5317  -20.1473  -42.8162 C.3       10 UNK         0.1400 
     23 CB         -0.9636  -21.0368  -41.6971 C.3       10 UNK        -0.1800 
     24 N          -0.4909  -19.2582  -43.3046 N.am      10 UNK        -0.5000 
     25 C          -0.4077  -17.9449  -43.0695 C.2       9 UNK         0.5000 
     26 O          -1.1167  -17.3258  -42.2762 O.2       9 UNK        -0.5000 
     27 CA          0.6063  -17.1756  -43.9330 C.3       9 UNK         0.1400 
     28 CB          2.0082  -17.2778  -43.3207 C.3       9 UNK        -0.1800 
     29 N           0.6302  -17.6283  -45.3261 N.am      9 UNK        -0.5000 
     30 C          -0.4294  -17.6575  -46.1491 C.2       8 UNK         0.5000 
     31 O          -1.5509  -17.2828  -45.8137 O.2       8 UNK        -0.5000 
     32 CA         -0.2126  -18.1927  -47.5721 C.3       8 UNK         0.1400 
     33 CB          0.1017  -17.0392  -48.5372 C.3       8 UNK        -0.1800 
     34 N           0.8716  -19.1730  -47.6174 N.am      8 UNK        -0.5000 
     35 C           0.7009  -20.5014  -47.6051 C.2       7 UNK         0.5000 
     36 O          -0.3991  -21.0510  -47.6025 O.2       7 UNK        -0.5000 
     37 CA          1.9763  -21.3681  -47.6116 C.3       7 UNK         0.1400 
     38 CB          2.4054  -21.6836  -49.0527 C.3       7 UNK        -0.1800 
     39 N           3.1066  -20.7651  -46.9028 N.am      7 UNK        -0.5000 
     40 C           3.1445  -20.5216  -45.5857 C.2       6 UNK         0.5000 
     41 O           2.2230  -20.7802  -44.8109 O.2       6 UNK        -0.5000 
     42 CA          4.4187  -19.8395  -45.0457 C.3       6 UNK         0.1400 
     43 CB          5.4960  -20.8935  -44.7473 C.3       6 UNK        -0.1800 
     44 N           5.0034  -18.7815  -45.8847 N.am      6 UNK        -0.5000 
     45 C           4.3505  -17.7756  -46.4838 C.2       5 UNK         0.5000 
     46 O           3.1240  -17.7149  -46.5859 O.2       5 UNK        -0.5000 
     47 CA          5.2122  -16.6519  -47.0924 C.3       5 UNK         0.1400 
     48 CB          5.6694  -17.0394  -48.5068 C.3       5 UNK        -0.1800 
     49 N           4.4683  -15.3910  -47.1661 N.am      5 UNK        -0.5000 
     50 C           4.0251  -14.6995  -46.1063 C.2       4 UNK         0.5000 
     51 O           4.3557  -14.9532  -44.9455 O.2       4 UNK        -0.5000 
     52 CA          3.0298  -13.5584  -46.4118 C.3       4 UNK         0.1400 
     53 CB          1.8389  -14.0620  -47.2457 C.3       4 UNK        -0.1800 
     54 N           2.4988  -12.9311  -45.2003 N.am      4 UNK        -0.5000 
     55 C           3.1443  -12.0326  -44.4476 C.2       3 UNK         0.5000 
     56 O           4.2718  -11.6093  -44.7087 O.2       3 UNK        -0.5000 
     57 CA          2.4001  -11.4821  -43.2146 C.3       3 UNK         0.1400 
     58 CB          1.9790  -10.0231  -43.4537 C.3       3 UNK        -0.1800 
     59 N           1.2058  -12.2490  -42.8479 N.am      3 UNK        -0.5000 
     60 C           1.1916  -13.3326  -42.0644 C.2       2 UNK         0.5000 
     61 O           2.2102  -13.8733  -41.6350 O.2       2 UNK        -0.5000 
     62 CA         -0.1880  -13.9035  -41.6729 C.3       2 UNK         0.1400 
     63 CB         -0.8757  -13.0174  -40.6175 C.3       2 UNK        -0.1800 
     64 N          -1.0921  -14.1881  -42.7949 N.am      2 UNK        -0.5000 
     65 C          -1.6480  -13.3496  -43.6844 C.2       1 UNK         0.5000 
     66 O          -1.4625  -12.1322  -43.6858 O.2       1 UNK        -0.5000 
     67 C          -3.9065  -22.5441  -45.9803 C.2       11 UNK         0.5000 
     68 O          -3.9130  -23.1240  -47.0670 O.2       11 UNK        -0.5000 
     69 N          -4.0963  -23.1742  -44.8123 N.am      12 UNK        -0.5000 
     70 CA         -4.2194  -24.6236  -44.6420 C.3       12 UNK         0.1400 
     71 CB         -4.4937  -24.9321  -43.1631 C.3       12 UNK        -0.1800 
     72 C          -2.9901  -25.4132  -45.1392 C.2       12 UNK         0.5000 
     73 O          -3.1484  -26.5516  -45.5804 O.2       12 UNK        -0.5000 
     74 N          -1.8028  -24.7866  -45.1250 N.am      13 UNK        -0.5000 
     75 CA         -0.5660  -25.3324  -45.6929 C.3       13 UNK         0.1400 
     76 CB          0.6208  -24.4736  -45.2319 C.3       13 UNK        -0.1800 
     77 C          -0.5964  -25.4434  -47.2328 C.2       13 UNK         0.5000 
     78 O           0.1488  -26.2469  -47.7937 O.2       13 UNK        -0.5000 
     79 N          -1.4750  -24.6671  -47.8798 N.am      14 UNK        -0.5000 
     80 CA         -1.7735  -24.7081  -49.3107 C.3       14 UNK         0.1400 
     81 CB         -1.6469  -23.2839  -49.8727 C.3       14 UNK        -0.1800 
     82 C          -3.1736  -25.3022  -49.5668 C.2       14 UNK         0.5000 
     83 O          -3.7755  -25.0194  -50.6041 O.2       14 UNK        -0.5000 
     84 N          -3.6903  -26.0839  -48.6033 N.am      15 UNK        -0.5000 
     85 CA         -4.9864  -26.7757  -48.6067 C.3       15 UNK         0.1400 
     86 CB         -4.9810  -27.9065  -49.6561 C.3       15 UNK        -0.1800 
     87 C          -6.2055  -25.8384  -48.7607 C.2       15 UNK         0.5000 
     88 O          -7.2606  -26.2799  -49.2182 O.2       15 UNK        -0.5000 
     89 N          -6.0310  -24.5584  -48.3965 N.am      16 UNK        -0.5000 
     90 CA         -6.9696  -23.4444  -48.5587 C.3       16 UNK         0.1400 
     91 CB         -8.2294  -23.6510  -47.6930 C.3       16 UNK        -0.1800 
     92 C          -7.2976  -23.1055  -50.0312 C.2       16 UNK         0.5000 
     93 O          -8.2968  -22.4319  -50.2875 O.2       16 UNK        -0.5000 
     94 N          -6.4520  -23.5480  -50.9760 N.am      17 UNK        -0.5000 
     95 CA         -6.6143  -23.2921  -52.4099 C.3       17 UNK         0.1400 
     96 CB         -5.8014  -24.3265  -53.2026 C.3       17 UNK        -0.1800 
     97 C          -6.2007  -21.8644  -52.8127 C.2       17 UNK         0.5000 
     98 O          -6.6727  -21.3658  -53.8351 O.2       17 UNK        -0.5000 
     99 N          -5.3176  -21.2473  -52.0123 N.am      18 UNK        -0.5000 
    100 CA        -4.7497  -19.8955  -52.1116 C.3       18 UNK         0.1400 
    101 CB        -5.8422  -18.8133  -52.0328 C.3       18 UNK        -0.1800 
    102 C         -3.8276  -19.6738  -53.3256 C.2       18 UNK         0.5000 
    103 O         -2.6978  -19.2140  -53.1544 O.2       18 UNK        -0.5000 
    104 N         -4.2895  -20.0521  -54.5227 N.am      19 UNK        -0.5000 
    105 CA        -3.5305  -20.0123  -55.7752 C.3       19 UNK         0.1400 
    106 CB        -4.4590  -20.3867  -56.9393 C.3       19 UNK        -0.1800 
    107 C         -2.2928  -20.9289  -55.7512 C.2       19 UNK         0.5000 
    108 O         -1.2786  -20.6014  -56.3657 O.2       19 UNK        -0.5000 
    109 N         -2.3801  -22.0308  -54.9930 N.am      20 UNK        -0.5000 
    110 CA        -1.2773  -22.9537  -54.7252 C.3       20 UNK         0.1400 
    111 CB        -1.8385  -24.2173  -54.0547 C.3       20 UNK        -0.1800 
    112 C         -0.1522  -22.3362  -53.8683 C.2       20 UNK         0.5000 
    113 O          0.9773  -22.8231  -53.9295 O.2       20 UNK        -0.5000 
    114 N         -0.4676  -21.2858  -53.0959 N.am      21 UNK        -0.5000 
    115 CA         0.5023  -20.5278  -52.3123 C.3       21 UNK         0.1400 
    116 CB        -0.1672  -19.9559  -51.0521 C.3       21 UNK        -0.1800 
    117 C          1.1153  -19.3980  -53.1512 C.2       21 UNK         0.5000 
    118 O          2.3383  -19.3335  -53.2816 O.2       21 UNK        -0.5000 
    119 N          0.2550  -18.5165  -53.6771 N.am      22 UNK        -0.5000 
    120 CA         0.6702  -17.2615  -54.3272 C.3       22 UNK         0.1400 
    121 C          1.0038  -17.3839  -55.8411 C.2       22 UNK         0.5000 
    122 N          0.6781  -18.4742  -56.5225 N.am      22 UNK        -0.7600 
    123 O          1.5892  -16.4678  -56.4123 O.2       22 UNK        -0.5000 
    124 C124       -0.3372  -16.1128  -54.0682 C.3       23 UNK        -0.0398 
    125 S125       -0.5935  -15.7996  -52.2852 S.3       23 UNK        -0.2404 
    126 C126       -2.4043  -15.6785  -52.2213 C.3       23 UNK        -0.0205 
    127 H127       -4.2052  -17.2817  -42.1956 H         1 UNK         0.0600 
    128 H128       -3.6055  -17.7083  -43.7979 H         1 UNK         0.0600 
    129 H129       -5.3056  -17.2751  -43.5819 H         1 UNK         0.0600 
    130 H130       -2.5694  -16.0942  -44.9118 H         1 UNK         0.3000 
    131 H131       -3.4286  -13.3463  -44.8555 H         1 UNK         0.0600 
    132 H132       -0.7353  -13.9552  -46.0318 H         1 UNK         0.0800 
    133 H133       -1.9880  -14.9349  -46.6761 H         1 UNK         0.0800 
    134 H134       -4.2945  -12.5484  -48.6380 H         1 UNK         0.0800 
    135 H135       -4.5899  -13.4664  -47.1863 H         1 UNK         0.0800 
    136 H136       -2.8545  -13.5896  -50.5063 H         1 UNK         0.1150 
    137 H137       -3.0768  -17.8518  -50.7739 H         1 UNK         0.1150 
    138 H138       -4.4306  -15.8438  -47.2300 H         1 UNK         0.1150 
    139 H139       -3.3951  -19.1025  -48.6040 H         1 UNK         0.0800 
    140 H140       -5.0723  -18.7328  -48.9393 H         1 UNK         0.0800 
    141 H141       -5.2594  -20.6422  -47.3459 H         1 UNK         0.0800 
    142 H142       -5.6913  -20.3707  -45.6780 H         1 UNK         0.0800 
    143 H143       -2.8425  -20.8507  -46.6777 H         1 UNK         0.0600 
    144 H144       -3.5598  -19.7011  -44.3040 H         1 UNK         0.3000 
    145 H145       -2.3780  -19.5810  -42.4217 H         1 UNK         0.0600 
    146 H146       -0.6606  -20.4380  -40.8381 H         1 UNK         0.0600 
    147 H147       -1.7102  -21.7523  -41.3507 H         1 UNK         0.0600 
    148 H148       -0.0929  -21.6031  -42.0312 H         1 UNK         0.0600 
    149 H149        0.1324  -19.6648  -43.9926 H         1 UNK         0.3000 
    150 H150        0.3211  -16.1247  -43.9505 H         1 UNK         0.0600 
    151 H151        2.3210  -18.3155  -43.2116 H         1 UNK         0.0600 
    152 H152        2.0325  -16.8232  -42.3295 H         1 UNK         0.0600 
    153 H153        2.7481  -16.7626  -43.9304 H         1 UNK         0.0600 
    154 H154        1.5403  -17.8724  -45.7080 H         1 UNK         0.3000 
    155 H155       -1.1504  -18.6500  -47.8916 H         1 UNK         0.0600 
    156 H156        1.1011  -16.6386  -48.3715 H         1 UNK         0.0600 
    157 H157       -0.6111  -16.2208  -48.4248 H         1 UNK         0.0600 
    158 H158        0.0447  -17.3651  -49.5745 H         1 UNK         0.0600 
    159 H159        1.8131  -18.8008  -47.5462 H         1 UNK         0.3000 
    160 H160        1.7374  -22.3109  -47.1188 H         1 UNK         0.0600 
    161 H161        2.6815  -20.7803  -49.5981 H         1 UNK         0.0600 
    162 H162        1.5998  -22.1677  -49.6045 H         1 UNK         0.0600 
    163 H163        3.2591  -22.3612  -49.0708 H         1 UNK         0.0600 
    164 H164        3.9046  -20.4985  -47.4603 H         1 UNK         0.3000 
    165 H165        4.1516  -19.3697  -44.0988 H         1 UNK         0.0600 
    166 H166        6.3475  -20.4533  -44.2281 H         1 UNK         0.0600 
    167 H167        5.8645  -21.3611  -45.6612 H         1 UNK         0.0600 
    168 H168        5.1037  -21.6858  -44.1081 H         1 UNK         0.0600 
    169 H169        6.0128  -18.7536  -45.8940 H         1 UNK         0.3000 
    170 H170        6.0896  -16.4987  -46.4609 H         1 UNK         0.0600 
    171 H171        6.2569  -17.9583  -48.4922 H         1 UNK         0.0600 
    172 H172        4.8212  -17.2031  -49.1732 H         1 UNK         0.0600 
    173 H173        6.2961  -16.2628  -48.9455 H         1 UNK         0.0600 
    174 H174        4.1362  -15.1308  -48.0825 H         1 UNK         0.3000 
    175 H175        3.5615  -12.8019  -46.9926 H         1 UNK         0.0600 
    176 H176        1.3237  -14.8814  -46.7437 H         1 UNK         0.0600 
    177 H177        1.1173  -13.2650  -47.4264 H         1 UNK         0.0600 
    178 H178        2.1573  -14.4218  -48.2243 H         1 UNK         0.0600 
    179 H179        1.5951  -13.2431  -44.8828 H         1 UNK         0.3000 
    180 H180        3.1027  -11.4983  -42.3786 H         1 UNK         0.0600 
    181 H181        1.2680   -9.9407  -44.2769 H         1 UNK         0.0600 
    182 H182        2.8400   -9.3997  -43.6985 H         1 UNK         0.0600 
    183 H183        1.5137   -9.5967  -42.5648 H         1 UNK         0.0600 
    184 H184        0.3085  -11.8970  -43.1744 H         1 UNK         0.3000 
    185 H185        0.0014  -14.8708  -41.2046 H         1 UNK         0.0600 
    186 H186       -1.8058  -13.4689  -40.2719 H         1 UNK         0.0600 
    187 H187       -0.2354  -12.8839  -39.7447 H         1 UNK         0.0600 
    188 H188       -1.1094  -12.0250  -41.0039 H         1 UNK         0.0600 
    189 H189       -1.3512  -15.1641  -42.8754 H         1 UNK         0.3000 
    190 H190       -4.0680  -22.6232  -43.9675 H         1 UNK         0.3000 
    191 H191       -5.0794  -24.9538  -45.2285 H         1 UNK         0.0600 
    192 H192       -4.6154  -26.0044  -43.0035 H         1 UNK         0.0600 
    193 H193       -5.4092  -24.4485  -42.8219 H         1 UNK         0.0600 
    194 H194       -3.6762  -24.5954  -42.5241 H         1 UNK         0.0600 
    195 H195       -1.7491  -23.8329  -44.7763 H         1 UNK         0.3000 
    196 H196       -0.4285  -26.3409  -45.2975 H         1 UNK         0.0600 
    197 H197        0.5111  -23.4382  -45.5529 H         1 UNK         0.0600 
    198 H198        0.7096  -24.4749  -44.1455 H         1 UNK         0.0600 
    199 H199        1.5616  -24.8479  -45.6371 H         1 UNK         0.0600 
    200 H200       -2.0647  -24.0453  -47.3384 H         1 UNK         0.3000 
    201 H201       -1.0587  -25.3452  -49.8347 H         1 UNK         0.0600 
    202 H202       -2.3525  -22.5985  -49.4015 H         1 UNK         0.0600 
    203 H203       -1.8227  -23.2560  -50.9474 H         1 UNK         0.0600 
    204 H204       -0.6430  -22.8999  -49.7019 H         1 UNK         0.0600 
    205 H205       -3.1378  -26.2251  -47.7667 H         1 UNK         0.3000 
    206 H206       -5.0860  -27.2370  -47.6233 H         1 UNK         0.0600 
    207 H207       -4.1211  -28.5630  -49.5237 H         1 UNK         0.0600 
    208 H208       -5.8745  -28.5262  -49.5724 H         1 UNK         0.0600 
    209 H209       -4.9496  -27.5132  -50.6728 H         1 UNK         0.0600 
    210 H210       -5.1227  -24.2889  -48.0286 H         1 UNK         0.3000 
    211 H211       -6.4533  -22.5676  -48.1688 H         1 UNK         0.0600 
    212 H212       -8.8473  -22.7525  -47.6794 H         1 UNK         0.0600 
    213 H213       -7.9643  -23.8752  -46.6598 H         1 UNK         0.0600 
    214 H214       -8.8497  -24.4662  -48.0659 H         1 UNK         0.0600 
    215 H215       -5.6483  -24.1047  -50.7026 H         1 UNK         0.3000 
    216 H216       -7.6673  -23.4181  -52.6708 H         1 UNK         0.0600 
    217 H217       -4.7339  -24.2377  -53.0029 H         1 UNK         0.0600 
    218 H218       -5.9461  -24.1996  -54.2763 H         1 UNK         0.0600 
    219 H219       -6.1042  -25.3430  -52.9508 H         1 UNK         0.0600 
    220 H220       -4.9888  -21.7867  -51.2244 H         1 UNK         0.3000 
    221 H221       -4.1222  -19.7932  -51.2263 H         1 UNK         0.0600 
    222 H222       -6.4363  -18.9194  -51.1252 H         1 UNK         0.0600 
    223 H223       -6.5225  -18.8553  -52.8836 H         1 UNK         0.0600 
    224 H224       -5.4038  -17.8149  -52.0196 H         1 UNK         0.0600 
    225 H225       -5.2268  -20.4463  -54.5566 H         1 UNK         0.3000 
    226 H226       -3.1813  -18.9885  -55.9250 H         1 UNK         0.0600 
    227 H227       -4.8620  -21.3938  -56.8244 H         1 UNK         0.0600 
    228 H228       -5.2992  -19.6958  -57.0104 H         1 UNK         0.0600 
    229 H229       -3.9272  -20.3506  -57.8910 H         1 UNK         0.0600 
    230 H230       -3.2543  -22.2191  -54.5267 H         1 UNK         0.3000 
    231 H231       -0.8374  -23.2415  -55.6824 H         1 UNK         0.0600 
    232 H232       -2.3244  -23.9892  -53.1064 H         1 UNK         0.0600 
    233 H233       -1.0458  -24.9383  -53.8512 H         1 UNK         0.0600 
    234 H234       -2.5694  -24.7123  -54.6944 H         1 UNK         0.0600 
    235 H235       -1.4020  -20.9014  -53.1438 H         1 UNK         0.3000 
    236 H236        1.3074  -21.1901  -51.9871 H         1 UNK         0.0600 
    237 H237       -0.6377  -20.7337  -50.4559 H         1 UNK         0.0600 
    238 H238        0.5791  -19.4710  -50.4248 H         1 UNK         0.0600 
    239 H239       -0.9285  -19.2103  -51.2782 H         1 UNK         0.0600 
    240 H240       -0.7393  -18.6415  -53.5223 H         1 UNK         0.3000 
    241 H241        1.6071  -16.9466  -53.8627 H         1 UNK         0.0600 
    242 H242        0.9160  -18.5263  -57.4999 H         1 UNK         0.3800 
    243 H243        0.1417  -19.2288  -56.1093 H         1 UNK         0.3800 
    244 H244       -1.2895  -16.3385  -54.5506 H         1 UNK         0.0800 
    245 H245        0.0172  -15.1825  -54.5155 H         1 UNK         0.0800 
    246 H246       -2.8476  -16.4973  -52.7897 H         1 UNK         0.0800 
    247 H247       -2.7219  -14.7568  -52.7112 H         1 UNK         0.0800 
@<TRIPOS>BOND
     1    1    2 1    
     2    1  127 1    
     3    1  128 1    
     4    1  129 1    
     5    2    3 2    
     6    2    4 am   BACKBONE|DICT|INTERRES
     7    4    5 1    
     8    4  130 1    
     9    5    6 1    
    10    5   65 1    
    11    5  131 1    
    12    6    7 1    
    13    6  132 1    
    14    6  133 1    
    15    7    8 1    
    16    8    9 1    
    17    8  134 1    
    18    8  135 1    
    19    9   10 ar   
    20    9   14 ar   
    21   10   11 ar   
    22   10  136 1    
    23   11   12 ar   
    24   11  126 1    
    25   12   13 ar   
    26   12  137 1    
    27   13   14 ar   
    28   13   15 1    
    29   14  138 1    
    30   15   16 1    
    31   15  139 1    
    32   15  140 1    
    33   16   17 1    
    34   17   18 1    
    35   17  141 1    
    36   17  142 1    
    37   18   19 1    
    38   18   67 1    
    39   18  143 1    
    40   19   20 am   BACKBONE|DICT|INTERRES
    41   19  144 1    
    42   20   21 2    
    43   20   22 1    
    44   22   23 1    
    45   22   24 1    
    46   22  145 1    
    47   23  146 1    
    48   23  147 1    
    49   23  148 1    
    50   24   25 am   BACKBONE|DICT|INTERRES
    51   24  149 1    
    52   25   26 2    
    53   25   27 1    
    54   27   28 1    
    55   27   29 1    
    56   27  150 1    
    57   28  151 1    
    58   28  152 1    
    59   28  153 1    
    60   29   30 am   BACKBONE|DICT|INTERRES
    61   29  154 1    
    62   30   31 2    
    63   30   32 1    
    64   32   33 1    
    65   32   34 1    
    66   32  155 1    
    67   33  156 1    
    68   33  157 1    
    69   33  158 1    
    70   34   35 am   BACKBONE|DICT|INTERRES
    71   34  159 1    
    72   35   36 2    
    73   35   37 1    
    74   37   38 1    
    75   37   39 1    
    76   37  160 1    
    77   38  161 1    
    78   38  162 1    
    79   38  163 1    
    80   39   40 am   BACKBONE|DICT|INTERRES
    81   39  164 1    
    82   40   41 2    
    83   40   42 1    
    84   42   43 1    
    85   42   44 1    
    86   42  165 1    
    87   43  166 1    
    88   43  167 1    
    89   43  168 1    
    90   44   45 am   BACKBONE|DICT|INTERRES
    91   44  169 1    
    92   45   46 2    
    93   45   47 1    
    94   47   48 1    
    95   47   49 1    
    96   47  170 1    
    97   48  171 1    
    98   48  172 1    
    99   48  173 1    
   100   49   50 am   BACKBONE|DICT|INTERRES
   101   49  174 1    
   102   50   51 2    
   103   50   52 1    
   104   52   53 1    
   105   52   54 1    
   106   52  175 1    
   107   53  176 1    
   108   53  177 1    
   109   53  178 1    
   110   54   55 am   BACKBONE|DICT|INTERRES
   111   54  179 1    
   112   55   56 2    
   113   55   57 1    
   114   57   58 1    
   115   57   59 1    
   116   57  180 1    
   117   58  181 1    
   118   58  182 1    
   119   58  183 1    
   120   59   60 am   BACKBONE|DICT|INTERRES
   121   59  184 1    
   122   60   61 2    
   123   60   62 1    
   124   62   63 1    
   125   62   64 1    
   126   62  185 1    
   127   63  186 1    
   128   63  187 1    
   129   63  188 1    
   130   64   65 am   BACKBONE|DICT|INTERRES
   131   64  189 1    
   132   65   66 2    
   133   67   68 2    
   134   67   69 am   BACKBONE|DICT|INTERRES
   135   69   70 1    
   136   69  190 1    
   137   70   71 1    
   138   70   72 1    
   139   70  191 1    
   140   71  192 1    
   141   71  193 1    
   142   71  194 1    
   143   72   73 2    
   144   72   74 am   BACKBONE|DICT|INTERRES
   145   74   75 1    
   146   74  195 1    
   147   75   76 1    
   148   75   77 1    
   149   75  196 1    
   150   76  197 1    
   151   76  198 1    
   152   76  199 1    
   153   77   78 2    
   154   77   79 am   BACKBONE|DICT|INTERRES
   155   79   80 1    
   156   79  200 1    
   157   80   81 1    
   158   80   82 1    
   159   80  201 1    
   160   81  202 1    
   161   81  203 1    
   162   81  204 1    
   163   82   83 2    
   164   82   84 am   BACKBONE|DICT|INTERRES
   165   84   85 1    
   166   84  205 1    
   167   85   86 1    
   168   85   87 1    
   169   85  206 1    
   170   86  207 1    
   171   86  208 1    
   172   86  209 1    
   173   87   88 2    
   174   87   89 am   BACKBONE|DICT|INTERRES
   175   89   90 1    
   176   89  210 1    
   177   90   91 1    
   178   90   92 1    
   179   90  211 1    
   180   91  212 1    
   181   91  213 1    
   182   91  214 1    
   183   92   93 2    
   184   92   94 am   BACKBONE|DICT|INTERRES
   185   94   95 1    
   186   94  215 1    
   187   95   96 1    
   188   95   97 1    
   189   95  216 1    
   190   96  217 1    
   191   96  218 1    
   192   96  219 1    
   193   97   98 2    
   194   97   99 am   BACKBONE|DICT|INTERRES
   195   99  100 1    
   196   99  220 1    
   197  100  101 1    
   198  100  102 1    
   199  100  221 1    
   200  101  222 1    
   201  101  223 1    
   202  101  224 1    
   203  102  103 2    
   204  102  104 am   BACKBONE|DICT|INTERRES
   205  104  105 1    
   206  104  225 1    
   207  105  106 1    
   208  105  107 1    
   209  105  226 1    
   210  106  227 1    
   211  106  228 1    
   212  106  229 1    
   213  107  108 2    
   214  107  109 am   BACKBONE|DICT|INTERRES
   215  109  110 1    
   216  109  230 1    
   217  110  111 1    
   218  110  112 1    
   219  110  231 1    
   220  111  232 1    
   221  111  233 1    
   222  111  234 1    
   223  112  113 2    
   224  112  114 am   BACKBONE|DICT|INTERRES
   225  114  115 1    
   226  114  235 1    
   227  115  116 1    
   228  115  117 1    
   229  115  236 1    
   230  116  237 1    
   231  116  238 1    
   232  116  239 1    
   233  117  118 2    
   234  117  119 am   BACKBONE|DICT|INTERRES
   235  119  120 1    
   236  119  240 1    
   237  120  121 1    
   238  120  124 1    
   239  120  241 1    
   240  121  122 am   BACKBONE|DICT|INTERRES
   241  121  123 2    
   242  122  242 1    
   243  122  243 1    
   244  124  125 1    
   245  124  244 1    
   246  124  245 1    
   247  125  126 1    
   248  126  246 1    
   249  126  247 1    
@<TRIPOS>SUBSTRUCTURE
     1 UNK         1 GROUP             0       ****    0 ROOT    
