@<TRIPOS>MOLECULE
3R540
247   249    1
SMALL
USER_CHARGES


@<TRIPOS>ATOM
      1 CA          0.0776  -11.5134  -43.5812 C.3       0 UNK        -0.1800 
      2 C           0.0750  -11.3449  -45.0942 C.2       0 UNK         0.5000 
      3 O           0.7446  -10.4525  -45.6134 O.2       0 UNK        -0.5000 
      4 N          -0.6587  -12.2124  -45.8053 N.am      1 UNK        -0.5000 
      5 CA         -0.7772  -12.2458  -47.2719 C.3       1 UNK         0.1400 
      6 C6         -1.8386  -13.2897  -47.6985 C.3       23 UNK        -0.0398 
      7 S7         -2.3541  -13.1772  -49.4476 S.3       23 UNK        -0.2404 
      8 C8         -2.7936  -14.9071  -49.8158 C.3       23 UNK        -0.0205 
      9 C9         -1.5933  -15.7356  -50.2539 C.ar      23 UNK        -0.0193 
     10 C10        -1.3177  -15.9050  -51.6147 C.ar      23 UNK        -0.1150 
     11 C11        -0.2559  -16.7134  -52.0300 C.ar      23 UNK        -0.0193 
     12 C12         0.5501  -17.3356  -51.0730 C.ar      23 UNK        -0.1150 
     13 C13         0.2920  -17.1670  -49.7111 C.ar      23 UNK        -0.0193 
     14 C14        -0.7828  -16.3704  -49.3079 C.ar      23 UNK        -0.1150 
     15 C15         1.1614  -17.8651  -48.6766 C.3       23 UNK        -0.0205 
     16 S16         0.6435  -19.5855  -48.4259 S.3       23 UNK        -0.2404 
     17 C17        -1.0182  -19.3242  -47.7263 C.3       23 UNK        -0.0398 
     18 CA         -1.5570  -20.6156  -47.0864 C.3       11 UNK         0.1400 
     19 N          -0.8714  -20.9369  -45.8331 N.am      11 UNK        -0.5000 
     20 C          -0.9519  -22.1008  -45.1768 C.2       10 UNK         0.5000 
     21 O          -1.6464  -23.0484  -45.5505 O.2       10 UNK        -0.5000 
     22 CA         -0.1632  -22.1920  -43.8586 C.3       10 UNK         0.1400 
     23 CB          1.3347  -22.4033  -44.1254 C.3       10 UNK        -0.1800 
     24 N          -0.3557  -20.9973  -43.0338 N.am      10 UNK        -0.5000 
     25 C          -1.5033  -20.7017  -42.4072 C.2       9 UNK         0.5000 
     26 O          -2.4767  -21.4539  -42.3864 O.2       9 UNK        -0.5000 
     27 CA         -1.5986  -19.3333  -41.7073 C.3       9 UNK         0.1400 
     28 CB         -1.0513  -19.4212  -40.2749 C.3       9 UNK        -0.1800 
     29 N          -0.9135  -18.2605  -42.4305 N.am      9 UNK        -0.5000 
     30 C          -1.2697  -17.7997  -43.6381 C.2       8 UNK         0.5000 
     31 O          -2.2410  -18.2157  -44.2684 O.2       8 UNK        -0.5000 
     32 CA         -0.3575  -16.7307  -44.2745 C.3       8 UNK         0.1400 
     33 CB         -0.6787  -15.3309  -43.7329 C.3       8 UNK        -0.1800 
     34 N           1.0675  -17.0091  -44.0886 N.am      8 UNK        -0.5000 
     35 C           1.6858  -18.1121  -44.5350 C.2       7 UNK         0.5000 
     36 O           1.1234  -18.9999  -45.1717 O.2       7 UNK        -0.5000 
     37 CA          3.1606  -18.2845  -44.1450 C.3       7 UNK         0.1400 
     38 CB          4.0702  -17.4064  -45.0168 C.3       7 UNK        -0.1800 
     39 N           3.3716  -17.9835  -42.7299 N.am      7 UNK        -0.5000 
     40 C           2.9105  -18.7442  -41.7257 C.2       6 UNK         0.5000 
     41 O           2.3123  -19.8078  -41.8908 O.2       6 UNK        -0.5000 
     42 CA          3.1166  -18.2018  -40.2995 C.3       6 UNK         0.1400 
     43 CB          4.5120  -18.5721  -39.7754 C.3       6 UNK        -0.1800 
     44 N           2.9366  -16.7510  -40.2174 N.am      6 UNK        -0.5000 
     45 C           1.7726  -16.1175  -40.4225 C.2       5 UNK         0.5000 
     46 O           0.7165  -16.6949  -40.6718 O.2       5 UNK        -0.5000 
     47 CA          1.8033  -14.5790  -40.3916 C.3       5 UNK         0.1400 
     48 CB          1.5842  -14.0610  -38.9629 C.3       5 UNK        -0.1800 
     49 N           3.0502  -14.0272  -40.9250 N.am      5 UNK        -0.5000 
     50 C           3.4374  -14.1357  -42.2017 C.2       4 UNK         0.5000 
     51 O           2.7798  -14.7135  -43.0723 O.2       4 UNK        -0.5000 
     52 CA          4.8121  -13.5435  -42.5478 C.3       4 UNK         0.1400 
     53 CB          5.8468  -14.6592  -42.7571 C.3       4 UNK        -0.1800 
     54 N           4.7301  -12.7319  -43.7556 N.am      4 UNK        -0.5000 
     55 C           4.2319  -11.4930  -43.8114 C.2       3 UNK         0.5000 
     56 O           3.8528  -10.8670  -42.8208 O.2       3 UNK        -0.5000 
     57 CA          4.1239  -10.8436  -45.2033 C.3       3 UNK         0.1400 
     58 CB          5.4944  -10.3526  -45.7083 C.3       3 UNK        -0.1800 
     59 N           3.4401  -11.6790  -46.1987 N.am      3 UNK        -0.5000 
     60 C           3.8372  -12.8282  -46.7667 C.2       2 UNK         0.5000 
     61 O           4.9112  -13.3774  -46.5159 O.2       2 UNK        -0.5000 
     62 CA          2.8517  -13.4768  -47.7591 C.3       2 UNK         0.1400 
     63 CB          3.0758  -14.9885  -47.9219 C.3       2 UNK        -0.1800 
     64 N           1.4679  -13.2463  -47.3407 N.am      2 UNK        -0.5000 
     65 C           0.5831  -12.4685  -47.9786 C.2       1 UNK         0.5000 
     66 O           0.8215  -11.8925  -49.0408 O.2       1 UNK        -0.5000 
     67 C          -3.0918  -20.5837  -46.9687 C.2       11 UNK         0.5000 
     68 O          -3.7593  -20.7804  -47.9826 O.2       11 UNK        -0.5000 
     69 N          -3.6370  -20.4327  -45.7535 N.am      12 UNK        -0.5000 
     70 CA         -5.0645  -20.6020  -45.4612 C.3       12 UNK         0.1400 
     71 CB         -5.3266  -20.2808  -43.9830 C.3       12 UNK        -0.1800 
     72 C          -5.6022  -22.0057  -45.8217 C.2       12 UNK         0.5000 
     73 O          -6.7981  -22.1411  -46.0808 O.2       12 UNK        -0.5000 
     74 N          -4.7081  -23.0039  -45.8704 N.am      13 UNK        -0.5000 
     75 CA         -4.9480  -24.3073  -46.4768 C.3       13 UNK         0.1400 
     76 CB         -4.4498  -25.4123  -45.5310 C.3       13 UNK        -0.1800 
     77 C          -4.2463  -24.3889  -47.8436 C.2       13 UNK         0.5000 
     78 O          -4.9100  -24.6296  -48.8510 O.2       13 UNK        -0.5000 
     79 N          -2.9192  -24.1877  -47.8640 N.am      14 UNK        -0.5000 
     80 CA         -2.0483  -24.4821  -49.0087 C.3       14 UNK         0.1400 
     81 CB         -0.5769  -24.3532  -48.5855 C.3       14 UNK        -0.1800 
     82 C          -2.3241  -23.6653  -50.2861 C.2       14 UNK         0.5000 
     83 O          -2.0890  -24.1793  -51.3807 O.2       14 UNK        -0.5000 
     84 N          -2.8270  -22.4329  -50.1384 N.am      15 UNK        -0.5000 
     85 CA         -3.1911  -21.5514  -51.2480 C.3       15 UNK         0.1400 
     86 CB         -2.6310  -20.1406  -51.0048 C.3       15 UNK        -0.1800 
     87 C          -4.7107  -21.5241  -51.4942 C.2       15 UNK         0.5000 
     88 O          -5.1583  -20.7721  -52.3604 O.2       15 UNK        -0.5000 
     89 N          -5.4809  -22.3474  -50.7692 N.am      16 UNK        -0.5000 
     90 CA         -6.9307  -22.4846  -50.9066 C.3       16 UNK         0.1400 
     91 CB         -7.5630  -22.5555  -49.5050 C.3       16 UNK        -0.1800 
     92 C          -7.2863  -23.6984  -51.7900 C.2       16 UNK         0.5000 
     93 O          -8.1624  -24.4874  -51.4340 O.2       16 UNK        -0.5000 
     94 N          -6.5840  -23.8270  -52.9253 N.am      17 UNK        -0.5000 
     95 CA         -6.7048  -24.8553  -53.9675 C.3       17 UNK         0.1400 
     96 CB         -8.1418  -24.9416  -54.5229 C.3       17 UNK        -0.1800 
     97 C          -6.1353  -26.2347  -53.5744 C.2       17 UNK         0.5000 
     98 O          -6.2850  -27.1846  -54.3447 O.2       17 UNK        -0.5000 
     99 N          -5.4752  -26.3354  -52.4115 N.am      18 UNK        -0.5000 
    100 CA        -4.8579  -27.5717  -51.9237 C.3       18 UNK         0.1400 
    101 CB        -4.6939  -27.4926  -50.4006 C.3       18 UNK        -0.1800 
    102 C         -3.5030  -27.8732  -52.5921 C.2       18 UNK         0.5000 
    103 O         -3.1271  -29.0427  -52.6852 O.2       18 UNK        -0.5000 
    104 N         -2.7986  -26.8292  -53.0447 N.am      19 UNK        -0.5000 
    105 CA        -1.5214  -26.9240  -53.7487 C.3       19 UNK         0.1400 
    106 CB        -0.3501  -26.9744  -52.7506 C.3       19 UNK        -0.1800 
    107 C         -1.3963  -25.7534  -54.7299 C.2       19 UNK         0.5000 
    108 O         -1.2367  -25.9789  -55.9303 O.2       19 UNK        -0.5000 
    109 N         -1.5295  -24.5302  -54.2069 N.am      20 UNK        -0.5000 
    110 CA        -1.7197  -23.3047  -54.9793 C.3       20 UNK         0.1400 
    111 CB        -0.7422  -22.2359  -54.4621 C.3       20 UNK        -0.1800 
    112 C         -3.1828  -22.8525  -54.8328 C.2       20 UNK         0.5000 
    113 O         -3.9000  -23.3790  -53.9793 O.2       20 UNK        -0.5000 
    114 N         -3.6048  -21.8878  -55.6565 N.am      21 UNK        -0.5000 
    115 CA        -4.9736  -21.3571  -55.6838 C.3       21 UNK         0.1400 
    116 CB        -5.6657  -21.8388  -56.9715 C.3       21 UNK        -0.1800 
    117 C         -5.0107  -19.8212  -55.5435 C.2       21 UNK         0.5000 
    118 O         -6.0329  -19.2081  -55.8551 O.2       21 UNK        -0.5000 
    119 N         -3.9001  -19.2197  -55.0982 N.am      22 UNK        -0.5000 
    120 CA        -3.7361  -17.7677  -54.9162 C.3       22 UNK         0.1400 
    121 C         -4.3485  -17.1740  -53.6124 C.2       22 UNK         0.5000 
    122 N         -4.9148  -17.9606  -52.7069 N.am      22 UNK        -0.7600 
    123 O         -4.3408  -15.9592  -53.4330 O.2       22 UNK        -0.5000 
    124 C124       -2.2686  -17.3203  -55.1519 C.3       23 UNK        -0.0398 
    125 S125       -1.0172  -18.2548  -54.1983 S.3       23 UNK        -0.2404 
    126 C126        0.0226  -16.9262  -53.5088 C.3       23 UNK        -0.0205 
    127 H127       -0.6962  -12.2054  -43.2485 H         1 UNK         0.0600 
    128 H128       -0.0957  -10.5534  -43.0951 H         1 UNK         0.0600 
    129 H129        1.0430  -11.8957  -43.2489 H         1 UNK         0.0600 
    130 H130       -1.2042  -12.9022  -45.3101 H         1 UNK         0.3000 
    131 H131       -1.1355  -11.2601  -47.5766 H         1 UNK         0.0600 
    132 H132       -2.7425  -13.1541  -47.1028 H         1 UNK         0.0800 
    133 H133       -1.4860  -14.2933  -47.4697 H         1 UNK         0.0800 
    134 H134       -3.5455  -14.9106  -50.6070 H         1 UNK         0.0800 
    135 H135       -3.2729  -15.3640  -48.9487 H         1 UNK         0.0800 
    136 H136       -1.9443  -15.4252  -52.3530 H         1 UNK         0.1150 
    137 H137        1.3699  -17.9664  -51.3868 H         1 UNK         0.1150 
    138 H138       -0.9975  -16.2691  -48.2554 H         1 UNK         0.1150 
    139 H139        1.1301  -17.3366  -47.7227 H         1 UNK         0.0800 
    140 H140        2.2029  -17.8546  -49.0006 H         1 UNK         0.0800 
    141 H141       -1.6633  -18.9828  -48.5361 H         1 UNK         0.0800 
    142 H142       -0.9917  -18.5176  -46.9929 H         1 UNK         0.0800 
    143 H143       -1.3481  -21.4313  -47.7778 H         1 UNK         0.0600 
    144 H144       -0.2359  -20.2229  -45.4821 H         1 UNK         0.3000 
    145 H145       -0.5331  -23.0582  -43.3059 H         1 UNK         0.0600 
    146 H146        1.8873  -22.5185  -43.1927 H         1 UNK         0.0600 
    147 H147        1.5016  -23.3040  -44.7174 H         1 UNK         0.0600 
    148 H148        1.7734  -21.5669  -44.6701 H         1 UNK         0.0600 
    149 H149        0.4183  -20.3465  -42.9772 H         1 UNK         0.3000 
    150 H150       -2.6566  -19.0690  -41.6489 H         1 UNK         0.0600 
    151 H151       -1.5536  -20.2083  -39.7111 H         1 UNK         0.0600 
    152 H152       -1.2067  -18.4867  -39.7358 H         1 UNK         0.0600 
    153 H153        0.0168  -19.6399  -40.2655 H         1 UNK         0.0600 
    154 H154       -0.1396  -17.8131  -41.9465 H         1 UNK         0.3000 
    155 H155       -0.5503  -16.7275  -45.3490 H         1 UNK         0.0600 
    156 H156       -1.7098  -15.0540  -43.9553 H         1 UNK         0.0600 
    157 H157       -0.0287  -14.5797  -44.1804 H         1 UNK         0.0600 
    158 H158       -0.5514  -15.2781  -42.6518 H         1 UNK         0.0600 
    159 H159        1.6099  -16.3146  -43.5851 H         1 UNK         0.3000 
    160 H160        3.4332  -19.3280  -44.3173 H         1 UNK         0.0600 
    161 H161        3.8424  -16.3464  -44.9057 H         1 UNK         0.0600 
    162 H162        3.9527  -17.6564  -46.0720 H         1 UNK         0.0600 
    163 H163        5.1202  -17.5536  -44.7643 H         1 UNK         0.0600 
    164 H164        3.8123  -17.1033  -42.5108 H         1 UNK         0.3000 
    165 H165        2.3724  -18.6728  -39.6538 H         1 UNK         0.0600 
    166 H166        4.6393  -18.2598  -38.7387 H         1 UNK         0.0600 
    167 H167        4.6674  -19.6513  -39.8098 H         1 UNK         0.0600 
    168 H168        5.3024  -18.1075  -40.3662 H         1 UNK         0.0600 
    169 H169        3.7557  -16.1990  -40.0113 H         1 UNK         0.3000 
    170 H170        0.9821  -14.2180  -41.0142 H         1 UNK         0.0600 
    171 H171        0.6494  -14.4421  -38.5493 H         1 UNK         0.0600 
    172 H172        2.3888  -14.3682  -38.2936 H         1 UNK         0.0600 
    173 H173        1.5267  -12.9725  -38.9427 H         1 UNK         0.0600 
    174 H174        3.6416  -13.5351  -40.2707 H         1 UNK         0.3000 
    175 H175        5.1517  -12.9140  -41.7224 H         1 UNK         0.0600 
    176 H176        5.9149  -15.3038  -41.8799 H         1 UNK         0.0600 
    177 H177        5.5962  -15.2876  -43.6114 H         1 UNK         0.0600 
    178 H178        6.8394  -14.2439  -42.9323 H         1 UNK         0.0600 
    179 H179        4.9647  -13.1822  -44.6361 H         1 UNK         0.3000 
    180 H180        3.4920   -9.9618  -45.0849 H         1 UNK         0.0600 
    181 H181        6.2055  -11.1698  -45.8313 H         1 UNK         0.0600 
    182 H182        5.9344   -9.6449  -45.0047 H         1 UNK         0.0600 
    183 H183        5.4008   -9.8421  -46.6667 H         1 UNK         0.0600 
    184 H184        2.5124  -11.3457  -46.4352 H         1 UNK         0.3000 
    185 H185        3.0463  -13.0094  -48.7262 H         1 UNK         0.0600 
    186 H186        4.1069  -15.2166  -48.1943 H         1 UNK         0.0600 
    187 H187        2.8432  -15.5306  -47.0056 H         1 UNK         0.0600 
    188 H188        2.4434  -15.3777  -48.7182 H         1 UNK         0.0600 
    189 H189        1.2046  -13.6376  -46.4479 H         1 UNK         0.3000 
    190 H190       -3.0319  -20.2043  -44.9749 H         1 UNK         0.3000 
    191 H191       -5.6086  -19.8769  -46.0697 H         1 UNK         0.0600 
    192 H192       -4.8700  -21.0196  -43.3252 H         1 UNK         0.0600 
    193 H193       -6.3966  -20.2755  -43.7717 H         1 UNK         0.0600 
    194 H194       -4.9357  -19.2994  -43.7129 H         1 UNK         0.0600 
    195 H195       -3.7451  -22.7952  -45.6341 H         1 UNK         0.3000 
    196 H196       -6.0158  -24.4655  -46.6426 H         1 UNK         0.0600 
    197 H197       -4.5850  -26.3983  -45.9774 H         1 UNK         0.0600 
    198 H198       -5.0047  -25.4015  -44.5928 H         1 UNK         0.0600 
    199 H199       -3.3917  -25.3009  -45.2913 H         1 UNK         0.0600 
    200 H200       -2.4479  -23.9437  -46.9966 H         1 UNK         0.3000 
    201 H201       -2.2119  -25.5290  -49.2676 H         1 UNK         0.0600 
    202 H202       -0.3533  -24.9974  -47.7350 H         1 UNK         0.0600 
    203 H203       -0.3151  -23.3334  -48.3085 H         1 UNK         0.0600 
    204 H204        0.0877  -24.6489  -49.3984 H         1 UNK         0.0600 
    205 H205       -3.0654  -22.0874  -49.2140 H         1 UNK         0.3000 
    206 H206       -2.7336  -21.9121  -52.1651 H         1 UNK         0.0600 
    207 H207       -1.5790  -20.1718  -50.7212 H         1 UNK         0.0600 
    208 H208       -2.6962  -19.5379  -51.9106 H         1 UNK         0.0600 
    209 H209       -3.1821  -19.6108  -50.2289 H         1 UNK         0.0600 
    210 H210       -5.0409  -22.9787  -50.1089 H         1 UNK         0.3000 
    211 H211       -7.3427  -21.6033  -51.4022 H         1 UNK         0.0600 
    212 H212       -7.2653  -23.4561  -48.9684 H         1 UNK         0.0600 
    213 H213       -8.6517  -22.5570  -49.5668 H         1 UNK         0.0600 
    214 H214       -7.2743  -21.6962  -48.8994 H         1 UNK         0.0600 
    215 H215       -5.8226  -23.1757  -53.0826 H         1 UNK         0.3000 
    216 H216       -6.0791  -24.5107  -54.7910 H         1 UNK         0.0600 
    217 H217       -8.1758  -25.5607  -55.4200 H         1 UNK         0.0600 
    218 H218       -8.5190  -23.9565  -54.7974 H         1 UNK         0.0600 
    219 H219       -8.8329  -25.3803  -53.8031 H         1 UNK         0.0600 
    220 H220       -5.3951  -25.5159  -51.8274 H         1 UNK         0.3000 
    221 H221       -5.5288  -28.4052  -52.1427 H         1 UNK         0.0600 
    222 H222       -3.9777  -26.7224  -50.1213 H         1 UNK         0.0600 
    223 H223       -5.6405  -27.2693  -49.9080 H         1 UNK         0.0600 
    224 H224       -4.3299  -28.4383  -49.9973 H         1 UNK         0.0600 
    225 H225       -3.1869  -25.8997  -52.9495 H         1 UNK         0.3000 
    226 H226       -1.5064  -27.8409  -54.3421 H         1 UNK         0.0600 
    227 H227       -0.4098  -27.8610  -52.1194 H         1 UNK         0.0600 
    228 H228        0.6059  -27.0118  -53.2740 H         1 UNK         0.0600 
    229 H229       -0.3335  -26.1022  -52.0969 H         1 UNK         0.0600 
    230 H230       -1.7025  -24.4390  -53.2075 H         1 UNK         0.3000 
    231 H231       -1.5244  -23.4749  -56.0399 H         1 UNK         0.0600 
    232 H232        0.2899  -22.5444  -54.6286 H         1 UNK         0.0600 
    233 H233       -0.8583  -22.0524  -53.3946 H         1 UNK         0.0600 
    234 H234       -0.8797  -21.2861  -54.9792 H         1 UNK         0.0600 
    235 H235       -2.9651  -21.5000  -56.3363 H         1 UNK         0.3000 
    236 H236       -5.5503  -21.7399  -54.8406 H         1 UNK         0.0600 
    237 H237       -6.7076  -21.5182  -57.0050 H         1 UNK         0.0600 
    238 H238       -5.1708  -21.4497  -57.8620 H         1 UNK         0.0600 
    239 H239       -5.6633  -22.9271  -57.0345 H         1 UNK         0.0600 
    240 H240       -3.1150  -19.7870  -54.8168 H         1 UNK         0.3000 
    241 H241       -4.3133  -17.2885  -55.7094 H         1 UNK         0.0600 
    242 H242       -5.3174  -17.5418  -51.8855 H         1 UNK         0.3800 
    243 H243       -4.9563  -18.9699  -52.8195 H         1 UNK         0.3800 
    244 H244       -2.0258  -17.4551  -56.2067 H         1 UNK         0.0800 
    245 H245       -2.1642  -16.2494  -54.9725 H         1 UNK         0.0800 
    246 H246        1.0686  -17.2014  -53.6514 H         1 UNK         0.0800 
    247 H247       -0.1127  -15.9928  -54.0562 H         1 UNK         0.0800 
@<TRIPOS>BOND
     1    1    2 1    
     2    1  127 1    
     3    1  128 1    
     4    1  129 1    
     5    2    3 2    
     6    2    4 am   BACKBONE|DICT|INTERRES
     7    4    5 1    
     8    4  130 1    
     9    5    6 1    
    10    5   65 1    
    11    5  131 1    
    12    6    7 1    
    13    6  132 1    
    14    6  133 1    
    15    7    8 1    
    16    8    9 1    
    17    8  134 1    
    18    8  135 1    
    19    9   10 ar   
    20    9   14 ar   
    21   10   11 ar   
    22   10  136 1    
    23   11   12 ar   
    24   11  126 1    
    25   12   13 ar   
    26   12  137 1    
    27   13   14 ar   
    28   13   15 1    
    29   14  138 1    
    30   15   16 1    
    31   15  139 1    
    32   15  140 1    
    33   16   17 1    
    34   17   18 1    
    35   17  141 1    
    36   17  142 1    
    37   18   19 1    
    38   18   67 1    
    39   18  143 1    
    40   19   20 am   BACKBONE|DICT|INTERRES
    41   19  144 1    
    42   20   21 2    
    43   20   22 1    
    44   22   23 1    
    45   22   24 1    
    46   22  145 1    
    47   23  146 1    
    48   23  147 1    
    49   23  148 1    
    50   24   25 am   BACKBONE|DICT|INTERRES
    51   24  149 1    
    52   25   26 2    
    53   25   27 1    
    54   27   28 1    
    55   27   29 1    
    56   27  150 1    
    57   28  151 1    
    58   28  152 1    
    59   28  153 1    
    60   29   30 am   BACKBONE|DICT|INTERRES
    61   29  154 1    
    62   30   31 2    
    63   30   32 1    
    64   32   33 1    
    65   32   34 1    
    66   32  155 1    
    67   33  156 1    
    68   33  157 1    
    69   33  158 1    
    70   34   35 am   BACKBONE|DICT|INTERRES
    71   34  159 1    
    72   35   36 2    
    73   35   37 1    
    74   37   38 1    
    75   37   39 1    
    76   37  160 1    
    77   38  161 1    
    78   38  162 1    
    79   38  163 1    
    80   39   40 am   BACKBONE|DICT|INTERRES
    81   39  164 1    
    82   40   41 2    
    83   40   42 1    
    84   42   43 1    
    85   42   44 1    
    86   42  165 1    
    87   43  166 1    
    88   43  167 1    
    89   43  168 1    
    90   44   45 am   BACKBONE|DICT|INTERRES
    91   44  169 1    
    92   45   46 2    
    93   45   47 1    
    94   47   48 1    
    95   47   49 1    
    96   47  170 1    
    97   48  171 1    
    98   48  172 1    
    99   48  173 1    
   100   49   50 am   BACKBONE|DICT|INTERRES
   101   49  174 1    
   102   50   51 2    
   103   50   52 1    
   104   52   53 1    
   105   52   54 1    
   106   52  175 1    
   107   53  176 1    
   108   53  177 1    
   109   53  178 1    
   110   54   55 am   BACKBONE|DICT|INTERRES
   111   54  179 1    
   112   55   56 2    
   113   55   57 1    
   114   57   58 1    
   115   57   59 1    
   116   57  180 1    
   117   58  181 1    
   118   58  182 1    
   119   58  183 1    
   120   59   60 am   BACKBONE|DICT|INTERRES
   121   59  184 1    
   122   60   61 2    
   123   60   62 1    
   124   62   63 1    
   125   62   64 1    
   126   62  185 1    
   127   63  186 1    
   128   63  187 1    
   129   63  188 1    
   130   64   65 am   BACKBONE|DICT|INTERRES
   131   64  189 1    
   132   65   66 2    
   133   67   68 2    
   134   67   69 am   BACKBONE|DICT|INTERRES
   135   69   70 1    
   136   69  190 1    
   137   70   71 1    
   138   70   72 1    
   139   70  191 1    
   140   71  192 1    
   141   71  193 1    
   142   71  194 1    
   143   72   73 2    
   144   72   74 am   BACKBONE|DICT|INTERRES
   145   74   75 1    
   146   74  195 1    
   147   75   76 1    
   148   75   77 1    
   149   75  196 1    
   150   76  197 1    
   151   76  198 1    
   152   76  199 1    
   153   77   78 2    
   154   77   79 am   BACKBONE|DICT|INTERRES
   155   79   80 1    
   156   79  200 1    
   157   80   81 1    
   158   80   82 1    
   159   80  201 1    
   160   81  202 1    
   161   81  203 1    
   162   81  204 1    
   163   82   83 2    
   164   82   84 am   BACKBONE|DICT|INTERRES
   165   84   85 1    
   166   84  205 1    
   167   85   86 1    
   168   85   87 1    
   169   85  206 1    
   170   86  207 1    
   171   86  208 1    
   172   86  209 1    
   173   87   88 2    
   174   87   89 am   BACKBONE|DICT|INTERRES
   175   89   90 1    
   176   89  210 1    
   177   90   91 1    
   178   90   92 1    
   179   90  211 1    
   180   91  212 1    
   181   91  213 1    
   182   91  214 1    
   183   92   93 2    
   184   92   94 am   BACKBONE|DICT|INTERRES
   185   94   95 1    
   186   94  215 1    
   187   95   96 1    
   188   95   97 1    
   189   95  216 1    
   190   96  217 1    
   191   96  218 1    
   192   96  219 1    
   193   97   98 2    
   194   97   99 am   BACKBONE|DICT|INTERRES
   195   99  100 1    
   196   99  220 1    
   197  100  101 1    
   198  100  102 1    
   199  100  221 1    
   200  101  222 1    
   201  101  223 1    
   202  101  224 1    
   203  102  103 2    
   204  102  104 am   BACKBONE|DICT|INTERRES
   205  104  105 1    
   206  104  225 1    
   207  105  106 1    
   208  105  107 1    
   209  105  226 1    
   210  106  227 1    
   211  106  228 1    
   212  106  229 1    
   213  107  108 2    
   214  107  109 am   BACKBONE|DICT|INTERRES
   215  109  110 1    
   216  109  230 1    
   217  110  111 1    
   218  110  112 1    
   219  110  231 1    
   220  111  232 1    
   221  111  233 1    
   222  111  234 1    
   223  112  113 2    
   224  112  114 am   BACKBONE|DICT|INTERRES
   225  114  115 1    
   226  114  235 1    
   227  115  116 1    
   228  115  117 1    
   229  115  236 1    
   230  116  237 1    
   231  116  238 1    
   232  116  239 1    
   233  117  118 2    
   234  117  119 am   BACKBONE|DICT|INTERRES
   235  119  120 1    
   236  119  240 1    
   237  120  121 1    
   238  120  124 1    
   239  120  241 1    
   240  121  122 am   BACKBONE|DICT|INTERRES
   241  121  123 2    
   242  122  242 1    
   243  122  243 1    
   244  124  125 1    
   245  124  244 1    
   246  124  245 1    
   247  125  126 1    
   248  126  246 1    
   249  126  247 1    
@<TRIPOS>SUBSTRUCTURE
     1 UNK         1 GROUP             0       ****    0 ROOT    
