@<TRIPOS>MOLECULE
3R540
247   249    1
SMALL
USER_CHARGES


@<TRIPOS>ATOM
      1 CA          0.8862  -10.6637  -47.9204 C.3       0 UNK        -0.1800 
      2 C           0.2791  -12.0598  -47.9235 C.2       0 UNK         0.5000 
      3 O          -0.3595  -12.4411  -46.9437 O.2       0 UNK        -0.5000 
      4 N           0.4692  -12.7993  -49.0263 N.am      1 UNK        -0.5000 
      5 CA          0.0769  -14.1979  -49.2488 C.3       1 UNK         0.1400 
      6 C6         -1.4060  -14.4936  -48.8893 C.3       23 UNK        -0.0398 
      7 S7         -2.0809  -15.9680  -49.7230 S.3       23 UNK        -0.2404 
      8 C8         -3.6620  -16.1396  -48.8408 C.3       23 UNK        -0.0205 
      9 C9         -4.4534  -17.3507  -49.3124 C.ar      23 UNK        -0.0193 
     10 C10        -5.4968  -17.2014  -50.2300 C.ar      23 UNK        -0.1150 
     11 C11        -6.2658  -18.2996  -50.6316 C.ar      23 UNK        -0.0193 
     12 C12        -5.9832  -19.5603  -50.0888 C.ar      23 UNK        -0.1150 
     13 C13        -4.9325  -19.7257  -49.1821 C.ar      23 UNK        -0.0193 
     14 C14        -4.1684  -18.6192  -48.8024 C.ar      23 UNK        -0.1150 
     15 C15        -4.6019  -21.1022  -48.6314 C.3       23 UNK        -0.0205 
     16 S16        -5.3005  -21.3776  -46.9741 S.3       23 UNK        -0.2404 
     17 C17        -4.2436  -22.7532  -46.4012 C.3       23 UNK        -0.0398 
     18 CA         -3.0290  -22.2394  -45.5802 C.3       11 UNK         0.1400 
     19 N          -3.4056  -21.5700  -44.3290 N.am      11 UNK        -0.5000 
     20 C          -3.9081  -22.1282  -43.2174 C.2       10 UNK         0.5000 
     21 O          -4.2423  -23.3106  -43.1369 O.2       10 UNK        -0.5000 
     22 CA         -4.0102  -21.2317  -41.9653 C.3       10 UNK         0.1400 
     23 CB         -2.9371  -21.6327  -40.9397 C.3       10 UNK        -0.1800 
     24 N          -3.8408  -19.8113  -42.2714 N.am      10 UNK        -0.5000 
     25 C          -4.8176  -18.9968  -42.6905 C.2       9 UNK         0.5000 
     26 O          -6.0015  -19.3267  -42.7642 O.2       9 UNK        -0.5000 
     27 CA         -4.3902  -17.5822  -43.1306 C.3       9 UNK         0.1400 
     28 CB         -4.4611  -16.6043  -41.9482 C.3       9 UNK        -0.1800 
     29 N          -3.0461  -17.5356  -43.7144 N.am      9 UNK        -0.5000 
     30 C          -2.6737  -18.1783  -44.8305 C.2       8 UNK         0.5000 
     31 O          -3.4302  -18.8726  -45.5013 O.2       8 UNK        -0.5000 
     32 CA         -1.1987  -18.0754  -45.2418 C.3       8 UNK         0.1400 
     33 CB         -0.9613  -16.7648  -45.9972 C.3       8 UNK        -0.1800 
     34 N          -0.2969  -18.1593  -44.0955 N.am      8 UNK        -0.5000 
     35 C          -0.1253  -19.2443  -43.3282 C.2       7 UNK         0.5000 
     36 O          -0.6556  -20.3325  -43.5546 O.2       7 UNK        -0.5000 
     37 CA          0.7711  -19.0844  -42.0892 C.3       7 UNK         0.1400 
     38 CB          2.2270  -19.4367  -42.4173 C.3       7 UNK        -0.1800 
     39 N           0.7109  -17.7275  -41.5488 N.am      7 UNK        -0.5000 
     40 C          -0.2897  -17.2680  -40.7857 C.2       6 UNK         0.5000 
     41 O          -1.2403  -17.9576  -40.4154 O.2       6 UNK        -0.5000 
     42 CA         -0.2307  -15.7779  -40.4008 C.3       6 UNK         0.1400 
     43 CB          0.6532  -15.5728  -39.1614 C.3       6 UNK        -0.1800 
     44 N           0.2582  -14.9293  -41.4902 N.am      6 UNK        -0.5000 
     45 C          -0.4023  -14.7209  -42.6377 C.2       5 UNK         0.5000 
     46 O          -1.5004  -15.2158  -42.8891 O.2       5 UNK        -0.5000 
     47 CA          0.2921  -13.8411  -43.6943 C.3       5 UNK         0.1400 
     48 CB         -0.0532  -12.3620  -43.4652 C.3       5 UNK        -0.1800 
     49 N           1.7497  -13.9918  -43.7495 N.am      5 UNK        -0.5000 
     50 C           2.3968  -15.1360  -44.0033 C.2       4 UNK         0.5000 
     51 O           1.8500  -16.2395  -44.0793 O.2       4 UNK        -0.5000 
     52 CA          3.9169  -15.0453  -44.1655 C.3       4 UNK         0.1400 
     53 CB          4.6238  -15.3504  -42.8326 C.3       4 UNK        -0.1800 
     54 N           4.3081  -16.0129  -45.1817 N.am      4 UNK        -0.5000 
     55 C           5.4540  -16.0171  -45.8717 C.2       3 UNK         0.5000 
     56 O           6.3554  -15.1939  -45.7085 O.2       3 UNK        -0.5000 
     57 CA          5.6239  -17.1305  -46.9235 C.3       3 UNK         0.1400 
     58 CB          6.2907  -18.3612  -46.2896 C.3       3 UNK        -0.1800 
     59 N           4.3483  -17.5280  -47.5253 N.am      3 UNK        -0.5000 
     60 C           3.7180  -16.8358  -48.4850 C.2       2 UNK         0.5000 
     61 O           4.2075  -15.8486  -49.0394 O.2       2 UNK        -0.5000 
     62 CA          2.3212  -17.3415  -48.9223 C.3       2 UNK         0.1400 
     63 CB          1.6528  -18.2849  -47.8983 C.3       2 UNK        -0.1800 
     64 N           1.3989  -16.2595  -49.2937 N.am      2 UNK        -0.5000 
     65 C           1.0722  -15.1731  -48.5755 C.2       1 UNK         0.5000 
     66 O           1.5227  -14.9293  -47.4543 O.2       1 UNK        -0.5000 
     67 C          -1.9317  -23.3069  -45.3507 C.2       11 UNK         0.5000 
     68 O          -1.9162  -24.3380  -46.0230 O.2       11 UNK        -0.5000 
     69 N          -1.0317  -23.0321  -44.3957 N.am      12 UNK        -0.5000 
     70 CA          0.0298  -23.9337  -43.9549 C.3       12 UNK         0.1400 
     71 CB          0.3344  -23.6591  -42.4734 C.3       12 UNK        -0.1800 
     72 C           1.2972  -23.7791  -44.8088 C.2       12 UNK         0.5000 
     73 O           1.8889  -24.7821  -45.2076 O.2       12 UNK        -0.5000 
     74 N           1.6821  -22.5246  -45.0833 N.am      13 UNK        -0.5000 
     75 CA          2.8350  -22.1836  -45.9249 C.3       13 UNK         0.1400 
     76 CB          3.4145  -20.8374  -45.4640 C.3       13 UNK        -0.1800 
     77 C           2.4812  -22.1225  -47.4220 C.2       13 UNK         0.5000 
     78 O           3.3831  -22.0784  -48.2591 O.2       13 UNK        -0.5000 
     79 N           1.1797  -22.0775  -47.7277 N.am      14 UNK        -0.5000 
     80 CA          0.6241  -22.0119  -49.0737 C.3       14 UNK         0.1400 
     81 CB         -0.8725  -21.7083  -48.9418 C.3       14 UNK        -0.1800 
     82 C           0.8767  -23.3191  -49.8504 C.2       14 UNK         0.5000 
     83 O           0.6475  -24.4022  -49.3064 O.2       14 UNK        -0.5000 
     84 N           1.3447  -23.1913  -51.0984 N.am      15 UNK        -0.5000 
     85 CA          1.7388  -24.2847  -51.9896 C.3       15 UNK         0.1400 
     86 CB          2.3402  -23.6882  -53.2727 C.3       15 UNK        -0.1800 
     87 C           0.5661  -25.2297  -52.3082 C.2       15 UNK         0.5000 
     88 O          -0.3316  -24.8577  -53.0639 O.2       15 UNK        -0.5000 
     89 N           0.5774  -26.4166  -51.6845 N.am      16 UNK        -0.5000 
     90 CA         -0.4913  -27.4245  -51.7049 C.3       16 UNK         0.1400 
     91 CB         -0.6348  -28.0487  -53.1093 C.3       16 UNK        -0.1800 
     92 C          -1.8272  -26.8895  -51.1393 C.2       16 UNK         0.5000 
     93 O          -2.8975  -27.2881  -51.6014 O.2       16 UNK        -0.5000 
     94 N          -1.7258  -25.9903  -50.1477 N.am      17 UNK        -0.5000 
     95 CA         -2.8159  -25.2836  -49.4728 C.3       17 UNK         0.1400 
     96 CB         -3.7081  -26.2607  -48.6780 C.3       17 UNK        -0.1800 
     97 C          -3.6117  -24.3503  -50.4113 C.2       17 UNK         0.5000 
     98 O          -4.8323  -24.2476  -50.2840 O.2       17 UNK        -0.5000 
     99 N          -2.9079  -23.6659  -51.3215 N.am      18 UNK        -0.5000 
    100 CA        -3.4495  -22.6455  -52.2144 C.3       18 UNK         0.1400 
    101 CB        -3.9146  -23.3009  -53.5232 C.3       18 UNK        -0.1800 
    102 C         -2.3640  -21.5920  -52.4758 C.2       18 UNK         0.5000 
    103 O         -1.1902  -21.9455  -52.5961 O.2       18 UNK        -0.5000 
    104 N         -2.7564  -20.3178  -52.5409 N.am      19 UNK        -0.5000 
    105 CA        -1.8736  -19.1787  -52.7705 C.3       19 UNK         0.1400 
    106 CB        -1.0476  -18.8838  -51.5024 C.3       19 UNK        -0.1800 
    107 C         -2.7205  -17.9675  -53.1862 C.2       19 UNK         0.5000 
    108 O         -3.9371  -17.9753  -52.9827 O.2       19 UNK        -0.5000 
    109 N         -2.0631  -16.9540  -53.7682 N.am      20 UNK        -0.5000 
    110 CA        -2.6382  -15.6854  -54.2319 C.3       20 UNK         0.1400 
    111 CB        -2.9479  -14.7723  -53.0242 C.3       20 UNK        -0.1800 
    112 C         -3.8373  -15.9043  -55.1808 C.2       20 UNK         0.5000 
    113 O         -3.6693  -16.5402  -56.2236 O.2       20 UNK        -0.5000 
    114 N         -5.0249  -15.4202  -54.7919 N.am      21 UNK        -0.5000 
    115 CA        -6.2891  -15.5631  -55.5190 C.3       21 UNK         0.1400 
    116 CB        -7.3681  -14.7410  -54.7971 C.3       21 UNK        -0.1800 
    117 C         -6.7586  -17.0217  -55.7005 C.2       21 UNK         0.5000 
    118 O         -7.5216  -17.2940  -56.6285 O.2       21 UNK        -0.5000 
    119 N         -6.2916  -17.9274  -54.8323 N.am      22 UNK        -0.5000 
    120 CA        -6.5196  -19.3755  -54.9292 C.3       22 UNK         0.1400 
    121 C         -5.5012  -20.0963  -55.8624 C.2       22 UNK         0.5000 
    122 N         -4.4778  -19.4350  -56.3931 N.am      22 UNK        -0.7600 
    123 O         -5.6557  -21.2838  -56.1308 O.2       22 UNK        -0.5000 
    124 C124       -6.5700  -20.0384  -53.5274 C.3       23 UNK        -0.0398 
    125 S125       -8.0169  -19.5246  -52.5382 S.3       23 UNK        -0.2404 
    126 C126       -7.4055  -18.0614  -51.6241 C.3       23 UNK        -0.0205 
    127 H127        1.4182  -10.4484  -48.8475 H         1 UNK         0.0600 
    128 H128        1.5899  -10.5644  -47.0937 H         1 UNK         0.0600 
    129 H129        0.1041   -9.9148  -47.7950 H         1 UNK         0.0600 
    130 H130        1.0171  -12.3984  -49.7746 H         1 UNK         0.3000 
    131 H131        0.1793  -14.3286  -50.3276 H         1 UNK         0.0600 
    132 H132       -2.0301  -13.6496  -49.1861 H         1 UNK         0.0800 
    133 H133       -1.5331  -14.5949  -47.8111 H         1 UNK         0.0800 
    134 H134       -4.2482  -15.2299  -48.9797 H         1 UNK         0.0800 
    135 H135       -3.4792  -16.2241  -47.7688 H         1 UNK         0.0800 
    136 H136       -5.7149  -16.2215  -50.6306 H         1 UNK         0.1150 
    137 H137       -6.5747  -20.4198  -50.3681 H         1 UNK         0.1150 
    138 H138       -3.3579  -18.7433  -48.0988 H         1 UNK         0.1150 
    139 H139       -4.9769  -21.8730  -49.3024 H         1 UNK         0.0800 
    140 H140       -3.5207  -21.2162  -48.5971 H         1 UNK         0.0800 
    141 H141       -3.9211  -23.3196  -47.2753 H         1 UNK         0.0800 
    142 H142       -4.8483  -23.4390  -45.8067 H         1 UNK         0.0800 
    143 H143       -2.5376  -21.4719  -46.1800 H         1 UNK         0.0600 
    144 H144       -3.2333  -20.5729  -44.3208 H         1 UNK         0.3000 
    145 H145       -4.9927  -21.3941  -41.5173 H         1 UNK         0.0600 
    146 H146       -3.0178  -21.0362  -40.0307 H         1 UNK         0.0600 
    147 H147       -3.0411  -22.6796  -40.6515 H         1 UNK         0.0600 
    148 H148       -1.9301  -21.5009  -41.3375 H         1 UNK         0.0600 
    149 H149       -2.8995  -19.4469  -42.2256 H         1 UNK         0.3000 
    150 H150       -5.0953  -17.2488  -43.8947 H         1 UNK         0.0600 
    151 H151       -5.4540  -16.6060  -41.4968 H         1 UNK         0.0600 
    152 H152       -4.2516  -15.5835  -42.2683 H         1 UNK         0.0600 
    153 H153       -3.7438  -16.8641  -41.1688 H         1 UNK         0.0600 
    154 H154       -2.3767  -16.9180  -43.2638 H         1 UNK         0.3000 
    155 H155       -0.9617  -18.9071  -45.9089 H         1 UNK         0.0600 
    156 H156       -1.5038  -15.9261  -45.5600 H         1 UNK         0.0600 
    157 H157       -1.2856  -16.8686  -47.0306 H         1 UNK         0.0600 
    158 H158        0.0904  -16.4945  -46.0119 H         1 UNK         0.0600 
    159 H159        0.2561  -17.3324  -43.8922 H         1 UNK         0.3000 
    160 H160        0.4173  -19.7851  -41.3296 H         1 UNK         0.0600 
    161 H161        2.6291  -18.8065  -43.2117 H         1 UNK         0.0600 
    162 H162        2.3053  -20.4756  -42.7376 H         1 UNK         0.0600 
    163 H163        2.8673  -19.3213  -41.5427 H         1 UNK         0.0600 
    164 H164        1.4230  -17.0823  -41.8608 H         1 UNK         0.3000 
    165 H165       -1.2457  -15.4598  -40.1528 H         1 UNK         0.0600 
    166 H166        0.6370  -14.5333  -38.8334 H         1 UNK         0.0600 
    167 H167        0.3019  -16.1812  -38.3269 H         1 UNK         0.0600 
    168 H168        1.6907  -15.8484  -39.3549 H         1 UNK         0.0600 
    169 H169        1.1572  -14.4883  -41.3639 H         1 UNK         0.3000 
    170 H170       -0.0989  -14.1325  -44.6711 H         1 UNK         0.0600 
    171 H171       -1.1335  -12.2114  -43.4532 H         1 UNK         0.0600 
    172 H172        0.3415  -11.9970  -42.5163 H         1 UNK         0.0600 
    173 H173        0.3494  -11.7355  -44.2615 H         1 UNK         0.0600 
    174 H174        2.2841  -13.1380  -43.6817 H         1 UNK         0.3000 
    175 H175        4.1810  -14.0418  -44.5056 H         1 UNK         0.0600 
    176 H176        4.3946  -16.3567  -42.4790 H         1 UNK         0.0600 
    177 H177        5.7065  -15.2690  -42.9287 H         1 UNK         0.0600 
    178 H178        4.3148  -14.6496  -42.0562 H         1 UNK         0.0600 
    179 H179        3.5880  -16.6894  -45.3977 H         1 UNK         0.3000 
    180 H180        6.2839  -16.7552  -47.7087 H         1 UNK         0.0600 
    181 H181        5.7110  -18.7479  -45.4508 H         1 UNK         0.0600 
    182 H182        7.2824  -18.1114  -45.9103 H         1 UNK         0.0600 
    183 H183        6.4145  -19.1647  -47.0161 H         1 UNK         0.0600 
    184 H184        3.8989  -18.3441  -47.1401 H         1 UNK         0.3000 
    185 H185        2.4838  -17.9156  -49.8355 H         1 UNK         0.0600 
    186 H186        2.1876  -19.2314  -47.8383 H         1 UNK         0.0600 
    187 H187        1.6332  -17.8526  -46.8985 H         1 UNK         0.0600 
    188 H188        0.6269  -18.5186  -48.1842 H         1 UNK         0.0600 
    189 H189        0.9904  -16.3511  -50.2123 H         1 UNK         0.3000 
    190 H190       -1.0821  -22.1275  -43.9333 H         1 UNK         0.3000 
    191 H191       -0.3145  -24.9666  -44.0431 H         1 UNK         0.0600 
    192 H192       -0.5465  -23.8313  -41.8545 H         1 UNK         0.0600 
    193 H193        0.6611  -22.6316  -42.3085 H         1 UNK         0.0600 
    194 H194        1.1226  -24.3183  -42.1075 H         1 UNK         0.0600 
    195 H195        1.1389  -21.7587  -44.7111 H         1 UNK         0.3000 
    196 H196        3.6125  -22.9416  -45.8078 H         1 UNK         0.0600 
    197 H197        4.2223  -20.5176  -46.1224 H         1 UNK         0.0600 
    198 H198        3.8365  -20.9163  -44.4628 H         1 UNK         0.0600 
    199 H199        2.6600  -20.0501  -45.4573 H         1 UNK         0.0600 
    200 H200        0.5209  -22.1764  -46.9723 H         1 UNK         0.3000 
    201 H201        1.1017  -21.1829  -49.6005 H         1 UNK         0.0600 
    202 H202       -1.0385  -20.7673  -48.4164 H         1 UNK         0.0600 
    203 H203       -1.3949  -22.4952  -48.3987 H         1 UNK         0.0600 
    204 H204       -1.3404  -21.6144  -49.9170 H         1 UNK         0.0600 
    205 H205        1.4267  -22.2647  -51.4901 H         1 UNK         0.3000 
    206 H206        2.5228  -24.8562  -51.4884 H         1 UNK         0.0600 
    207 H207        3.2255  -23.0911  -53.0538 H         1 UNK         0.0600 
    208 H208        2.6419  -24.4753  -53.9650 H         1 UNK         0.0600 
    209 H209        1.6246  -23.0496  -53.7929 H         1 UNK         0.0600 
    210 H210        1.3435  -26.6140  -51.0552 H         1 UNK         0.3000 
    211 H211       -0.1751  -28.2174  -51.0257 H         1 UNK         0.0600 
    212 H212       -1.0225  -27.3331  -53.8348 H         1 UNK         0.0600 
    213 H213       -1.3198  -28.8972  -53.0913 H         1 UNK         0.0600 
    214 H214        0.3232  -28.4150  -53.4779 H         1 UNK         0.0600 
    215 H215       -0.7938  -25.7043  -49.8613 H         1 UNK         0.3000 
    216 H216       -2.3329  -24.6320  -48.7452 H         1 UNK         0.0600 
    217 H217       -4.4266  -25.7198  -48.0612 H         1 UNK         0.0600 
    218 H218       -3.1121  -26.8798  -48.0076 H         1 UNK         0.0600 
    219 H219       -4.2748  -26.9217  -49.3340 H         1 UNK         0.0600 
    220 H220       -1.9108  -23.8168  -51.4168 H         1 UNK         0.3000 
    221 H221       -4.2995  -22.1517  -51.7385 H         1 UNK         0.0600 
    222 H222       -3.0991  -23.8344  -54.0137 H         1 UNK         0.0600 
    223 H223       -4.7211  -24.0122  -53.3444 H         1 UNK         0.0600 
    224 H224       -4.2869  -22.5534  -54.2227 H         1 UNK         0.0600 
    225 H225       -3.7289  -20.0574  -52.4414 H         1 UNK         0.3000 
    226 H226       -1.2004  -19.4134  -53.5977 H         1 UNK         0.0600 
    227 H227       -0.3337  -19.6809  -51.2982 H         1 UNK         0.0600 
    228 H228       -0.4746  -17.9619  -51.6042 H         1 UNK         0.0600 
    229 H229       -1.6889  -18.7803  -50.6267 H         1 UNK         0.0600 
    230 H230       -1.0717  -17.0586  -53.9289 H         1 UNK         0.3000 
    231 H231       -1.8689  -15.1930  -54.8282 H         1 UNK         0.0600 
    232 H232       -3.6788  -15.2181  -52.3480 H         1 UNK         0.0600 
    233 H233       -3.3302  -13.8024  -53.3445 H         1 UNK         0.0600 
    234 H234       -2.0441  -14.5788  -52.4469 H         1 UNK         0.0600 
    235 H235       -5.0714  -14.9391  -53.9058 H         1 UNK         0.3000 
    236 H236       -6.1462  -15.1422  -56.5163 H         1 UNK         0.0600 
    237 H237       -8.3211  -14.7966  -55.3249 H         1 UNK         0.0600 
    238 H238       -7.5346  -15.1010  -53.7810 H         1 UNK         0.0600 
    239 H239       -7.0914  -13.6881  -54.7405 H         1 UNK         0.0600 
    240 H240       -5.6232  -17.6389  -54.1255 H         1 UNK         0.3000 
    241 H241       -7.4944  -19.5383  -55.3928 H         1 UNK         0.0600 
    242 H242       -3.8454  -19.9236  -57.0063 H         1 UNK         0.3800 
    243 H243       -4.3414  -18.4444  -56.2251 H         1 UNK         0.3800 
    244 H244       -6.6358  -21.1236  -53.6233 H         1 UNK         0.0800 
    245 H245       -5.6559  -19.8476  -52.9697 H         1 UNK         0.0800 
    246 H246       -7.1067  -17.3003  -52.3445 H         1 UNK         0.0800 
    247 H247       -8.2451  -17.6383  -51.0717 H         1 UNK         0.0800 
@<TRIPOS>BOND
     1    1    2 1    
     2    1  127 1    
     3    1  128 1    
     4    1  129 1    
     5    2    3 2    
     6    2    4 am   BACKBONE|DICT|INTERRES
     7    4    5 1    
     8    4  130 1    
     9    5    6 1    
    10    5   65 1    
    11    5  131 1    
    12    6    7 1    
    13    6  132 1    
    14    6  133 1    
    15    7    8 1    
    16    8    9 1    
    17    8  134 1    
    18    8  135 1    
    19    9   10 ar   
    20    9   14 ar   
    21   10   11 ar   
    22   10  136 1    
    23   11   12 ar   
    24   11  126 1    
    25   12   13 ar   
    26   12  137 1    
    27   13   14 ar   
    28   13   15 1    
    29   14  138 1    
    30   15   16 1    
    31   15  139 1    
    32   15  140 1    
    33   16   17 1    
    34   17   18 1    
    35   17  141 1    
    36   17  142 1    
    37   18   19 1    
    38   18   67 1    
    39   18  143 1    
    40   19   20 am   BACKBONE|DICT|INTERRES
    41   19  144 1    
    42   20   21 2    
    43   20   22 1    
    44   22   23 1    
    45   22   24 1    
    46   22  145 1    
    47   23  146 1    
    48   23  147 1    
    49   23  148 1    
    50   24   25 am   BACKBONE|DICT|INTERRES
    51   24  149 1    
    52   25   26 2    
    53   25   27 1    
    54   27   28 1    
    55   27   29 1    
    56   27  150 1    
    57   28  151 1    
    58   28  152 1    
    59   28  153 1    
    60   29   30 am   BACKBONE|DICT|INTERRES
    61   29  154 1    
    62   30   31 2    
    63   30   32 1    
    64   32   33 1    
    65   32   34 1    
    66   32  155 1    
    67   33  156 1    
    68   33  157 1    
    69   33  158 1    
    70   34   35 am   BACKBONE|DICT|INTERRES
    71   34  159 1    
    72   35   36 2    
    73   35   37 1    
    74   37   38 1    
    75   37   39 1    
    76   37  160 1    
    77   38  161 1    
    78   38  162 1    
    79   38  163 1    
    80   39   40 am   BACKBONE|DICT|INTERRES
    81   39  164 1    
    82   40   41 2    
    83   40   42 1    
    84   42   43 1    
    85   42   44 1    
    86   42  165 1    
    87   43  166 1    
    88   43  167 1    
    89   43  168 1    
    90   44   45 am   BACKBONE|DICT|INTERRES
    91   44  169 1    
    92   45   46 2    
    93   45   47 1    
    94   47   48 1    
    95   47   49 1    
    96   47  170 1    
    97   48  171 1    
    98   48  172 1    
    99   48  173 1    
   100   49   50 am   BACKBONE|DICT|INTERRES
   101   49  174 1    
   102   50   51 2    
   103   50   52 1    
   104   52   53 1    
   105   52   54 1    
   106   52  175 1    
   107   53  176 1    
   108   53  177 1    
   109   53  178 1    
   110   54   55 am   BACKBONE|DICT|INTERRES
   111   54  179 1    
   112   55   56 2    
   113   55   57 1    
   114   57   58 1    
   115   57   59 1    
   116   57  180 1    
   117   58  181 1    
   118   58  182 1    
   119   58  183 1    
   120   59   60 am   BACKBONE|DICT|INTERRES
   121   59  184 1    
   122   60   61 2    
   123   60   62 1    
   124   62   63 1    
   125   62   64 1    
   126   62  185 1    
   127   63  186 1    
   128   63  187 1    
   129   63  188 1    
   130   64   65 am   BACKBONE|DICT|INTERRES
   131   64  189 1    
   132   65   66 2    
   133   67   68 2    
   134   67   69 am   BACKBONE|DICT|INTERRES
   135   69   70 1    
   136   69  190 1    
   137   70   71 1    
   138   70   72 1    
   139   70  191 1    
   140   71  192 1    
   141   71  193 1    
   142   71  194 1    
   143   72   73 2    
   144   72   74 am   BACKBONE|DICT|INTERRES
   145   74   75 1    
   146   74  195 1    
   147   75   76 1    
   148   75   77 1    
   149   75  196 1    
   150   76  197 1    
   151   76  198 1    
   152   76  199 1    
   153   77   78 2    
   154   77   79 am   BACKBONE|DICT|INTERRES
   155   79   80 1    
   156   79  200 1    
   157   80   81 1    
   158   80   82 1    
   159   80  201 1    
   160   81  202 1    
   161   81  203 1    
   162   81  204 1    
   163   82   83 2    
   164   82   84 am   BACKBONE|DICT|INTERRES
   165   84   85 1    
   166   84  205 1    
   167   85   86 1    
   168   85   87 1    
   169   85  206 1    
   170   86  207 1    
   171   86  208 1    
   172   86  209 1    
   173   87   88 2    
   174   87   89 am   BACKBONE|DICT|INTERRES
   175   89   90 1    
   176   89  210 1    
   177   90   91 1    
   178   90   92 1    
   179   90  211 1    
   180   91  212 1    
   181   91  213 1    
   182   91  214 1    
   183   92   93 2    
   184   92   94 am   BACKBONE|DICT|INTERRES
   185   94   95 1    
   186   94  215 1    
   187   95   96 1    
   188   95   97 1    
   189   95  216 1    
   190   96  217 1    
   191   96  218 1    
   192   96  219 1    
   193   97   98 2    
   194   97   99 am   BACKBONE|DICT|INTERRES
   195   99  100 1    
   196   99  220 1    
   197  100  101 1    
   198  100  102 1    
   199  100  221 1    
   200  101  222 1    
   201  101  223 1    
   202  101  224 1    
   203  102  103 2    
   204  102  104 am   BACKBONE|DICT|INTERRES
   205  104  105 1    
   206  104  225 1    
   207  105  106 1    
   208  105  107 1    
   209  105  226 1    
   210  106  227 1    
   211  106  228 1    
   212  106  229 1    
   213  107  108 2    
   214  107  109 am   BACKBONE|DICT|INTERRES
   215  109  110 1    
   216  109  230 1    
   217  110  111 1    
   218  110  112 1    
   219  110  231 1    
   220  111  232 1    
   221  111  233 1    
   222  111  234 1    
   223  112  113 2    
   224  112  114 am   BACKBONE|DICT|INTERRES
   225  114  115 1    
   226  114  235 1    
   227  115  116 1    
   228  115  117 1    
   229  115  236 1    
   230  116  237 1    
   231  116  238 1    
   232  116  239 1    
   233  117  118 2    
   234  117  119 am   BACKBONE|DICT|INTERRES
   235  119  120 1    
   236  119  240 1    
   237  120  121 1    
   238  120  124 1    
   239  120  241 1    
   240  121  122 am   BACKBONE|DICT|INTERRES
   241  121  123 2    
   242  122  242 1    
   243  122  243 1    
   244  124  125 1    
   245  124  244 1    
   246  124  245 1    
   247  125  126 1    
   248  126  246 1    
   249  126  247 1    
@<TRIPOS>SUBSTRUCTURE
     1 UNK         1 GROUP             0       ****    0 ROOT    
