@<TRIPOS>MOLECULE
3R540
247   249    1
SMALL
USER_CHARGES


@<TRIPOS>ATOM
      1 CA          1.5535  -10.7058  -46.8749 C.3       0 UNK        -0.1800 
      2 C           2.3267  -11.6079  -47.8257 C.2       0 UNK         0.5000 
      3 O           2.4858  -11.2656  -48.9978 O.2       0 UNK        -0.5000 
      4 N           2.7999  -12.7505  -47.3197 N.am      1 UNK        -0.5000 
      5 CA          3.5988  -13.7382  -48.0487 C.3       1 UNK         0.1400 
      6 C6          2.8397  -15.0756  -48.2678 C.3       23 UNK        -0.0398 
      7 S7          1.2602  -14.8871  -49.1578 S.3       23 UNK        -0.2404 
      8 C8          0.4731  -16.4823  -48.7823 C.3       23 UNK        -0.0205 
      9 C9          0.8657  -17.5615  -49.7790 C.ar      23 UNK        -0.0193 
     10 C10         0.0049  -17.8730  -50.8327 C.ar      23 UNK        -0.1150 
     11 C11         0.3351  -18.8644  -51.7589 C.ar      23 UNK        -0.0193 
     12 C12         1.5469  -19.5470  -51.6260 C.ar      23 UNK        -0.1150 
     13 C13         2.4130  -19.2584  -50.5654 C.ar      23 UNK        -0.0193 
     14 C14         2.0634  -18.2691  -49.6410 C.ar      23 UNK        -0.1150 
     15 C15         3.7344  -20.0025  -50.4279 C.3       23 UNK        -0.0205 
     16 S16         3.6796  -21.3044  -49.1530 S.3       23 UNK        -0.2404 
     17 C17         2.4341  -22.4522  -49.8364 C.3       23 UNK        -0.0398 
     18 CA          1.1779  -22.6006  -48.9420 C.3       11 UNK         0.1400 
     19 N           0.6103  -21.3170  -48.5111 N.am      11 UNK        -0.5000 
     20 C          -0.3540  -21.1849  -47.5910 C.2       10 UNK         0.5000 
     21 O          -0.8758  -22.1397  -47.0101 O.2       10 UNK        -0.5000 
     22 CA         -0.8483  -19.7533  -47.3143 C.3       10 UNK         0.1400 
     23 CB         -2.3798  -19.7170  -47.1966 C.3       10 UNK        -0.1800 
     24 N          -0.2796  -19.1444  -46.1140 N.am      10 UNK        -0.5000 
     25 C           1.0117  -19.0257  -45.7764 C.2       9 UNK         0.5000 
     26 O           1.9446  -19.4342  -46.4654 O.2       9 UNK        -0.5000 
     27 CA          1.3291  -18.2839  -44.4601 C.3       9 UNK         0.1400 
     28 CB          2.0661  -16.9652  -44.7464 C.3       9 UNK        -0.1800 
     29 N           0.1475  -17.9847  -43.6481 N.am      9 UNK        -0.5000 
     30 C          -0.5370  -18.8727  -42.9141 C.2       8 UNK         0.5000 
     31 O          -0.2304  -20.0605  -42.8136 O.2       8 UNK        -0.5000 
     32 CA         -1.7909  -18.3449  -42.1972 C.3       8 UNK         0.1400 
     33 CB         -1.4156  -17.6933  -40.8571 C.3       8 UNK        -0.1800 
     34 N          -2.5035  -17.3740  -43.0302 N.am      8 UNK        -0.5000 
     35 C          -3.4500  -17.6946  -43.9238 C.2       7 UNK         0.5000 
     36 O          -3.8653  -18.8407  -44.0918 O.2       7 UNK        -0.5000 
     37 CA         -4.0355  -16.5532  -44.7806 C.3       7 UNK         0.1400 
     38 CB         -5.3404  -16.0305  -44.1620 C.3       7 UNK        -0.1800 
     39 N          -3.1141  -15.4307  -44.9657 N.am      7 UNK        -0.5000 
     40 C          -2.0174  -15.4723  -45.7342 C.2       6 UNK         0.5000 
     41 O          -1.6943  -16.4513  -46.4007 O.2       6 UNK        -0.5000 
     42 CA         -1.1081  -14.2286  -45.7299 C.3       6 UNK         0.1400 
     43 CB         -1.5164  -13.2694  -46.8570 C.3       6 UNK        -0.1800 
     44 N          -1.0862  -13.5031  -44.4545 N.am      6 UNK        -0.5000 
     45 C          -0.7535  -14.0299  -43.2683 C.2       5 UNK         0.5000 
     46 O          -0.4613  -15.2166  -43.1106 O.2       5 UNK        -0.5000 
     47 CA         -0.7267  -13.0623  -42.0708 C.3       5 UNK         0.1400 
     48 CB         -0.7953  -13.7993  -40.7217 C.3       5 UNK        -0.1800 
     49 N           0.4943  -12.2651  -42.1095 N.am      5 UNK        -0.5000 
     50 C           0.7001  -11.2050  -42.9011 C.2       4 UNK         0.5000 
     51 O          -0.1758  -10.6979  -43.6033 O.2       4 UNK        -0.5000 
     52 CA          2.1340  -10.6400  -42.9397 C.3       4 UNK         0.1400 
     53 CB          2.2810   -9.4791  -41.9448 C.3       4 UNK        -0.1800 
     54 N           3.1701  -11.6430  -42.6655 N.am      4 UNK        -0.5000 
     55 C           3.4231  -12.7121  -43.4319 C.2       3 UNK         0.5000 
     56 O           2.7984  -12.9853  -44.4631 O.2       3 UNK        -0.5000 
     57 CA          4.5479  -13.6425  -42.9544 C.3       3 UNK         0.1400 
     58 CB          4.0651  -14.5468  -41.8081 C.3       3 UNK        -0.1800 
     59 N           4.9428  -14.4649  -44.0887 N.am      3 UNK        -0.5000 
     60 C           6.1919  -14.7366  -44.4791 C.2       2 UNK         0.5000 
     61 O           7.1939  -14.4753  -43.8123 O.2       2 UNK        -0.5000 
     62 CA          6.3456  -15.3884  -45.8703 C.3       2 UNK         0.1400 
     63 CB          6.4985  -16.9115  -45.7359 C.3       2 UNK        -0.1800 
     64 N           5.2177  -15.1031  -46.7657 N.am      2 UNK        -0.5000 
     65 C           4.9229  -13.8942  -47.2712 C.2       1 UNK         0.5000 
     66 O           5.6431  -12.9063  -47.1119 O.2       1 UNK        -0.5000 
     67 C           0.1258  -23.4772  -49.6506 C.2       11 UNK         0.5000 
     68 O           0.1452  -24.6970  -49.4974 O.2       11 UNK        -0.5000 
     69 N          -0.7993  -22.8341  -50.3785 N.am      12 UNK        -0.5000 
     70 CA         -1.9308  -23.4801  -51.0410 C.3       12 UNK         0.1400 
     71 CB         -2.6110  -22.4683  -51.9730 C.3       12 UNK        -0.1800 
     72 C          -2.9366  -24.0838  -50.0421 C.2       12 UNK         0.5000 
     73 O          -3.4439  -25.1785  -50.2848 O.2       12 UNK        -0.5000 
     74 N          -3.1616  -23.3969  -48.9116 N.am      13 UNK        -0.5000 
     75 CA         -4.0104  -23.8856  -47.8238 C.3       13 UNK         0.1400 
     76 CB         -4.3495  -22.7444  -46.8544 C.3       13 UNK        -0.1800 
     77 C          -3.3525  -25.0578  -47.0772 C.2       13 UNK         0.5000 
     78 O          -4.0355  -26.0323  -46.7640 O.2       13 UNK        -0.5000 
     79 N          -2.0316  -24.9716  -46.8567 N.am      14 UNK        -0.5000 
     80 CA         -1.2135  -26.0417  -46.2775 C.3       14 UNK         0.1400 
     81 CB          0.2011  -25.5117  -46.0000 C.3       14 UNK        -0.1800 
     82 C          -1.1668  -27.3059  -47.1609 C.2       14 UNK         0.5000 
     83 O          -1.1821  -28.4186  -46.6342 O.2       14 UNK        -0.5000 
     84 N          -1.1595  -27.1105  -48.4866 N.am      15 UNK        -0.5000 
     85 CA         -1.2628  -28.1602  -49.5034 C.3       15 UNK         0.1400 
     86 CB         -0.7346  -27.6065  -50.8368 C.3       15 UNK        -0.1800 
     87 C          -2.6924  -28.7192  -49.6796 C.2       15 UNK         0.5000 
     88 O          -2.8625  -29.6966  -50.4097 O.2       15 UNK        -0.5000 
     89 N          -3.6846  -28.0979  -49.0241 N.am      16 UNK        -0.5000 
     90 CA         -5.1160  -28.4122  -49.0524 C.3       16 UNK         0.1400 
     91 CB         -5.3900  -29.8053  -48.4472 C.3       16 UNK        -0.1800 
     92 C          -5.7603  -28.2095  -50.4404 C.2       16 UNK         0.5000 
     93 O          -6.6515  -28.9693  -50.8266 O.2       16 UNK        -0.5000 
     94 N          -5.3109  -27.1748  -51.1620 N.am      17 UNK        -0.5000 
     95 CA         -5.9106  -26.7087  -52.4109 C.3       17 UNK         0.1400 
     96 CB         -4.8562  -25.9044  -53.1909 C.3       17 UNK        -0.1800 
     97 C          -7.1651  -25.8514  -52.1433 C.2       17 UNK         0.5000 
     98 O          -7.4688  -25.5221  -50.9934 O.2       17 UNK        -0.5000 
     99 N          -7.8691  -25.4872  -53.2235 N.am      18 UNK        -0.5000 
    100 CA        -9.0212  -24.5807  -53.1863 C.3       18 UNK         0.1400 
    101 CB        -9.7875  -24.6865  -54.5140 C.3       18 UNK        -0.1800 
    102 C         -8.6242  -23.1163  -52.9059 C.2       18 UNK         0.5000 
    103 O         -9.4171  -22.3719  -52.3271 O.2       18 UNK        -0.5000 
    104 N         -7.4094  -22.7329  -53.3203 N.am      19 UNK        -0.5000 
    105 CA        -6.7975  -21.4371  -53.0323 C.3       19 UNK         0.1400 
    106 CB        -5.7195  -21.1551  -54.0923 C.3       19 UNK        -0.1800 
    107 C         -6.1863  -21.4089  -51.6191 C.2       19 UNK         0.5000 
    108 O         -5.8851  -22.4617  -51.0538 O.2       19 UNK        -0.5000 
    109 N         -5.9762  -20.1969  -51.0971 N.am      20 UNK        -0.5000 
    110 CA        -5.3134  -19.9422  -49.8230 C.3       20 UNK         0.1400 
    111 CB        -6.3619  -19.6568  -48.7297 C.3       20 UNK        -0.1800 
    112 C         -4.3025  -18.8089  -50.0375 C.2       20 UNK         0.5000 
    113 O         -3.2059  -19.0713  -50.5303 O.2       20 UNK        -0.5000 
    114 N         -4.6768  -17.5717  -49.6917 N.am      21 UNK        -0.5000 
    115 CA        -3.8774  -16.3671  -49.9093 C.3       21 UNK         0.1400 
    116 CB        -4.3579  -15.2693  -48.9437 C.3       21 UNK        -0.1800 
    117 C         -3.9487  -15.9343  -51.3887 C.2       21 UNK         0.5000 
    118 O         -4.6969  -15.0167  -51.7290 O.2       21 UNK        -0.5000 
    119 N         -3.2065  -16.6463  -52.2463 N.am      22 UNK        -0.5000 
    120 CA        -3.1617  -16.4597  -53.7074 C.3       22 UNK         0.1400 
    121 C         -2.5941  -15.0973  -54.2139 C.2       22 UNK         0.5000 
    122 N         -1.9216  -14.3041  -53.3888 N.am      22 UNK        -0.7600 
    123 O         -2.7794  -14.7512  -55.3776 O.2       22 UNK        -0.5000 
    124 C124       -2.4936  -17.6695  -54.4178 C.3       23 UNK        -0.0398 
    125 S125       -0.6965  -17.8343  -54.1041 S.3       23 UNK        -0.2404 
    126 C126       -0.6229  -19.1921  -52.8945 C.3       23 UNK        -0.0205 
    127 H127        1.2316  -11.2485  -45.9865 H         1 UNK         0.0600 
    128 H128        0.6644  -10.3103  -47.3658 H         1 UNK         0.0600 
    129 H129        2.1749   -9.8672  -46.5616 H         1 UNK         0.0600 
    130 H130        2.6975  -12.9204  -46.3211 H         1 UNK         0.3000 
    131 H131        3.8749  -13.3509  -49.0314 H         1 UNK         0.0600 
    132 H132        3.4584  -15.7684  -48.8401 H         1 UNK         0.0800 
    133 H133        2.6252  -15.5492  -47.3101 H         1 UNK         0.0800 
    134 H134       -0.6071  -16.3391  -48.7998 H         1 UNK         0.0800 
    135 H135        0.7122  -16.7989  -47.7674 H         1 UNK         0.0800 
    136 H136       -0.9242  -17.3363  -50.9366 H         1 UNK         0.1150 
    137 H137        1.8153  -20.3040  -52.3493 H         1 UNK         0.1150 
    138 H138        2.7254  -18.0528  -48.8146 H         1 UNK         0.1150 
    139 H139        4.0289  -20.4435  -51.3815 H         1 UNK         0.0800 
    140 H140        4.5211  -19.2924  -50.1688 H         1 UNK         0.0800 
    141 H141        2.9159  -23.4242  -49.9556 H         1 UNK         0.0800 
    142 H142        2.1617  -22.1383  -50.8440 H         1 UNK         0.0800 
    143 H143        1.4814  -23.1299  -48.0364 H         1 UNK         0.0600 
    144 H144        1.0477  -20.4878  -48.8910 H         1 UNK         0.3000 
    145 H145       -0.5763  -19.1340  -48.1662 H         1 UNK         0.0600 
    146 H146       -2.8467  -20.2944  -47.9929 H         1 UNK         0.0600 
    147 H147       -2.7600  -18.6985  -47.2685 H         1 UNK         0.0600 
    148 H148       -2.7190  -20.1336  -46.2482 H         1 UNK         0.0600 
    149 H149       -0.9483  -18.7164  -45.4912 H         1 UNK         0.3000 
    150 H150        1.9936  -18.9266  -43.8792 H         1 UNK         0.0600 
    151 H151        2.9780  -17.1392  -45.3183 H         1 UNK         0.0600 
    152 H152        2.3537  -16.4680  -43.8210 H         1 UNK         0.0600 
    153 H153        1.4418  -16.2752  -45.3132 H         1 UNK         0.0600 
    154 H154       -0.1413  -17.0106  -43.6164 H         1 UNK         0.3000 
    155 H155       -2.4432  -19.1947  -41.9848 H         1 UNK         0.0600 
    156 H156       -0.7203  -16.8642  -40.9887 H         1 UNK         0.0600 
    157 H157       -0.9382  -18.4164  -40.1948 H         1 UNK         0.0600 
    158 H158       -2.2978  -17.3130  -40.3420 H         1 UNK         0.0600 
    159 H159       -2.1669  -16.4202  -42.9925 H         1 UNK         0.3000 
    160 H160       -4.2688  -16.9703  -45.7628 H         1 UNK         0.0600 
    161 H161       -5.1708  -15.5839  -43.1815 H         1 UNK         0.0600 
    162 H162       -6.0631  -16.8377  -44.0349 H         1 UNK         0.0600 
    163 H163       -5.8050  -15.2780  -44.7995 H         1 UNK         0.0600 
    164 H164       -3.3117  -14.5849  -44.4518 H         1 UNK         0.3000 
    165 H165       -0.0898  -14.5669  -45.9293 H         1 UNK         0.0600 
    166 H166       -0.8282  -12.4283  -46.9288 H         1 UNK         0.0600 
    167 H167       -1.5061  -13.7763  -47.8229 H         1 UNK         0.0600 
    168 H168       -2.5203  -12.8714  -46.7043 H         1 UNK         0.0600 
    169 H169       -1.2522  -12.5054  -44.4973 H         1 UNK         0.3000 
    170 H170       -1.5964  -12.4056  -42.1409 H         1 UNK         0.0600 
    171 H171       -1.6907  -14.4192  -40.6605 H         1 UNK         0.0600 
    172 H172        0.0671  -14.4497  -40.5698 H         1 UNK         0.0600 
    173 H173       -0.8317  -13.0946  -39.8908 H         1 UNK         0.0600 
    174 H174        1.2812  -12.6274  -41.5924 H         1 UNK         0.3000 
    175 H175        2.3057  -10.2498  -43.9445 H         1 UNK         0.0600 
    176 H176        2.1464   -9.8116  -40.9148 H         1 UNK         0.0600 
    177 H177        3.2639   -9.0139  -42.0230 H         1 UNK         0.0600 
    178 H178        1.5398   -8.7024  -42.1386 H         1 UNK         0.0600 
    179 H179        3.7275  -11.4930  -41.8367 H         1 UNK         0.3000 
    180 H180        5.3874  -13.0307  -42.6174 H         1 UNK         0.0600 
    181 H181        3.1699  -15.1059  -42.0816 H         1 UNK         0.0600 
    182 H182        3.8254  -13.9600  -40.9208 H         1 UNK         0.0600 
    183 H183        4.8342  -15.2649  -41.5232 H         1 UNK         0.0600 
    184 H184        4.1876  -14.6519  -44.7333 H         1 UNK         0.3000 
    185 H185        7.2545  -14.9890  -46.3253 H         1 UNK         0.0600 
    186 H186        7.3490  -17.1634  -45.1010 H         1 UNK         0.0600 
    187 H187        5.6127  -17.3688  -45.2931 H         1 UNK         0.0600 
    188 H188        6.6696  -17.3790  -46.7058 H         1 UNK         0.0600 
    189 H189        4.6046  -15.8805  -46.9570 H         1 UNK         0.3000 
    190 H190       -0.7435  -21.8288  -50.4486 H         1 UNK         0.3000 
    191 H191       -1.5429  -24.2965  -51.6536 H         1 UNK         0.0600 
    192 H192       -3.4487  -22.9268  -52.4969 H         1 UNK         0.0600 
    193 H193       -1.9193  -22.0995  -52.7300 H         1 UNK         0.0600 
    194 H194       -2.9985  -21.6106  -51.4235 H         1 UNK         0.0600 
    195 H195       -2.6540  -22.5414  -48.7489 H         1 UNK         0.3000 
    196 H196       -4.9456  -24.2445  -48.2602 H         1 UNK         0.0600 
    197 H197       -3.4637  -22.3761  -46.3380 H         1 UNK         0.0600 
    198 H198       -4.8174  -21.9071  -47.3699 H         1 UNK         0.0600 
    199 H199       -5.0498  -23.0838  -46.0903 H         1 UNK         0.0600 
    200 H200       -1.5539  -24.1111  -47.1025 H         1 UNK         0.3000 
    201 H201       -1.6637  -26.3217  -45.3229 H         1 UNK         0.0600 
    202 H202        0.1749  -24.6339  -45.3539 H         1 UNK         0.0600 
    203 H203        0.7167  -25.2352  -46.9192 H         1 UNK         0.0600 
    204 H204        0.8080  -26.2673  -45.4998 H         1 UNK         0.0600 
    205 H205       -1.0577  -26.1619  -48.8325 H         1 UNK         0.3000 
    206 H206       -0.6237  -28.9935  -49.2049 H         1 UNK         0.0600 
    207 H207        0.2920  -27.2533  -50.7389 H         1 UNK         0.0600 
    208 H208       -0.7404  -28.3739  -51.6118 H         1 UNK         0.0600 
    209 H209       -1.3427  -26.7753  -51.1944 H         1 UNK         0.0600 
    210 H210       -3.4387  -27.2975  -48.4558 H         1 UNK         0.3000 
    211 H211       -5.5924  -27.6791  -48.4001 H         1 UNK         0.0600 
    212 H212       -6.4604  -29.9732  -48.3232 H         1 UNK         0.0600 
    213 H213       -4.9317  -29.9038  -47.4631 H         1 UNK         0.0600 
    214 H214       -5.0058  -30.6065  -49.0790 H         1 UNK         0.0600 
    215 H215       -4.6063  -26.5624  -50.7563 H         1 UNK         0.3000 
    216 H216       -6.2029  -27.5737  -53.0098 H         1 UNK         0.0600 
    217 H217       -4.6287  -24.9612  -52.6946 H         1 UNK         0.0600 
    218 H218       -5.2016  -25.6689  -54.1978 H         1 UNK         0.0600 
    219 H219       -3.9252  -26.4629  -53.2914 H         1 UNK         0.0600 
    220 H220       -7.5778  -25.8100  -54.1351 H         1 UNK         0.3000 
    221 H221       -9.6879  -24.9021  -52.3831 H         1 UNK         0.0600 
    222 H222      -10.1345  -25.7050  -54.6893 H         1 UNK         0.0600 
    223 H223       -9.1684  -24.3907  -55.3619 H         1 UNK         0.0600 
    224 H224      -10.6670  -24.0413  -54.5091 H         1 UNK         0.0600 
    225 H225       -6.8122  -23.4264  -53.7430 H         1 UNK         0.3000 
    226 H226       -7.5610  -20.6588  -53.0962 H         1 UNK         0.0600 
    227 H227       -4.9445  -21.9219  -54.0951 H         1 UNK         0.0600 
    228 H228       -6.1531  -21.1166  -55.0918 H         1 UNK         0.0600 
    229 H229       -5.2310  -20.1960  -53.9154 H         1 UNK         0.0600 
    230 H230       -6.2110  -19.3793  -51.6424 H         1 UNK         0.3000 
    231 H231       -4.7317  -20.8144  -49.5192 H         1 UNK         0.0600 
    232 H232       -7.0403  -18.8499  -49.0082 H         1 UNK         0.0600 
    233 H233       -5.8841  -19.3869  -47.7866 H         1 UNK         0.0600 
    234 H234       -6.9686  -20.5425  -48.5396 H         1 UNK         0.0600 
    235 H235       -5.6040  -17.4313  -49.3182 H         1 UNK         0.3000 
    236 H236       -2.8355  -16.5823  -49.6663 H         1 UNK         0.0600 
    237 H237       -4.2393  -15.5804  -47.9061 H         1 UNK         0.0600 
    238 H238       -3.7796  -14.3540  -49.0753 H         1 UNK         0.0600 
    239 H239       -5.4084  -15.0211  -49.0998 H         1 UNK         0.0600 
    240 H240       -2.6922  -17.4383  -51.8833 H         1 UNK         0.3000 
    241 H241       -4.2048  -16.4579  -54.0297 H         1 UNK         0.0600 
    242 H242       -1.5642  -13.4249  -53.7275 H         1 UNK         0.3800 
    243 H243       -1.7554  -14.5797  -52.4353 H         1 UNK         0.3800 
    244 H244       -2.6320  -17.5839  -55.4969 H         1 UNK         0.0800 
    245 H245       -3.0037  -18.5928  -54.1408 H         1 UNK         0.0800 
    246 H246       -0.3179  -20.1043  -53.4091 H         1 UNK         0.0800 
    247 H247       -1.6089  -19.3954  -52.4804 H         1 UNK         0.0800 
@<TRIPOS>BOND
     1    1    2 1    
     2    1  127 1    
     3    1  128 1    
     4    1  129 1    
     5    2    3 2    
     6    2    4 am   BACKBONE|DICT|INTERRES
     7    4    5 1    
     8    4  130 1    
     9    5    6 1    
    10    5   65 1    
    11    5  131 1    
    12    6    7 1    
    13    6  132 1    
    14    6  133 1    
    15    7    8 1    
    16    8    9 1    
    17    8  134 1    
    18    8  135 1    
    19    9   10 ar   
    20    9   14 ar   
    21   10   11 ar   
    22   10  136 1    
    23   11   12 ar   
    24   11  126 1    
    25   12   13 ar   
    26   12  137 1    
    27   13   14 ar   
    28   13   15 1    
    29   14  138 1    
    30   15   16 1    
    31   15  139 1    
    32   15  140 1    
    33   16   17 1    
    34   17   18 1    
    35   17  141 1    
    36   17  142 1    
    37   18   19 1    
    38   18   67 1    
    39   18  143 1    
    40   19   20 am   BACKBONE|DICT|INTERRES
    41   19  144 1    
    42   20   21 2    
    43   20   22 1    
    44   22   23 1    
    45   22   24 1    
    46   22  145 1    
    47   23  146 1    
    48   23  147 1    
    49   23  148 1    
    50   24   25 am   BACKBONE|DICT|INTERRES
    51   24  149 1    
    52   25   26 2    
    53   25   27 1    
    54   27   28 1    
    55   27   29 1    
    56   27  150 1    
    57   28  151 1    
    58   28  152 1    
    59   28  153 1    
    60   29   30 am   BACKBONE|DICT|INTERRES
    61   29  154 1    
    62   30   31 2    
    63   30   32 1    
    64   32   33 1    
    65   32   34 1    
    66   32  155 1    
    67   33  156 1    
    68   33  157 1    
    69   33  158 1    
    70   34   35 am   BACKBONE|DICT|INTERRES
    71   34  159 1    
    72   35   36 2    
    73   35   37 1    
    74   37   38 1    
    75   37   39 1    
    76   37  160 1    
    77   38  161 1    
    78   38  162 1    
    79   38  163 1    
    80   39   40 am   BACKBONE|DICT|INTERRES
    81   39  164 1    
    82   40   41 2    
    83   40   42 1    
    84   42   43 1    
    85   42   44 1    
    86   42  165 1    
    87   43  166 1    
    88   43  167 1    
    89   43  168 1    
    90   44   45 am   BACKBONE|DICT|INTERRES
    91   44  169 1    
    92   45   46 2    
    93   45   47 1    
    94   47   48 1    
    95   47   49 1    
    96   47  170 1    
    97   48  171 1    
    98   48  172 1    
    99   48  173 1    
   100   49   50 am   BACKBONE|DICT|INTERRES
   101   49  174 1    
   102   50   51 2    
   103   50   52 1    
   104   52   53 1    
   105   52   54 1    
   106   52  175 1    
   107   53  176 1    
   108   53  177 1    
   109   53  178 1    
   110   54   55 am   BACKBONE|DICT|INTERRES
   111   54  179 1    
   112   55   56 2    
   113   55   57 1    
   114   57   58 1    
   115   57   59 1    
   116   57  180 1    
   117   58  181 1    
   118   58  182 1    
   119   58  183 1    
   120   59   60 am   BACKBONE|DICT|INTERRES
   121   59  184 1    
   122   60   61 2    
   123   60   62 1    
   124   62   63 1    
   125   62   64 1    
   126   62  185 1    
   127   63  186 1    
   128   63  187 1    
   129   63  188 1    
   130   64   65 am   BACKBONE|DICT|INTERRES
   131   64  189 1    
   132   65   66 2    
   133   67   68 2    
   134   67   69 am   BACKBONE|DICT|INTERRES
   135   69   70 1    
   136   69  190 1    
   137   70   71 1    
   138   70   72 1    
   139   70  191 1    
   140   71  192 1    
   141   71  193 1    
   142   71  194 1    
   143   72   73 2    
   144   72   74 am   BACKBONE|DICT|INTERRES
   145   74   75 1    
   146   74  195 1    
   147   75   76 1    
   148   75   77 1    
   149   75  196 1    
   150   76  197 1    
   151   76  198 1    
   152   76  199 1    
   153   77   78 2    
   154   77   79 am   BACKBONE|DICT|INTERRES
   155   79   80 1    
   156   79  200 1    
   157   80   81 1    
   158   80   82 1    
   159   80  201 1    
   160   81  202 1    
   161   81  203 1    
   162   81  204 1    
   163   82   83 2    
   164   82   84 am   BACKBONE|DICT|INTERRES
   165   84   85 1    
   166   84  205 1    
   167   85   86 1    
   168   85   87 1    
   169   85  206 1    
   170   86  207 1    
   171   86  208 1    
   172   86  209 1    
   173   87   88 2    
   174   87   89 am   BACKBONE|DICT|INTERRES
   175   89   90 1    
   176   89  210 1    
   177   90   91 1    
   178   90   92 1    
   179   90  211 1    
   180   91  212 1    
   181   91  213 1    
   182   91  214 1    
   183   92   93 2    
   184   92   94 am   BACKBONE|DICT|INTERRES
   185   94   95 1    
   186   94  215 1    
   187   95   96 1    
   188   95   97 1    
   189   95  216 1    
   190   96  217 1    
   191   96  218 1    
   192   96  219 1    
   193   97   98 2    
   194   97   99 am   BACKBONE|DICT|INTERRES
   195   99  100 1    
   196   99  220 1    
   197  100  101 1    
   198  100  102 1    
   199  100  221 1    
   200  101  222 1    
   201  101  223 1    
   202  101  224 1    
   203  102  103 2    
   204  102  104 am   BACKBONE|DICT|INTERRES
   205  104  105 1    
   206  104  225 1    
   207  105  106 1    
   208  105  107 1    
   209  105  226 1    
   210  106  227 1    
   211  106  228 1    
   212  106  229 1    
   213  107  108 2    
   214  107  109 am   BACKBONE|DICT|INTERRES
   215  109  110 1    
   216  109  230 1    
   217  110  111 1    
   218  110  112 1    
   219  110  231 1    
   220  111  232 1    
   221  111  233 1    
   222  111  234 1    
   223  112  113 2    
   224  112  114 am   BACKBONE|DICT|INTERRES
   225  114  115 1    
   226  114  235 1    
   227  115  116 1    
   228  115  117 1    
   229  115  236 1    
   230  116  237 1    
   231  116  238 1    
   232  116  239 1    
   233  117  118 2    
   234  117  119 am   BACKBONE|DICT|INTERRES
   235  119  120 1    
   236  119  240 1    
   237  120  121 1    
   238  120  124 1    
   239  120  241 1    
   240  121  122 am   BACKBONE|DICT|INTERRES
   241  121  123 2    
   242  122  242 1    
   243  122  243 1    
   244  124  125 1    
   245  124  244 1    
   246  124  245 1    
   247  125  126 1    
   248  126  246 1    
   249  126  247 1    
@<TRIPOS>SUBSTRUCTURE
     1 UNK         1 GROUP             0       ****    0 ROOT    
