@<TRIPOS>MOLECULE
3R540
247   249    1
SMALL
USER_CHARGES


@<TRIPOS>ATOM
      1 CA         -5.3052   -7.2271  -48.9876 C.3       0 UNK        -0.1800 
      2 C          -4.3729   -8.2981  -49.5367 C.2       0 UNK         0.5000 
      3 O          -3.5561   -8.0096  -50.4119 O.2       0 UNK        -0.5000 
      4 N          -4.4984   -9.5312  -49.0336 N.am      1 UNK        -0.5000 
      5 CA         -3.6437  -10.6722  -49.3736 C.3       1 UNK         0.1400 
      6 C6         -4.2802  -12.0213  -48.9509 C.3       23 UNK        -0.0398 
      7 S7         -4.8136  -12.1008  -47.2019 S.3       23 UNK        -0.2404 
      8 C8         -6.2238  -13.2471  -47.3011 C.3       23 UNK        -0.0205 
      9 C9         -5.7689  -14.6926  -47.4394 C.ar      23 UNK        -0.0193 
     10 C10        -5.5401  -15.2444  -48.7040 C.ar      23 UNK        -0.1150 
     11 C11        -5.1282  -16.5738  -48.8324 C.ar      23 UNK        -0.0193 
     12 C12        -4.9645  -17.3572  -47.6881 C.ar      23 UNK        -0.1150 
     13 C13        -5.1990  -16.8213  -46.4202 C.ar      23 UNK        -0.0193 
     14 C14        -5.5939  -15.4856  -46.3001 C.ar      23 UNK        -0.1150 
     15 C15        -5.0592  -17.7061  -45.1930 C.3       23 UNK        -0.0205 
     16 S16        -3.3162  -18.0270  -44.7782 S.3       23 UNK        -0.2404 
     17 C17        -3.5253  -19.4742  -43.6909 C.3       23 UNK        -0.0398 
     18 CA         -3.3040  -20.7977  -44.4603 C.3       11 UNK         0.1400 
     19 N          -1.8938  -21.0244  -44.8045 N.am      11 UNK        -0.5000 
     20 C          -1.4338  -22.0509  -45.5342 C.2       10 UNK         0.5000 
     21 O          -2.1599  -22.8975  -46.0507 O.2       10 UNK        -0.5000 
     22 CA          0.0874  -22.2061  -45.6570 C.3       10 UNK         0.1400 
     23 CB          0.6583  -21.2811  -46.7419 C.3       10 UNK        -0.1800 
     24 N           0.7359  -21.9769  -44.3660 N.am      10 UNK        -0.5000 
     25 C           0.7322  -22.8755  -43.3682 C.2       9 UNK         0.5000 
     26 O           0.2945  -24.0192  -43.4884 O.2       9 UNK        -0.5000 
     27 CA          1.2620  -22.4219  -41.9944 C.3       9 UNK         0.1400 
     28 CB          2.7137  -22.8695  -41.7783 C.3       9 UNK        -0.1800 
     29 N           1.1599  -20.9765  -41.7959 N.am      9 UNK        -0.5000 
     30 C           0.0077  -20.3395  -41.5440 C.2       8 UNK         0.5000 
     31 O          -1.0767  -20.9121  -41.4342 O.2       8 UNK        -0.5000 
     32 CA          0.0658  -18.8017  -41.4604 C.3       8 UNK         0.1400 
     33 CB          0.4079  -18.3517  -40.0328 C.3       8 UNK        -0.1800 
     34 N           1.0178  -18.2017  -42.3990 N.am      8 UNK        -0.5000 
     35 C           0.9732  -18.3455  -43.7305 C.2       7 UNK         0.5000 
     36 O           0.1089  -19.0062  -44.3057 O.2       7 UNK        -0.5000 
     37 CA          2.0885  -17.6855  -44.5647 C.3       7 UNK         0.1400 
     38 CB          2.9655  -16.6911  -43.7722 C.3       7 UNK        -0.1800 
     39 N           2.9282  -18.6818  -45.2373 N.am      7 UNK        -0.5000 
     40 C           3.6528  -19.6571  -44.6635 C.2       6 UNK         0.5000 
     41 O           3.6446  -19.8787  -43.4514 O.2       6 UNK        -0.5000 
     42 CA          4.5314  -20.5399  -45.5793 C.3       6 UNK         0.1400 
     43 CB          4.3747  -22.0366  -45.2629 C.3       6 UNK        -0.1800 
     44 N           4.2602  -20.3355  -47.0024 N.am      6 UNK        -0.5000 
     45 C           4.8975  -19.4638  -47.7916 C.2       5 UNK         0.5000 
     46 O           5.8229  -18.7455  -47.4098 O.2       5 UNK        -0.5000 
     47 CA          4.4121  -19.3499  -49.2525 C.3       5 UNK         0.1400 
     48 CB          3.3301  -20.3800  -49.6542 C.3       5 UNK        -0.1800 
     49 N           3.9583  -17.9897  -49.5530 N.am      5 UNK        -0.5000 
     50 C           2.9941  -17.3076  -48.9193 C.2       4 UNK         0.5000 
     51 O           2.3110  -17.7676  -47.9997 O.2       4 UNK        -0.5000 
     52 CA          2.7486  -15.8772  -49.4307 C.3       4 UNK         0.1400 
     53 CB          1.8907  -15.8965  -50.7026 C.3       4 UNK        -0.1800 
     54 N           2.0822  -15.0345  -48.4432 N.am      4 UNK        -0.5000 
     55 C           2.6414  -14.5340  -47.3369 C.2       3 UNK         0.5000 
     56 O           3.8091  -14.7464  -47.0056 O.2       3 UNK        -0.5000 
     57 CA          1.7497  -13.5832  -46.5076 C.3       3 UNK         0.1400 
     58 CB          2.4550  -13.0485  -45.2480 C.3       3 UNK        -0.1800 
     59 N           1.3106  -12.4409  -47.3143 N.am      3 UNK        -0.5000 
     60 C           0.3194  -12.4609  -48.2131 C.2       2 UNK         0.5000 
     61 O          -0.3860  -13.4508  -48.4287 O.2       2 UNK        -0.5000 
     62 CA          0.1455  -11.1905  -49.0607 C.3       2 UNK         0.1400 
     63 CB          1.0592  -11.2510  -50.2952 C.3       2 UNK        -0.1800 
     64 N          -1.2370  -11.0707  -49.5085 N.am      2 UNK        -0.5000 
     65 C          -2.2205  -10.5132  -48.7967 C.2       1 UNK         0.5000 
     66 O          -2.0422   -9.9203  -47.7285 O.2       1 UNK        -0.5000 
     67 C          -3.9141  -21.9901  -43.6946 C.2       11 UNK         0.5000 
     68 O          -5.0137  -22.4265  -44.0371 O.2       11 UNK        -0.5000 
     69 N          -3.1612  -22.5464  -42.7342 N.am      12 UNK        -0.5000 
     70 CA         -3.5086  -23.7653  -41.9954 C.3       12 UNK         0.1400 
     71 CB         -2.4863  -23.9751  -40.8686 C.3       12 UNK        -0.1800 
     72 C          -3.6021  -25.0303  -42.8773 C.2       12 UNK         0.5000 
     73 O          -4.2921  -25.9781  -42.5017 O.2       12 UNK        -0.5000 
     74 N          -2.9343  -25.0127  -44.0375 N.am      13 UNK        -0.5000 
     75 CA         -2.9483  -26.0585  -45.0590 C.3       13 UNK         0.1400 
     76 CB         -1.5057  -26.2835  -45.5473 C.3       13 UNK        -0.1800 
     77 C          -3.9013  -25.7114  -46.2235 C.2       13 UNK         0.5000 
     78 O          -3.7094  -26.2170  -47.3298 O.2       13 UNK        -0.5000 
     79 N          -4.8992  -24.8487  -45.9716 N.am      14 UNK        -0.5000 
     80 CA         -5.9260  -24.3825  -46.9116 C.3       14 UNK         0.1400 
     81 CB         -6.8541  -25.5422  -47.3306 C.3       14 UNK        -0.1800 
     82 C          -5.3198  -23.6302  -48.1128 C.2       14 UNK         0.5000 
     83 O          -5.5886  -23.9706  -49.2662 O.2       14 UNK        -0.5000 
     84 N          -4.4702  -22.6416  -47.8023 N.am      15 UNK        -0.5000 
     85 CA         -3.6727  -21.8340  -48.7319 C.3       15 UNK         0.1400 
     86 CB         -4.5768  -20.9535  -49.6160 C.3       15 UNK        -0.1800 
     87 C          -2.6921  -22.7030  -49.5426 C.2       15 UNK         0.5000 
     88 O          -2.5931  -22.5544  -50.7622 O.2       15 UNK        -0.5000 
     89 N          -2.0131  -23.6191  -48.8362 N.am      16 UNK        -0.5000 
     90 CA         -1.1003  -24.6455  -49.3513 C.3       16 UNK         0.1400 
     91 CB          0.2089  -23.9986  -49.8500 C.3       16 UNK        -0.1800 
     92 C          -1.7748  -25.5425  -50.4113 C.2       16 UNK         0.5000 
     93 O          -1.2209  -25.7466  -51.4913 O.2       16 UNK        -0.5000 
     94 N          -2.9846  -26.0214  -50.0851 N.am      17 UNK        -0.5000 
     95 CA         -3.9198  -26.7414  -50.9553 C.3       17 UNK         0.1400 
     96 CB         -3.3732  -28.1394  -51.3123 C.3       17 UNK        -0.1800 
     97 C          -4.3287  -25.9081  -52.1905 C.2       17 UNK         0.5000 
     98 O          -4.3155  -26.4138  -53.3145 O.2       17 UNK        -0.5000 
     99 N          -4.6775  -24.6371  -51.9401 N.am      18 UNK        -0.5000 
    100 CA        -5.0626  -23.6018  -52.9041 C.3       18 UNK         0.1400 
    101 CB        -6.4525  -23.9138  -53.4962 C.3       18 UNK        -0.1800 
    102 C         -3.9868  -23.3381  -53.9806 C.2       18 UNK         0.5000 
    103 O         -4.3063  -23.2745  -55.1700 O.2       18 UNK        -0.5000 
    104 N         -2.7281  -23.1985  -53.5453 N.am      19 UNK        -0.5000 
    105 CA        -1.5639  -23.0267  -54.4180 C.3       19 UNK         0.1400 
    106 CB        -0.9657  -24.4049  -54.7538 C.3       19 UNK        -0.1800 
    107 C         -0.5025  -22.0644  -53.8503 C.2       19 UNK         0.5000 
    108 O          0.5597  -21.9320  -54.4600 O.2       19 UNK        -0.5000 
    109 N         -0.7815  -21.3965  -52.7191 N.am      20 UNK        -0.5000 
    110 CA         0.1381  -20.4551  -52.0669 C.3       20 UNK         0.1400 
    111 CB        -0.3958  -20.0879  -50.6732 C.3       20 UNK        -0.1800 
    112 C          0.4355  -19.1769  -52.8774 C.2       20 UNK         0.5000 
    113 O          1.4954  -18.5865  -52.6745 O.2       20 UNK        -0.5000 
    114 N         -0.4874  -18.7869  -53.7729 N.am      21 UNK        -0.5000 
    115 CA        -0.4407  -17.5978  -54.6354 C.3       21 UNK         0.1400 
    116 CB         0.7241  -17.6873  -55.6441 C.3       21 UNK        -0.1800 
    117 C         -0.4342  -16.2955  -53.8081 C.2       21 UNK         0.5000 
    118 O          0.5241  -15.5230  -53.8506 O.2       21 UNK        -0.5000 
    119 N         -1.5159  -16.1087  -53.0437 N.am      22 UNK        -0.5000 
    120 CA        -1.7103  -15.0583  -52.0273 C.3       22 UNK         0.1400 
    121 C         -1.7863  -13.5889  -52.5447 C.2       22 UNK         0.5000 
    122 N         -1.7531  -13.3281  -53.8443 N.am      22 UNK        -0.7600 
    123 O         -1.8941  -12.6631  -51.7455 O.2       22 UNK        -0.5000 
    124 C124       -2.9321  -15.3618  -51.1191 C.3       23 UNK        -0.0398 
    125 S125       -3.0867  -17.1091  -50.6082 S.3       23 UNK        -0.2404 
    126 C126       -4.8590  -17.1737  -50.2017 C.3       23 UNK        -0.0205 
    127 H127       -5.9795   -7.6264  -48.2294 H         1 UNK         0.0600 
    128 H128       -5.9089   -6.8063  -49.7917 H         1 UNK         0.0600 
    129 H129       -4.7261   -6.4212  -48.5366 H         1 UNK         0.0600 
    130 H130       -5.1590   -9.7012  -48.2884 H         1 UNK         0.3000 
    131 H131       -3.5485  -10.6889  -50.4620 H         1 UNK         0.0600 
    132 H132       -5.1447  -12.2079  -49.5887 H         1 UNK         0.0800 
    133 H133       -3.5928  -12.8468  -49.1385 H         1 UNK         0.0800 
    134 H134       -6.8252  -13.1365  -46.3975 H         1 UNK         0.0800 
    135 H135       -6.8769  -12.9704  -48.1301 H         1 UNK         0.0800 
    136 H136       -5.6768  -14.6385  -49.5881 H         1 UNK         0.1150 
    137 H137       -4.6474  -18.3859  -47.7819 H         1 UNK         0.1150 
    138 H138       -5.7758  -15.0649  -45.3210 H         1 UNK         0.1150 
    139 H139       -5.5561  -17.2553  -44.3325 H         1 UNK         0.0800 
    140 H140       -5.5711  -18.6506  -45.3845 H         1 UNK         0.0800 
    141 H141       -4.5220  -19.4341  -43.2469 H         1 UNK         0.0800 
    142 H142       -2.8267  -19.3913  -42.8586 H         1 UNK         0.0800 
    143 H143       -3.8510  -20.7319  -45.4032 H         1 UNK         0.0600 
    144 H144       -1.2290  -20.3287  -44.4746 H         1 UNK         0.3000 
    145 H145        0.2873  -23.2329  -45.9715 H         1 UNK         0.0600 
    146 H146        1.7083  -21.4991  -46.9237 H         1 UNK         0.0600 
    147 H147        0.1336  -21.4246  -47.6865 H         1 UNK         0.0600 
    148 H148        0.5710  -20.2266  -46.4847 H         1 UNK         0.0600 
    149 H149        1.0388  -21.0325  -44.1699 H         1 UNK         0.3000 
    150 H150        0.6516  -22.9161  -41.2357 H         1 UNK         0.0600 
    151 H151        2.8263  -23.9400  -41.9544 H         1 UNK         0.0600 
    152 H152        3.0358  -22.6726  -40.7558 H         1 UNK         0.0600 
    153 H153        3.3977  -22.3510  -42.4463 H         1 UNK         0.0600 
    154 H154        2.0046  -20.4349  -41.9348 H         1 UNK         0.3000 
    155 H155       -0.9259  -18.4196  -41.7090 H         1 UNK         0.0600 
    156 H156       -0.2984  -18.7676  -39.3128 H         1 UNK         0.0600 
    157 H157        0.3635  -17.2665  -39.9395 H         1 UNK         0.0600 
    158 H158        1.4069  -18.6745  -39.7370 H         1 UNK         0.0600 
    159 H159        1.7763  -17.6697  -41.9981 H         1 UNK         0.3000 
    160 H160        1.5841  -17.1246  -45.3528 H         1 UNK         0.0600 
    161 H161        3.5384  -17.1786  -42.9828 H         1 UNK         0.0600 
    162 H162        2.3588  -15.9107  -43.3115 H         1 UNK         0.0600 
    163 H163        3.6779  -16.1965  -44.4328 H         1 UNK         0.0600 
    164 H164        2.9461  -18.5958  -46.2486 H         1 UNK         0.3000 
    165 H165        5.5685  -20.2710  -45.3689 H         1 UNK         0.0600 
    166 H166        4.9500  -22.6488  -45.9577 H         1 UNK         0.0600 
    167 H167        4.7471  -22.2621  -44.2643 H         1 UNK         0.0600 
    168 H168        3.3361  -22.3610  -45.3140 H         1 UNK         0.0600 
    169 H169        3.5001  -20.8685  -47.3972 H         1 UNK         0.3000 
    170 H170        5.2874  -19.5322  -49.8776 H         1 UNK         0.0600 
    171 H171        2.4034  -20.2513  -49.0946 H         1 UNK         0.0600 
    172 H172        3.0869  -20.2828  -50.7120 H         1 UNK         0.0600 
    173 H173        3.6775  -21.4026  -49.5017 H         1 UNK         0.0600 
    174 H174        4.4699  -17.5207  -50.2869 H         1 UNK         0.3000 
    175 H175        3.7124  -15.4213  -49.6667 H         1 UNK         0.0600 
    176 H176        0.9542  -16.4340  -50.5473 H         1 UNK         0.0600 
    177 H177        1.6518  -14.8876  -51.0401 H         1 UNK         0.0600 
    178 H178        2.4182  -16.3885  -51.5198 H         1 UNK         0.0600 
    179 H179        1.1121  -14.8002  -48.6234 H         1 UNK         0.3000 
    180 H180        0.8758  -14.1533  -46.1848 H         1 UNK         0.0600 
    181 H181        3.3337  -12.4532  -45.4995 H         1 UNK         0.0600 
    182 H182        2.7855  -13.8635  -44.6051 H         1 UNK         0.0600 
    183 H183        1.7850  -12.4236  -44.6573 H         1 UNK         0.0600 
    184 H184        1.8697  -11.6041  -47.2296 H         1 UNK         0.3000 
    185 H185        0.4179  -10.3176  -48.4634 H         1 UNK         0.0600 
    186 H186        0.8386  -12.1197  -50.9175 H         1 UNK         0.0600 
    187 H187        0.9459  -10.3602  -50.9131 H         1 UNK         0.0600 
    188 H188        2.1086  -11.3142  -50.0047 H         1 UNK         0.0600 
    189 H189       -1.4741  -11.5988  -50.3477 H         1 UNK         0.3000 
    190 H190       -2.2932  -22.0903  -42.4689 H         1 UNK         0.3000 
    191 H191       -4.4898  -23.6100  -41.5423 H         1 UNK         0.0600 
    192 H192       -1.4843  -24.1415  -41.2642 H         1 UNK         0.0600 
    193 H193       -2.4466  -23.1120  -40.2036 H         1 UNK         0.0600 
    194 H194       -2.7468  -24.8422  -40.2603 H         1 UNK         0.0600 
    195 H195       -2.4179  -24.1781  -44.2829 H         1 UNK         0.3000 
    196 H196       -3.3048  -26.9960  -44.6284 H         1 UNK         0.0600 
    197 H197       -0.8466  -26.5385  -44.7172 H         1 UNK         0.0600 
    198 H198       -1.1003  -25.3944  -46.0295 H         1 UNK         0.0600 
    199 H199       -1.4524  -27.1028  -46.2650 H         1 UNK         0.0600 
    200 H200       -4.9386  -24.4318  -45.0499 H         1 UNK         0.3000 
    201 H201       -6.5328  -23.6560  -46.3692 H         1 UNK         0.0600 
    202 H202       -7.6809  -25.1769  -47.9409 H         1 UNK         0.0600 
    203 H203       -7.2866  -26.0347  -46.4599 H         1 UNK         0.0600 
    204 H204       -6.3276  -26.2968  -47.9157 H         1 UNK         0.0600 
    205 H205       -4.2335  -22.5294  -46.8255 H         1 UNK         0.3000 
    206 H206       -3.0604  -21.1667  -48.1238 H         1 UNK         0.0600 
    207 H207       -5.2418  -20.3417  -49.0078 H         1 UNK         0.0600 
    208 H208       -5.1971  -21.5463  -50.2867 H         1 UNK         0.0600 
    209 H209       -3.9788  -20.2815  -50.2323 H         1 UNK         0.0600 
    210 H210       -2.1756  -23.6350  -47.8336 H         1 UNK         0.3000 
    211 H211       -0.8521  -25.2945  -48.5108 H         1 UNK         0.0600 
    212 H212        0.6719  -23.3914  -49.0729 H         1 UNK         0.0600 
    213 H213        0.9338  -24.7601  -50.1393 H         1 UNK         0.0600 
    214 H214        0.0415  -23.3627  -50.7192 H         1 UNK         0.0600 
    215 H215       -3.3255  -25.8467  -49.1424 H         1 UNK         0.3000 
    216 H216       -4.8289  -26.8835  -50.3689 H         1 UNK         0.0600 
    217 H217       -4.1184  -28.7216  -51.8552 H         1 UNK         0.0600 
    218 H218       -2.4840  -28.0808  -51.9404 H         1 UNK         0.0600 
    219 H219       -3.1139  -28.7009  -50.4148 H         1 UNK         0.0600 
    220 H220       -4.7007  -24.3429  -50.9675 H         1 UNK         0.3000 
    221 H221       -5.1506  -22.6754  -52.3370 H         1 UNK         0.0600 
    222 H222       -6.4393  -24.8175  -54.1062 H         1 UNK         0.0600 
    223 H223       -7.1928  -24.0518  -52.7081 H         1 UNK         0.0600 
    224 H224       -6.8014  -23.0963  -54.1281 H         1 UNK         0.0600 
    225 H225       -2.5536  -23.2467  -52.5444 H         1 UNK         0.3000 
    226 H226       -1.8866  -22.5671  -55.3543 H         1 UNK         0.0600 
    227 H227       -1.7186  -25.0742  -55.1706 H         1 UNK         0.0600 
    228 H228       -0.1662  -24.3191  -55.4905 H         1 UNK         0.0600 
    229 H229       -0.5454  -24.8833  -53.8698 H         1 UNK         0.0600 
    230 H230       -1.6445  -21.5962  -52.2253 H         1 UNK         0.3000 
    231 H231        1.0907  -20.9710  -51.9318 H         1 UNK         0.0600 
    232 H232        0.2207  -19.3216  -50.2002 H         1 UNK         0.0600 
    233 H233       -0.3877  -20.9530  -50.0129 H         1 UNK         0.0600 
    234 H234       -1.4158  -19.7060  -50.7202 H         1 UNK         0.0600 
    235 H235       -1.3214  -19.3512  -53.8471 H         1 UNK         0.3000 
    236 H236       -1.3667  -17.5965  -55.2124 H         1 UNK         0.0600 
    237 H237        0.6712  -18.6083  -56.2248 H         1 UNK         0.0600 
    238 H238        0.6912  -16.8555  -56.3485 H         1 UNK         0.0600 
    239 H239        1.6969  -17.6576  -55.1529 H         1 UNK         0.0600 
    240 H240       -2.2414  -16.8101  -53.0661 H         1 UNK         0.3000 
    241 H241       -0.8268  -15.0877  -51.3896 H         1 UNK         0.0600 
    242 H242       -1.8066  -12.3725  -54.1592 H         1 UNK         0.3800 
    243 H243       -1.6355  -14.0722  -54.5124 H         1 UNK         0.3800 
    244 H244       -2.8782  -14.7589  -50.2121 H         1 UNK         0.0800 
    245 H245       -3.8524  -15.0709  -51.6285 H         1 UNK         0.0800 
    246 H246       -5.1924  -18.2105  -50.2176 H         1 UNK         0.0800 
    247 H247       -5.4435  -16.6651  -50.9696 H         1 UNK         0.0800 
@<TRIPOS>BOND
     1    1    2 1    
     2    1  127 1    
     3    1  128 1    
     4    1  129 1    
     5    2    3 2    
     6    2    4 am   BACKBONE|DICT|INTERRES
     7    4    5 1    
     8    4  130 1    
     9    5    6 1    
    10    5   65 1    
    11    5  131 1    
    12    6    7 1    
    13    6  132 1    
    14    6  133 1    
    15    7    8 1    
    16    8    9 1    
    17    8  134 1    
    18    8  135 1    
    19    9   10 ar   
    20    9   14 ar   
    21   10   11 ar   
    22   10  136 1    
    23   11   12 ar   
    24   11  126 1    
    25   12   13 ar   
    26   12  137 1    
    27   13   14 ar   
    28   13   15 1    
    29   14  138 1    
    30   15   16 1    
    31   15  139 1    
    32   15  140 1    
    33   16   17 1    
    34   17   18 1    
    35   17  141 1    
    36   17  142 1    
    37   18   19 1    
    38   18   67 1    
    39   18  143 1    
    40   19   20 am   BACKBONE|DICT|INTERRES
    41   19  144 1    
    42   20   21 2    
    43   20   22 1    
    44   22   23 1    
    45   22   24 1    
    46   22  145 1    
    47   23  146 1    
    48   23  147 1    
    49   23  148 1    
    50   24   25 am   BACKBONE|DICT|INTERRES
    51   24  149 1    
    52   25   26 2    
    53   25   27 1    
    54   27   28 1    
    55   27   29 1    
    56   27  150 1    
    57   28  151 1    
    58   28  152 1    
    59   28  153 1    
    60   29   30 am   BACKBONE|DICT|INTERRES
    61   29  154 1    
    62   30   31 2    
    63   30   32 1    
    64   32   33 1    
    65   32   34 1    
    66   32  155 1    
    67   33  156 1    
    68   33  157 1    
    69   33  158 1    
    70   34   35 am   BACKBONE|DICT|INTERRES
    71   34  159 1    
    72   35   36 2    
    73   35   37 1    
    74   37   38 1    
    75   37   39 1    
    76   37  160 1    
    77   38  161 1    
    78   38  162 1    
    79   38  163 1    
    80   39   40 am   BACKBONE|DICT|INTERRES
    81   39  164 1    
    82   40   41 2    
    83   40   42 1    
    84   42   43 1    
    85   42   44 1    
    86   42  165 1    
    87   43  166 1    
    88   43  167 1    
    89   43  168 1    
    90   44   45 am   BACKBONE|DICT|INTERRES
    91   44  169 1    
    92   45   46 2    
    93   45   47 1    
    94   47   48 1    
    95   47   49 1    
    96   47  170 1    
    97   48  171 1    
    98   48  172 1    
    99   48  173 1    
   100   49   50 am   BACKBONE|DICT|INTERRES
   101   49  174 1    
   102   50   51 2    
   103   50   52 1    
   104   52   53 1    
   105   52   54 1    
   106   52  175 1    
   107   53  176 1    
   108   53  177 1    
   109   53  178 1    
   110   54   55 am   BACKBONE|DICT|INTERRES
   111   54  179 1    
   112   55   56 2    
   113   55   57 1    
   114   57   58 1    
   115   57   59 1    
   116   57  180 1    
   117   58  181 1    
   118   58  182 1    
   119   58  183 1    
   120   59   60 am   BACKBONE|DICT|INTERRES
   121   59  184 1    
   122   60   61 2    
   123   60   62 1    
   124   62   63 1    
   125   62   64 1    
   126   62  185 1    
   127   63  186 1    
   128   63  187 1    
   129   63  188 1    
   130   64   65 am   BACKBONE|DICT|INTERRES
   131   64  189 1    
   132   65   66 2    
   133   67   68 2    
   134   67   69 am   BACKBONE|DICT|INTERRES
   135   69   70 1    
   136   69  190 1    
   137   70   71 1    
   138   70   72 1    
   139   70  191 1    
   140   71  192 1    
   141   71  193 1    
   142   71  194 1    
   143   72   73 2    
   144   72   74 am   BACKBONE|DICT|INTERRES
   145   74   75 1    
   146   74  195 1    
   147   75   76 1    
   148   75   77 1    
   149   75  196 1    
   150   76  197 1    
   151   76  198 1    
   152   76  199 1    
   153   77   78 2    
   154   77   79 am   BACKBONE|DICT|INTERRES
   155   79   80 1    
   156   79  200 1    
   157   80   81 1    
   158   80   82 1    
   159   80  201 1    
   160   81  202 1    
   161   81  203 1    
   162   81  204 1    
   163   82   83 2    
   164   82   84 am   BACKBONE|DICT|INTERRES
   165   84   85 1    
   166   84  205 1    
   167   85   86 1    
   168   85   87 1    
   169   85  206 1    
   170   86  207 1    
   171   86  208 1    
   172   86  209 1    
   173   87   88 2    
   174   87   89 am   BACKBONE|DICT|INTERRES
   175   89   90 1    
   176   89  210 1    
   177   90   91 1    
   178   90   92 1    
   179   90  211 1    
   180   91  212 1    
   181   91  213 1    
   182   91  214 1    
   183   92   93 2    
   184   92   94 am   BACKBONE|DICT|INTERRES
   185   94   95 1    
   186   94  215 1    
   187   95   96 1    
   188   95   97 1    
   189   95  216 1    
   190   96  217 1    
   191   96  218 1    
   192   96  219 1    
   193   97   98 2    
   194   97   99 am   BACKBONE|DICT|INTERRES
   195   99  100 1    
   196   99  220 1    
   197  100  101 1    
   198  100  102 1    
   199  100  221 1    
   200  101  222 1    
   201  101  223 1    
   202  101  224 1    
   203  102  103 2    
   204  102  104 am   BACKBONE|DICT|INTERRES
   205  104  105 1    
   206  104  225 1    
   207  105  106 1    
   208  105  107 1    
   209  105  226 1    
   210  106  227 1    
   211  106  228 1    
   212  106  229 1    
   213  107  108 2    
   214  107  109 am   BACKBONE|DICT|INTERRES
   215  109  110 1    
   216  109  230 1    
   217  110  111 1    
   218  110  112 1    
   219  110  231 1    
   220  111  232 1    
   221  111  233 1    
   222  111  234 1    
   223  112  113 2    
   224  112  114 am   BACKBONE|DICT|INTERRES
   225  114  115 1    
   226  114  235 1    
   227  115  116 1    
   228  115  117 1    
   229  115  236 1    
   230  116  237 1    
   231  116  238 1    
   232  116  239 1    
   233  117  118 2    
   234  117  119 am   BACKBONE|DICT|INTERRES
   235  119  120 1    
   236  119  240 1    
   237  120  121 1    
   238  120  124 1    
   239  120  241 1    
   240  121  122 am   BACKBONE|DICT|INTERRES
   241  121  123 2    
   242  122  242 1    
   243  122  243 1    
   244  124  125 1    
   245  124  244 1    
   246  124  245 1    
   247  125  126 1    
   248  126  246 1    
   249  126  247 1    
@<TRIPOS>SUBSTRUCTURE
     1 UNK         1 GROUP             0       ****    0 ROOT    
