@<TRIPOS>MOLECULE
3R540
247   249    1
SMALL
USER_CHARGES


@<TRIPOS>ATOM
      1 CA         -0.6255  -11.7166  -47.1579 C.3       0 UNK        -0.1800 
      2 C          -1.1164  -13.1335  -46.8982 C.2       0 UNK         0.5000 
      3 O          -2.2112  -13.4824  -47.3359 O.2       0 UNK        -0.5000 
      4 N          -0.3119  -13.9222  -46.1712 N.am      1 UNK        -0.5000 
      5 CA         -0.4364  -15.3387  -45.7796 C.3       1 UNK         0.1400 
      6 C6         -0.0819  -16.3504  -46.8966 C.3       23 UNK        -0.0398 
      7 S7         -1.2353  -16.4570  -48.3079 S.3       23 UNK        -0.2404 
      8 C8         -0.1740  -15.9367  -49.7014 C.3       23 UNK        -0.0205 
      9 C9          0.6038  -17.0849  -50.3447 C.ar      23 UNK        -0.0193 
     10 C10         0.5543  -17.2733  -51.7306 C.ar      23 UNK        -0.1150 
     11 C11         1.2735  -18.3083  -52.3387 C.ar      23 UNK        -0.0193 
     12 C12         2.0525  -19.1598  -51.5507 C.ar      23 UNK        -0.1150 
     13 C13         2.0866  -19.0053  -50.1645 C.ar      23 UNK        -0.0193 
     14 C14         1.3807  -17.9556  -49.5737 C.ar      23 UNK        -0.1150 
     15 C15         2.8335  -20.0070  -49.2938 C.3       23 UNK        -0.0205 
     16 S16         1.9756  -21.6165  -49.2195 S.3       23 UNK        -0.2404 
     17 C17         0.2563  -21.1020  -48.8857 C.3       23 UNK        -0.0398 
     18 CA         -0.5366  -22.1126  -48.0342 C.3       11 UNK         0.1400 
     19 N           0.0529  -22.2976  -46.7047 N.am      11 UNK        -0.5000 
     20 C          -0.2643  -23.2988  -45.8724 C.2       10 UNK         0.5000 
     21 O          -1.0981  -24.1643  -46.1345 O.2       10 UNK        -0.5000 
     22 CA          0.4223  -23.3039  -44.4931 C.3       10 UNK         0.1400 
     23 CB          1.7944  -23.9881  -44.5775 C.3       10 UNK        -0.1800 
     24 N           0.5843  -21.9665  -43.9197 N.am      10 UNK        -0.5000 
     25 C          -0.4162  -21.1076  -43.6805 C.2       9 UNK         0.5000 
     26 O          -1.5995  -21.3688  -43.8893 O.2       9 UNK        -0.5000 
     27 CA         -0.0468  -19.7131  -43.1474 C.3       9 UNK         0.1400 
     28 CB         -0.2195  -19.6847  -41.6207 C.3       9 UNK        -0.1800 
     29 N           1.3015  -19.2460  -43.4862 N.am      9 UNK        -0.5000 
     30 C           1.8424  -19.1427  -44.7107 C.2       8 UNK         0.5000 
     31 O           1.2789  -19.5196  -45.7402 O.2       8 UNK        -0.5000 
     32 CA          3.2491  -18.5137  -44.8006 C.3       8 UNK         0.1400 
     33 CB          3.2823  -17.3612  -45.8169 C.3       8 UNK        -0.1800 
     34 N           3.7180  -17.9950  -43.5136 N.am      8 UNK        -0.5000 
     35 C           4.4506  -18.6720  -42.6197 C.2       7 UNK         0.5000 
     36 O           4.7913  -19.8457  -42.7738 O.2       7 UNK        -0.5000 
     37 CA          4.8387  -17.9078  -41.3332 C.3       7 UNK         0.1400 
     38 CB          6.0207  -18.5538  -40.5802 C.3       7 UNK        -0.1800 
     39 N           5.0774  -16.4750  -41.5577 N.am      7 UNK        -0.5000 
     40 C           6.0227  -15.9190  -42.3329 C.2       6 UNK         0.5000 
     41 O           6.8662  -16.5625  -42.9591 O.2       6 UNK        -0.5000 
     42 CA          5.9801  -14.3841  -42.4436 C.3       6 UNK         0.1400 
     43 CB          6.8602  -13.8282  -43.5802 C.3       6 UNK        -0.1800 
     44 N           4.5977  -13.9522  -42.6298 N.am      6 UNK        -0.5000 
     45 C           4.0652  -12.7915  -42.2429 C.2       5 UNK         0.5000 
     46 O           4.6943  -11.9118  -41.6540 O.2       5 UNK        -0.5000 
     47 CA          2.5723  -12.5775  -42.5655 C.3       5 UNK         0.1400 
     48 CB          2.3433  -12.4066  -44.0797 C.3       5 UNK        -0.1800 
     49 N           1.6690  -13.5942  -42.0102 N.am      5 UNK        -0.5000 
     50 C           1.5907  -14.9059  -42.2680 C.2       4 UNK         0.5000 
     51 O           2.3424  -15.5057  -43.0381 O.2       4 UNK        -0.5000 
     52 CA          0.4707  -15.6923  -41.5661 C.3       4 UNK         0.1400 
     53 CB          0.8688  -16.0746  -40.1290 C.3       4 UNK        -0.1800 
     54 N          -0.8476  -15.0477  -41.6245 N.am      4 UNK        -0.5000 
     55 C          -1.2778  -13.9235  -41.0303 C.2       3 UNK         0.5000 
     56 O          -0.5771  -13.2468  -40.2759 O.2       3 UNK        -0.5000 
     57 CA         -2.7067  -13.4532  -41.3801 C.3       3 UNK         0.1400 
     58 CB         -2.8346  -11.9198  -41.3395 C.3       3 UNK        -0.1800 
     59 N          -3.0938  -13.9168  -42.7135 N.am      3 UNK        -0.5000 
     60 C          -3.9867  -14.8766  -42.9879 C.2       2 UNK         0.5000 
     61 O          -4.6776  -15.4381  -42.1379 O.2       2 UNK        -0.5000 
     62 CA         -4.0903  -15.3096  -44.4653 C.3       2 UNK         0.1400 
     63 CB         -5.2220  -14.5522  -45.1745 C.3       2 UNK        -0.1800 
     64 N          -2.8432  -15.1133  -45.2118 N.am      2 UNK        -0.5000 
     65 C          -1.6907  -15.7489  -44.9752 C.2       1 UNK         0.5000 
     66 O          -1.5733  -16.6037  -44.0977 O.2       1 UNK        -0.5000 
     67 C          -2.0112  -21.6690  -47.9566 C.2       11 UNK         0.5000 
     68 O          -2.8001  -22.0325  -48.8309 O.2       11 UNK        -0.5000 
     69 N          -2.3556  -20.8929  -46.9201 N.am      12 UNK        -0.5000 
     70 CA         -3.7199  -20.4519  -46.6414 C.3       12 UNK         0.1400 
     71 CB         -3.6891  -19.2119  -45.7337 C.3       12 UNK        -0.1800 
     72 C          -4.5558  -21.5867  -46.0252 C.2       12 UNK         0.5000 
     73 O          -5.6959  -21.7894  -46.4400 O.2       12 UNK        -0.5000 
     74 N          -3.9594  -22.3375  -45.0879 N.am      13 UNK        -0.5000 
     75 CA         -4.5558  -23.4994  -44.4244 C.3       13 UNK         0.1400 
     76 CB         -3.6349  -23.9639  -43.2862 C.3       13 UNK        -0.1800 
     77 C          -4.8523  -24.6607  -45.3914 C.2       13 UNK         0.5000 
     78 O          -5.9040  -25.2912  -45.2795 O.2       13 UNK        -0.5000 
     79 N          -3.9423  -24.8955  -46.3472 N.am      14 UNK        -0.5000 
     80 CA         -4.1073  -25.8610  -47.4375 C.3       14 UNK         0.1400 
     81 CB         -2.7282  -26.1555  -48.0496 C.3       14 UNK        -0.1800 
     82 C          -5.0799  -25.3853  -48.5367 C.2       14 UNK         0.5000 
     83 O          -5.4478  -26.1860  -49.3963 O.2       14 UNK        -0.5000 
     84 N          -5.4426  -24.0932  -48.5125 N.am      15 UNK        -0.5000 
     85 CA         -6.2649  -23.3614  -49.4826 C.3       15 UNK         0.1400 
     86 CB         -7.6880  -23.9480  -49.5735 C.3       15 UNK        -0.1800 
     87 C          -5.6040  -23.2013  -50.8672 C.2       15 UNK         0.5000 
     88 O          -6.2724  -22.7844  -51.8130 O.2       15 UNK        -0.5000 
     89 N          -4.2961  -23.4760  -50.9628 N.am      16 UNK        -0.5000 
     90 CA         -3.4915  -23.3208  -52.1729 C.3       16 UNK         0.1400 
     91 CB         -2.1105  -23.9568  -51.9573 C.3       16 UNK        -0.1800 
     92 C          -3.3515  -21.8482  -52.5853 C.2       16 UNK         0.5000 
     93 O          -3.4064  -21.5463  -53.7770 O.2       16 UNK        -0.5000 
     94 N          -3.2184  -20.9604  -51.5906 N.am      17 UNK        -0.5000 
     95 CA         -3.1946  -19.5110  -51.7835 C.3       17 UNK         0.1400 
     96 CB         -2.7010  -18.8332  -50.4997 C.3       17 UNK        -0.1800 
     97 C          -4.5638  -18.9459  -52.2018 C.2       17 UNK         0.5000 
     98 O          -4.6163  -18.0156  -53.0056 O.2       17 UNK        -0.5000 
     99 N          -5.6446  -19.5291  -51.6639 N.am      18 UNK        -0.5000 
    100 CA        -7.0270  -19.1510  -51.9613 C.3       18 UNK         0.1400 
    101 CB        -7.9605  -19.7391  -50.8914 C.3       18 UNK        -0.1800 
    102 C         -7.4575  -19.5903  -53.3718 C.2       18 UNK         0.5000 
    103 O         -8.0941  -18.8148  -54.0856 O.2       18 UNK        -0.5000 
    104 N         -7.0783  -20.8167  -53.7549 N.am      19 UNK        -0.5000 
    105 CA        -7.3253  -21.3938  -55.0771 C.3       19 UNK         0.1400 
    106 CB        -7.1545  -22.9187  -54.9824 C.3       19 UNK        -0.1800 
    107 C         -6.4031  -20.8298  -56.1762 C.2       19 UNK         0.5000 
    108 O         -6.7003  -21.0139  -57.3570 O.2       19 UNK        -0.5000 
    109 N         -5.2906  -20.1976  -55.7704 N.am      20 UNK        -0.5000 
    110 CA        -4.1626  -19.7513  -56.5983 C.3       20 UNK         0.1400 
    111 CB        -4.5912  -18.6547  -57.5948 C.3       20 UNK        -0.1800 
    112 C         -3.4227  -20.9314  -57.2680 C.2       20 UNK         0.5000 
    113 O         -2.8525  -20.7836  -58.3500 O.2       20 UNK        -0.5000 
    114 N         -3.4362  -22.0851  -56.5889 N.am      21 UNK        -0.5000 
    115 CA        -2.7564  -23.3206  -56.9742 C.3       21 UNK         0.1400 
    116 CB        -3.5358  -24.5060  -56.3830 C.3       21 UNK        -0.1800 
    117 C         -1.2895  -23.3471  -56.5026 C.2       21 UNK         0.5000 
    118 O         -0.5328  -24.2211  -56.9262 O.2       21 UNK        -0.5000 
    119 N         -0.9181  -22.3979  -55.6344 N.am      22 UNK        -0.5000 
    120 CA         0.4285  -22.2024  -55.0802 C.3       22 UNK         0.1400 
    121 C          1.5373  -21.8005  -56.1011 C.2       22 UNK         0.5000 
    122 N          1.2088  -21.4005  -57.3238 N.am      22 UNK        -0.7600 
    123 O          2.7197  -21.8604  -55.7756 O.2       22 UNK        -0.5000 
    124 C124        0.3861  -21.2336  -53.8721 C.3       23 UNK        -0.0398 
    125 S125       -0.2228  -19.5602  -54.3003 S.3       23 UNK        -0.2404 
    126 C126        1.1952  -18.5135  -53.8440 C.3       23 UNK        -0.0205 
    127 H127        0.3604  -11.5403  -46.7269 H         1 UNK         0.0600 
    128 H128       -1.3192  -10.9946  -46.7270 H         1 UNK         0.0600 
    129 H129       -0.5641  -11.5334  -48.2306 H         1 UNK         0.0600 
    130 H130        0.5493  -13.5027  -45.8536 H         1 UNK         0.3000 
    131 H131        0.3676  -15.4431  -45.0496 H         1 UNK         0.0600 
    132 H132        0.9129  -16.1037  -47.2653 H         1 UNK         0.0800 
    133 H133        0.0026  -17.3518  -46.4738 H         1 UNK         0.0800 
    134 H134        0.5207  -15.1611  -49.3770 H         1 UNK         0.0800 
    135 H135       -0.8211  -15.4662  -50.4431 H         1 UNK         0.0800 
    136 H136       -0.0487  -16.6164  -52.3416 H         1 UNK         0.1150 
    137 H137        2.6090  -19.9660  -52.0057 H         1 UNK         0.1150 
    138 H138        1.4137  -17.8504  -48.5028 H         1 UNK         0.1150 
    139 H139        2.9498  -19.6263  -48.2783 H         1 UNK         0.0800 
    140 H140        3.8409  -20.1540  -49.6852 H         1 UNK         0.0800 
    141 H141       -0.2239  -20.9515  -49.8545 H         1 UNK         0.0800 
    142 H142        0.2582  -20.1337  -48.3829 H         1 UNK         0.0800 
    143 H143       -0.5189  -23.0762  -48.5482 H         1 UNK         0.0600 
    144 H144        0.7158  -21.5935  -46.4026 H         1 UNK         0.3000 
    145 H145       -0.2067  -23.8810  -43.8128 H         1 UNK         0.0600 
    146 H146        1.7034  -24.9960  -44.9848 H         1 UNK         0.0600 
    147 H147        2.2526  -24.0773  -43.5924 H         1 UNK         0.0600 
    148 H148        2.4815  -23.4351  -45.2195 H         1 UNK         0.0600 
    149 H149        1.5273  -21.6656  -43.7237 H         1 UNK         0.3000 
    150 H150       -0.7543  -19.0103  -43.5883 H         1 UNK         0.0600 
    151 H151        0.4942  -20.3431  -41.1239 H         1 UNK         0.0600 
    152 H152       -1.2204  -20.0112  -41.3345 H         1 UNK         0.0600 
    153 H153       -0.0860  -18.6828  -41.2182 H         1 UNK         0.0600 
    154 H154        1.8647  -18.9252  -42.7142 H         1 UNK         0.3000 
    155 H155        3.9275  -19.2932  -45.1530 H         1 UNK         0.0600 
    156 H156        4.2854  -16.9428  -45.9011 H         1 UNK         0.0600 
    157 H157        2.6095  -16.5531  -45.5311 H         1 UNK         0.0600 
    158 H158        2.9929  -17.7003  -46.8104 H         1 UNK         0.0600 
    159 H159        3.4300  -17.0455  -43.2955 H         1 UNK         0.3000 
    160 H160        3.9680  -17.9690  -40.6792 H         1 UNK         0.0600 
    161 H161        6.9196  -18.5978  -41.1956 H         1 UNK         0.0600 
    162 H162        5.7820  -19.5745  -40.2794 H         1 UNK         0.0600 
    163 H163        6.2613  -17.9985  -39.6737 H         1 UNK         0.0600 
    164 H164        4.4357  -15.8490  -41.0923 H         1 UNK         0.3000 
    165 H165        6.3535  -13.9943  -41.4945 H         1 UNK         0.0600 
    166 H166        7.9031  -14.1184  -43.4479 H         1 UNK         0.0600 
    167 H167        6.5343  -14.1965  -44.5537 H         1 UNK         0.0600 
    168 H168        6.8301  -12.7389  -43.6074 H         1 UNK         0.0600 
    169 H169        3.9682  -14.6275  -43.0563 H         1 UNK         0.3000 
    170 H170        2.2845  -11.6392  -42.0885 H         1 UNK         0.0600 
    171 H171        1.3097  -12.1303  -44.2867 H         1 UNK         0.0600 
    172 H172        2.5696  -13.3168  -44.6357 H         1 UNK         0.0600 
    173 H173        2.9763  -11.6145  -44.4815 H         1 UNK         0.0600 
    174 H174        1.0013  -13.2445  -41.3270 H         1 UNK         0.3000 
    175 H175        0.3587  -16.6174  -42.1314 H         1 UNK         0.0600 
    176 H176        1.7815  -16.6712  -40.1245 H         1 UNK         0.0600 
    177 H177        1.0512  -15.1988  -39.5059 H         1 UNK         0.0600 
    178 H178        0.0908  -16.6687  -39.6498 H         1 UNK         0.0600 
    179 H179       -1.4940  -15.5078  -42.2550 H         1 UNK         0.3000 
    180 H180       -3.3722  -13.8700  -40.6219 H         1 UNK         0.0600 
    181 H181       -2.1449  -11.4397  -42.0348 H         1 UNK         0.0600 
    182 H182       -2.6217  -11.5322  -40.3425 H         1 UNK         0.0600 
    183 H183       -3.8452  -11.6030  -41.5980 H         1 UNK         0.0600 
    184 H184       -2.5765  -13.5250  -43.4873 H         1 UNK         0.3000 
    185 H185       -4.3266  -16.3755  -44.4805 H         1 UNK         0.0600 
    186 H186       -6.1724  -14.6945  -44.6584 H         1 UNK         0.0600 
    187 H187       -5.0248  -13.4801  -45.2137 H         1 UNK         0.0600 
    188 H188       -5.3514  -14.9065  -46.1974 H         1 UNK         0.0600 
    189 H189       -2.8540  -14.4452  -45.9813 H         1 UNK         0.3000 
    190 H190       -1.6556  -20.6707  -46.2268 H         1 UNK         0.3000 
    191 H191       -4.1932  -20.1636  -47.5824 H         1 UNK         0.0600 
    192 H192       -3.1355  -18.3969  -46.2011 H         1 UNK         0.0600 
    193 H193       -4.6984  -18.8481  -45.5384 H         1 UNK         0.0600 
    194 H194       -3.2242  -19.4200  -44.7699 H         1 UNK         0.0600 
    195 H195       -3.0327  -22.0644  -44.7664 H         1 UNK         0.3000 
    196 H196       -5.5043  -23.1808  -43.9873 H         1 UNK         0.0600 
    197 H197       -4.0697  -24.8091  -42.7511 H         1 UNK         0.0600 
    198 H198       -3.4726  -23.1671  -42.5602 H         1 UNK         0.0600 
    199 H199       -2.6606  -24.2777  -43.6614 H         1 UNK         0.0600 
    200 H200       -3.0623  -24.3886  -46.3236 H         1 UNK         0.3000 
    201 H201       -4.5054  -26.7901  -47.0248 H         1 UNK         0.0600 
    202 H202       -2.8002  -26.8966  -48.8467 H         1 UNK         0.0600 
    203 H203       -2.0418  -26.5520  -47.3013 H         1 UNK         0.0600 
    204 H204       -2.2776  -25.2577  -48.4752 H         1 UNK         0.0600 
    205 H205       -5.0962  -23.5296  -47.7470 H         1 UNK         0.3000 
    206 H206       -6.3571  -22.3499  -49.0852 H         1 UNK         0.0600 
    207 H207       -8.1378  -24.0443  -48.5853 H         1 UNK         0.0600 
    208 H208       -8.3400  -23.3031  -50.1637 H         1 UNK         0.0600 
    209 H209       -7.6943  -24.9311  -50.0444 H         1 UNK         0.0600 
    210 H210       -3.8032  -23.7205  -50.1156 H         1 UNK         0.3000 
    211 H211       -3.9955  -23.8508  -52.9831 H         1 UNK         0.0600 
    212 H212       -2.1994  -25.0127  -51.7008 H         1 UNK         0.0600 
    213 H213       -1.5068  -23.8933  -52.8636 H         1 UNK         0.0600 
    214 H214       -1.5581  -23.4630  -51.1566 H         1 UNK         0.0600 
    215 H215       -3.1693  -21.3050  -50.6366 H         1 UNK         0.3000 
    216 H216       -2.4882  -19.2788  -52.5805 H         1 UNK         0.0600 
    217 H217       -3.3315  -19.0720  -49.6431 H         1 UNK         0.0600 
    218 H218       -2.6981  -17.7487  -50.6141 H         1 UNK         0.0600 
    219 H219       -1.6809  -19.1315  -50.2621 H         1 UNK         0.0600 
    220 H220       -5.5090  -20.3088  -51.0396 H         1 UNK         0.3000 
    221 H221       -7.1018  -18.0625  -51.9125 H         1 UNK         0.0600 
    222 H222       -7.9395  -20.8289  -50.8872 H         1 UNK         0.0600 
    223 H223       -7.6857  -19.3943  -49.8945 H         1 UNK         0.0600 
    224 H224       -8.9928  -19.4339  -51.0672 H         1 UNK         0.0600 
    225 H225       -6.6212  -21.4234  -53.0784 H         1 UNK         0.3000 
    226 H226       -8.3563  -21.1795  -55.3660 H         1 UNK         0.0600 
    227 H227       -7.8393  -23.3474  -54.2505 H         1 UNK         0.0600 
    228 H228       -7.3599  -23.3987  -55.9401 H         1 UNK         0.0600 
    229 H229       -6.1396  -23.1910  -54.6890 H         1 UNK         0.0600 
    230 H230       -5.1408  -20.1300  -54.7730 H         1 UNK         0.3000 
    231 H231       -3.4464  -19.3036  -55.9075 H         1 UNK         0.0600 
    232 H232       -5.2432  -19.0452  -58.3762 H         1 UNK         0.0600 
    233 H233       -3.7226  -18.2152  -58.0864 H         1 UNK         0.0600 
    234 H234       -5.1193  -17.8471  -57.0878 H         1 UNK         0.0600 
    235 H235       -3.8461  -22.0690  -55.6613 H         1 UNK         0.3000 
    236 H236       -2.7602  -23.4112  -58.0623 H         1 UNK         0.0600 
    237 H237       -3.5437  -24.4786  -55.2932 H         1 UNK         0.0600 
    238 H238       -4.5707  -24.5078  -56.7260 H         1 UNK         0.0600 
    239 H239       -3.0921  -25.4556  -56.6845 H         1 UNK         0.0600 
    240 H240       -1.6163  -21.7333  -55.3294 H         1 UNK         0.3000 
    241 H241        0.7385  -23.1749  -54.6933 H         1 UNK         0.0600 
    242 H242        0.2419  -21.3407  -57.6006 H         1 UNK         0.3800 
    243 H243        1.9345  -21.1475  -57.9757 H         1 UNK         0.3800 
    244 H244       -0.2672  -21.6358  -53.0974 H         1 UNK         0.0800 
    245 H245        1.3722  -21.1762  -53.4140 H         1 UNK         0.0800 
    246 H246        2.1192  -18.9519  -54.2245 H         1 UNK         0.0800 
    247 H247        1.0916  -17.5473  -54.3399 H         1 UNK         0.0800 
@<TRIPOS>BOND
     1    1    2 1    
     2    1  127 1    
     3    1  128 1    
     4    1  129 1    
     5    2    3 2    
     6    2    4 am   BACKBONE|DICT|INTERRES
     7    4    5 1    
     8    4  130 1    
     9    5    6 1    
    10    5   65 1    
    11    5  131 1    
    12    6    7 1    
    13    6  132 1    
    14    6  133 1    
    15    7    8 1    
    16    8    9 1    
    17    8  134 1    
    18    8  135 1    
    19    9   10 ar   
    20    9   14 ar   
    21   10   11 ar   
    22   10  136 1    
    23   11   12 ar   
    24   11  126 1    
    25   12   13 ar   
    26   12  137 1    
    27   13   14 ar   
    28   13   15 1    
    29   14  138 1    
    30   15   16 1    
    31   15  139 1    
    32   15  140 1    
    33   16   17 1    
    34   17   18 1    
    35   17  141 1    
    36   17  142 1    
    37   18   19 1    
    38   18   67 1    
    39   18  143 1    
    40   19   20 am   BACKBONE|DICT|INTERRES
    41   19  144 1    
    42   20   21 2    
    43   20   22 1    
    44   22   23 1    
    45   22   24 1    
    46   22  145 1    
    47   23  146 1    
    48   23  147 1    
    49   23  148 1    
    50   24   25 am   BACKBONE|DICT|INTERRES
    51   24  149 1    
    52   25   26 2    
    53   25   27 1    
    54   27   28 1    
    55   27   29 1    
    56   27  150 1    
    57   28  151 1    
    58   28  152 1    
    59   28  153 1    
    60   29   30 am   BACKBONE|DICT|INTERRES
    61   29  154 1    
    62   30   31 2    
    63   30   32 1    
    64   32   33 1    
    65   32   34 1    
    66   32  155 1    
    67   33  156 1    
    68   33  157 1    
    69   33  158 1    
    70   34   35 am   BACKBONE|DICT|INTERRES
    71   34  159 1    
    72   35   36 2    
    73   35   37 1    
    74   37   38 1    
    75   37   39 1    
    76   37  160 1    
    77   38  161 1    
    78   38  162 1    
    79   38  163 1    
    80   39   40 am   BACKBONE|DICT|INTERRES
    81   39  164 1    
    82   40   41 2    
    83   40   42 1    
    84   42   43 1    
    85   42   44 1    
    86   42  165 1    
    87   43  166 1    
    88   43  167 1    
    89   43  168 1    
    90   44   45 am   BACKBONE|DICT|INTERRES
    91   44  169 1    
    92   45   46 2    
    93   45   47 1    
    94   47   48 1    
    95   47   49 1    
    96   47  170 1    
    97   48  171 1    
    98   48  172 1    
    99   48  173 1    
   100   49   50 am   BACKBONE|DICT|INTERRES
   101   49  174 1    
   102   50   51 2    
   103   50   52 1    
   104   52   53 1    
   105   52   54 1    
   106   52  175 1    
   107   53  176 1    
   108   53  177 1    
   109   53  178 1    
   110   54   55 am   BACKBONE|DICT|INTERRES
   111   54  179 1    
   112   55   56 2    
   113   55   57 1    
   114   57   58 1    
   115   57   59 1    
   116   57  180 1    
   117   58  181 1    
   118   58  182 1    
   119   58  183 1    
   120   59   60 am   BACKBONE|DICT|INTERRES
   121   59  184 1    
   122   60   61 2    
   123   60   62 1    
   124   62   63 1    
   125   62   64 1    
   126   62  185 1    
   127   63  186 1    
   128   63  187 1    
   129   63  188 1    
   130   64   65 am   BACKBONE|DICT|INTERRES
   131   64  189 1    
   132   65   66 2    
   133   67   68 2    
   134   67   69 am   BACKBONE|DICT|INTERRES
   135   69   70 1    
   136   69  190 1    
   137   70   71 1    
   138   70   72 1    
   139   70  191 1    
   140   71  192 1    
   141   71  193 1    
   142   71  194 1    
   143   72   73 2    
   144   72   74 am   BACKBONE|DICT|INTERRES
   145   74   75 1    
   146   74  195 1    
   147   75   76 1    
   148   75   77 1    
   149   75  196 1    
   150   76  197 1    
   151   76  198 1    
   152   76  199 1    
   153   77   78 2    
   154   77   79 am   BACKBONE|DICT|INTERRES
   155   79   80 1    
   156   79  200 1    
   157   80   81 1    
   158   80   82 1    
   159   80  201 1    
   160   81  202 1    
   161   81  203 1    
   162   81  204 1    
   163   82   83 2    
   164   82   84 am   BACKBONE|DICT|INTERRES
   165   84   85 1    
   166   84  205 1    
   167   85   86 1    
   168   85   87 1    
   169   85  206 1    
   170   86  207 1    
   171   86  208 1    
   172   86  209 1    
   173   87   88 2    
   174   87   89 am   BACKBONE|DICT|INTERRES
   175   89   90 1    
   176   89  210 1    
   177   90   91 1    
   178   90   92 1    
   179   90  211 1    
   180   91  212 1    
   181   91  213 1    
   182   91  214 1    
   183   92   93 2    
   184   92   94 am   BACKBONE|DICT|INTERRES
   185   94   95 1    
   186   94  215 1    
   187   95   96 1    
   188   95   97 1    
   189   95  216 1    
   190   96  217 1    
   191   96  218 1    
   192   96  219 1    
   193   97   98 2    
   194   97   99 am   BACKBONE|DICT|INTERRES
   195   99  100 1    
   196   99  220 1    
   197  100  101 1    
   198  100  102 1    
   199  100  221 1    
   200  101  222 1    
   201  101  223 1    
   202  101  224 1    
   203  102  103 2    
   204  102  104 am   BACKBONE|DICT|INTERRES
   205  104  105 1    
   206  104  225 1    
   207  105  106 1    
   208  105  107 1    
   209  105  226 1    
   210  106  227 1    
   211  106  228 1    
   212  106  229 1    
   213  107  108 2    
   214  107  109 am   BACKBONE|DICT|INTERRES
   215  109  110 1    
   216  109  230 1    
   217  110  111 1    
   218  110  112 1    
   219  110  231 1    
   220  111  232 1    
   221  111  233 1    
   222  111  234 1    
   223  112  113 2    
   224  112  114 am   BACKBONE|DICT|INTERRES
   225  114  115 1    
   226  114  235 1    
   227  115  116 1    
   228  115  117 1    
   229  115  236 1    
   230  116  237 1    
   231  116  238 1    
   232  116  239 1    
   233  117  118 2    
   234  117  119 am   BACKBONE|DICT|INTERRES
   235  119  120 1    
   236  119  240 1    
   237  120  121 1    
   238  120  124 1    
   239  120  241 1    
   240  121  122 am   BACKBONE|DICT|INTERRES
   241  121  123 2    
   242  122  242 1    
   243  122  243 1    
   244  124  125 1    
   245  124  244 1    
   246  124  245 1    
   247  125  126 1    
   248  126  246 1    
   249  126  247 1    
@<TRIPOS>SUBSTRUCTURE
     1 UNK         1 GROUP             0       ****    0 ROOT    
