@<TRIPOS>MOLECULE
3R540
247   249    1
SMALL
USER_CHARGES


@<TRIPOS>ATOM
      1 CA          3.2343  -16.6638  -48.3791 C.3       0 UNK        -0.1800 
      2 C           2.5609  -15.4008  -47.8639 C.2       0 UNK         0.5000 
      3 O           2.8464  -14.9665  -46.7502 O.2       0 UNK        -0.5000 
      4 N           1.6728  -14.8044  -48.6704 N.am      1 UNK        -0.5000 
      5 CA          0.8004  -13.6774  -48.3030 C.3       1 UNK         0.1400 
      6 C6         -0.2252  -13.3325  -49.4190 C.3       23 UNK        -0.0398 
      7 S7         -0.9940  -14.7606  -50.2693 S.3       23 UNK        -0.2404 
      8 C8         -1.6198  -15.7668  -48.8888 C.3       23 UNK        -0.0205 
      9 C9         -2.0047  -17.1687  -49.3341 C.ar      23 UNK        -0.0193 
     10 C10        -3.3205  -17.6213  -49.2038 C.ar      23 UNK        -0.1150 
     11 C11        -3.6635  -18.9222  -49.5833 C.ar      23 UNK        -0.0193 
     12 C12        -2.6726  -19.7778  -50.0737 C.ar      23 UNK        -0.1150 
     13 C13        -1.3471  -19.3484  -50.1867 C.ar      23 UNK        -0.0193 
     14 C14        -1.0263  -18.0337  -49.8333 C.ar      23 UNK        -0.1150 
     15 C15        -0.2837  -20.3185  -50.6964 C.3       23 UNK        -0.0205 
     16 S16         1.3200  -20.2598  -49.8148 S.3       23 UNK        -0.2404 
     17 C17         0.8647  -20.2299  -48.0457 C.3       23 UNK        -0.0398 
     18 CA          0.7069  -21.6224  -47.3901 C.3       11 UNK         0.1400 
     19 N           0.8517  -21.5404  -45.9345 N.am      11 UNK        -0.5000 
     20 C           0.8465  -22.5755  -45.0833 C.2       10 UNK         0.5000 
     21 O           0.7786  -23.7531  -45.4332 O.2       10 UNK        -0.5000 
     22 CA          0.8609  -22.2306  -43.5825 C.3       10 UNK         0.1400 
     23 CB          2.2764  -21.8683  -43.1089 C.3       10 UNK        -0.1800 
     24 N          -0.0656  -21.1453  -43.2544 N.am      10 UNK        -0.5000 
     25 C          -1.3977  -21.2301  -43.3857 C.2       9 UNK         0.5000 
     26 O          -1.9851  -22.2508  -43.7444 O.2       9 UNK        -0.5000 
     27 CA         -2.2080  -19.9508  -43.1119 C.3       9 UNK         0.1400 
     28 CB         -2.4274  -19.7587  -41.6041 C.3       9 UNK        -0.1800 
     29 N          -1.5847  -18.7534  -43.6768 N.am      9 UNK        -0.5000 
     30 C          -1.3893  -18.5443  -44.9868 C.2       8 UNK         0.5000 
     31 O          -1.7504  -19.3253  -45.8639 O.2       8 UNK        -0.5000 
     32 CA         -0.6082  -17.2804  -45.3847 C.3       8 UNK         0.1400 
     33 CB         -1.5191  -16.0457  -45.3441 C.3       8 UNK        -0.1800 
     34 N           0.5681  -17.0610  -44.5436 N.am      8 UNK        -0.5000 
     35 C           1.5947  -17.9171  -44.4390 C.2       7 UNK         0.5000 
     36 O           1.6819  -18.9600  -45.0845 O.2       7 UNK        -0.5000 
     37 CA          2.6805  -17.5884  -43.4044 C.3       7 UNK         0.1400 
     38 CB          3.7213  -16.6342  -43.9905 C.3       7 UNK        -0.1800 
     39 N           2.1166  -17.0064  -42.1906 N.am      7 UNK        -0.5000 
     40 C           1.4405  -17.7063  -41.2712 C.2       6 UNK         0.5000 
     41 O           1.2516  -18.9220  -41.3365 O.2       6 UNK        -0.5000 
     42 CA          0.8424  -16.8969  -40.1068 C.3       6 UNK         0.1400 
     43 CB          1.9172  -16.5700  -39.0590 C.3       6 UNK        -0.1800 
     44 N           0.2051  -15.6566  -40.5552 N.am      6 UNK        -0.5000 
     45 C          -0.8886  -15.6149  -41.3277 C.2       5 UNK         0.5000 
     46 O          -1.4708  -16.6168  -41.7404 O.2       5 UNK        -0.5000 
     47 CA         -1.4169  -14.2261  -41.7251 C.3       5 UNK         0.1400 
     48 CB         -2.3598  -13.6848  -40.6399 C.3       5 UNK        -0.1800 
     49 N          -0.3876  -13.2230  -42.0093 N.am      5 UNK        -0.5000 
     50 C           0.5988  -13.3240  -42.9120 C.2       4 UNK         0.5000 
     51 O           0.8546  -14.3571  -43.5343 O.2       4 UNK        -0.5000 
     52 CA          1.3719  -12.0189  -43.1953 C.3       4 UNK         0.1400 
     53 CB          1.7270  -11.2361  -41.9104 C.3       4 UNK        -0.1800 
     54 N           2.5523  -12.1943  -44.0459 N.am      4 UNK        -0.5000 
     55 C           3.7161  -12.7865  -43.7383 C.2       3 UNK         0.5000 
     56 O           3.9385  -13.3433  -42.6617 O.2       3 UNK        -0.5000 
     57 CA          4.8371  -12.6921  -44.7981 C.3       3 UNK         0.1400 
     58 CB          5.7243  -13.9470  -44.8703 C.3       3 UNK        -0.1800 
     59 N           4.3114  -12.4104  -46.1349 N.am      3 UNK        -0.5000 
     60 C           4.3243  -11.2139  -46.7386 C.2       2 UNK         0.5000 
     61 O           4.8048  -10.2003  -46.2308 O.2       2 UNK        -0.5000 
     62 CA          3.6879  -11.1188  -48.1410 C.3       2 UNK         0.1400 
     63 CB          4.7790  -11.0728  -49.2219 C.3       2 UNK        -0.1800 
     64 N           2.7678  -12.2150  -48.4500 N.am      2 UNK        -0.5000 
     65 C           1.5731  -12.4102  -47.8744 C.2       1 UNK         0.5000 
     66 O           1.0962  -11.6601  -47.0216 O.2       1 UNK        -0.5000 
     67 C          -0.6278  -22.2841  -47.7859 C.2       11 UNK         0.5000 
     68 O          -0.6253  -23.2259  -48.5784 O.2       11 UNK        -0.5000 
     69 N          -1.7337  -21.8107  -47.1927 N.am      12 UNK        -0.5000 
     70 CA         -3.0844  -22.3322  -47.3903 C.3       12 UNK         0.1400 
     71 CB         -4.0926  -21.4814  -46.6038 C.3       12 UNK        -0.1800 
     72 C          -3.2138  -23.8132  -47.0071 C.2       12 UNK         0.5000 
     73 O          -3.7994  -24.5775  -47.7722 O.2       12 UNK        -0.5000 
     74 N          -2.6367  -24.1949  -45.8598 N.am      13 UNK        -0.5000 
     75 CA         -2.5872  -25.5741  -45.3785 C.3       13 UNK         0.1400 
     76 CB         -2.0608  -25.5967  -43.9354 C.3       13 UNK        -0.1800 
     77 C          -1.7454  -26.4917  -46.2837 C.2       13 UNK         0.5000 
     78 O          -2.1832  -27.6005  -46.5917 O.2       13 UNK        -0.5000 
     79 N          -0.5669  -26.0118  -46.7051 N.am      14 UNK        -0.5000 
     80 CA          0.3630  -26.7370  -47.5717 C.3       14 UNK         0.1400 
     81 CB          1.7108  -26.0003  -47.6109 C.3       14 UNK        -0.1800 
     82 C          -0.1803  -26.9476  -48.9958 C.2       14 UNK         0.5000 
     83 O          -0.0719  -28.0521  -49.5302 O.2       14 UNK        -0.5000 
     84 N          -0.7573  -25.8906  -49.5812 N.am      15 UNK        -0.5000 
     85 CA         -1.3118  -25.9011  -50.9351 C.3       15 UNK         0.1400 
     86 CB         -1.3105  -24.4645  -51.4838 C.3       15 UNK        -0.1800 
     87 C          -2.7341  -26.4836  -51.0108 C.2       15 UNK         0.5000 
     88 O          -3.2187  -26.7163  -52.1168 O.2       15 UNK        -0.5000 
     89 N          -3.4085  -26.6374  -49.8609 N.am      16 UNK        -0.5000 
     90 CA         -4.8362  -26.9591  -49.7139 C.3       16 UNK         0.1400 
     91 CB         -5.1237  -28.4050  -50.1680 C.3       16 UNK        -0.1800 
     92 C          -5.7394  -25.9122  -50.4085 C.2       16 UNK         0.5000 
     93 O          -6.7618  -26.2618  -50.9999 O.2       16 UNK        -0.5000 
     94 N          -5.2926  -24.6470  -50.3612 N.am      17 UNK        -0.5000 
     95 CA         -5.8272  -23.4529  -51.0285 C.3       17 UNK         0.1400 
     96 CB         -7.2291  -23.1094  -50.4878 C.3       17 UNK        -0.1800 
     97 C          -5.7947  -23.4917  -52.5762 C.2       17 UNK         0.5000 
     98 O          -6.3048  -22.5659  -53.2090 O.2       17 UNK        -0.5000 
     99 N          -5.1719  -24.5177  -53.1787 N.am      18 UNK        -0.5000 
    100 CA        -5.1192  -24.7246  -54.6316 C.3       18 UNK         0.1400 
    101 CB        -4.7582  -26.1890  -54.9242 C.3       18 UNK        -0.1800 
    102 C         -4.1551  -23.7714  -55.3663 C.2       18 UNK         0.5000 
    103 O         -4.1769  -23.7240  -56.5968 O.2       18 UNK        -0.5000 
    104 N         -3.3364  -23.0247  -54.6111 N.am      19 UNK        -0.5000 
    105 CA        -2.4177  -22.0005  -55.1130 C.3       19 UNK         0.1400 
    106 CB        -1.5258  -21.5237  -53.9550 C.3       19 UNK        -0.1800 
    107 C         -3.1294  -20.7953  -55.7603 C.2       19 UNK         0.5000 
    108 O         -2.5254  -20.1204  -56.5939 O.2       19 UNK        -0.5000 
    109 N         -4.3824  -20.5389  -55.3484 N.am      20 UNK        -0.5000 
    110 CA        -5.2753  -19.4628  -55.8033 C.3       20 UNK         0.1400 
    111 CB        -5.6008  -19.6114  -57.3038 C.3       20 UNK        -0.1800 
    112 C         -4.7973  -18.0375  -55.4435 C.2       20 UNK         0.5000 
    113 O         -5.3653  -17.0599  -55.9324 O.2       20 UNK        -0.5000 
    114 N         -3.7948  -17.9362  -54.5605 N.am      21 UNK        -0.5000 
    115 CA        -3.2550  -16.6854  -54.0206 C.3       21 UNK         0.1400 
    116 CB        -1.8556  -16.9728  -53.4536 C.3       21 UNK        -0.1800 
    117 C         -4.1585  -16.0582  -52.9383 C.2       21 UNK         0.5000 
    118 O         -3.9316  -14.9149  -52.5430 O.2       21 UNK        -0.5000 
    119 N         -5.1525  -16.8261  -52.4771 N.am      22 UNK        -0.5000 
    120 CA        -6.0576  -16.5307  -51.3592 C.3       22 UNK         0.1400 
    121 C         -7.0047  -15.3089  -51.5505 C.2       22 UNK         0.5000 
    122 N         -7.1774  -14.7806  -52.7558 N.am      22 UNK        -0.7600 
    123 O         -7.5973  -14.8356  -50.5848 O.2       22 UNK        -0.5000 
    124 C124       -6.8766  -17.7842  -50.9395 C.3       23 UNK        -0.0398 
    125 S125       -5.9829  -19.3808  -51.0234 S.3       23 UNK        -0.2404 
    126 C126       -5.0936  -19.4227  -49.4395 C.3       23 UNK        -0.0205 
    127 H127        4.3068  -16.5014  -48.4842 H         1 UNK         0.0600 
    128 H128        2.8358  -16.9710  -49.3465 H         1 UNK         0.0600 
    129 H129        3.0790  -17.4809  -47.6743 H         1 UNK         0.0600 
    130 H130        1.4920  -15.1986  -49.5831 H         1 UNK         0.3000 
    131 H131        0.2421  -13.9935  -47.4204 H         1 UNK         0.0600 
    132 H132       -1.0231  -12.7093  -49.0114 H         1 UNK         0.0800 
    133 H133        0.2513  -12.7344  -50.1982 H         1 UNK         0.0800 
    134 H134       -2.4633  -15.2529  -48.4256 H         1 UNK         0.0800 
    135 H135       -0.8524  -15.8678  -48.1251 H         1 UNK         0.0800 
    136 H136       -4.0756  -16.9646  -48.7973 H         1 UNK         0.1150 
    137 H137       -2.9357  -20.7860  -50.3596 H         1 UNK         0.1150 
    138 H138       -0.0073  -17.6864  -49.9258 H         1 UNK         0.1150 
    139 H139       -0.6555  -21.3433  -50.6573 H         1 UNK         0.0800 
    140 H140       -0.1009  -20.1025  -51.7493 H         1 UNK         0.0800 
    141 H141       -0.0118  -19.6074  -47.8720 H         1 UNK         0.0800 
    142 H142        1.6844  -19.7010  -47.5597 H         1 UNK         0.0800 
    143 H143        1.5140  -22.2651  -47.7477 H         1 UNK         0.0600 
    144 H144        0.9581  -20.6043  -45.5501 H         1 UNK         0.3000 
    145 H145        0.5397  -23.1193  -43.0352 H         1 UNK         0.0600 
    146 H146        2.2945  -21.6708  -42.0369 H         1 UNK         0.0600 
    147 H147        2.9718  -22.6859  -43.3019 H         1 UNK         0.0600 
    148 H148        2.6614  -20.9845  -43.6170 H         1 UNK         0.0600 
    149 H149        0.3402  -20.2759  -42.9312 H         1 UNK         0.3000 
    150 H150       -3.1851  -20.0706  -43.5840 H         1 UNK         0.0600 
    151 H151       -2.8896  -20.6411  -41.1599 H         1 UNK         0.0600 
    152 H152       -3.0864  -18.9129  -41.4077 H         1 UNK         0.0600 
    153 H153       -1.4881  -19.5785  -41.0800 H         1 UNK         0.0600 
    154 H154       -1.3058  -18.0332  -43.0158 H         1 UNK         0.3000 
    155 H155       -0.2557  -17.4161  -46.4089 H         1 UNK         0.0600 
    156 H156       -1.9298  -15.8853  -44.3490 H         1 UNK         0.0600 
    157 H157       -2.3628  -16.1631  -46.0247 H         1 UNK         0.0600 
    158 H158       -0.9814  -15.1435  -45.6346 H         1 UNK         0.0600 
    159 H159        0.6078  -16.1869  -44.0257 H         1 UNK         0.3000 
    160 H160        3.1872  -18.5195  -43.1422 H         1 UNK         0.0600 
    161 H161        3.2715  -15.6726  -44.2352 H         1 UNK         0.0600 
    162 H162        4.1546  -17.0391  -44.9060 H         1 UNK         0.0600 
    163 H163        4.5365  -16.4556  -43.2893 H         1 UNK         0.0600 
    164 H164        2.1745  -16.0015  -42.0994 H         1 UNK         0.3000 
    165 H165        0.0795  -17.5164  -39.6303 H         1 UNK         0.0600 
    166 H166        1.4834  -16.0706  -38.1924 H         1 UNK         0.0600 
    167 H167        2.4012  -17.4794  -38.7003 H         1 UNK         0.0600 
    168 H168        2.6949  -15.9222  -39.4656 H         1 UNK         0.0600 
    169 H169        0.6305  -14.7870  -40.2695 H         1 UNK         0.3000 
    170 H170       -2.0005  -14.3490  -42.6382 H         1 UNK         0.0600 
    171 H171       -3.1538  -14.3998  -40.4192 H         1 UNK         0.0600 
    172 H172       -1.8292  -13.4857  -39.7080 H         1 UNK         0.0600 
    173 H173       -2.8396  -12.7591  -40.9583 H         1 UNK         0.0600 
    174 H174       -0.5090  -12.3347  -41.5455 H         1 UNK         0.3000 
    175 H175        0.6935  -11.3957  -43.7797 H         1 UNK         0.0600 
    176 H176        2.2810  -11.8503  -41.1997 H         1 UNK         0.0600 
    177 H177        2.3354  -10.3608  -42.1387 H         1 UNK         0.0600 
    178 H178        0.8334  -10.8734  -41.4020 H         1 UNK         0.0600 
    179 H179        2.4575  -11.8292  -44.9838 H         1 UNK         0.3000 
    180 H180        5.4776  -11.8718  -44.4687 H         1 UNK         0.0600 
    181 H181        5.2050  -14.7808  -45.3392 H         1 UNK         0.0600 
    182 H182        6.0560  -14.2683  -43.8824 H         1 UNK         0.0600 
    183 H183        6.6195  -13.7510  -45.4604 H         1 UNK         0.0600 
    184 H184        3.8455  -13.1899  -46.5896 H         1 UNK         0.3000 
    185 H185        3.1263  -10.1832  -48.1814 H         1 UNK         0.0600 
    186 H186        5.4689  -10.2460  -49.0471 H         1 UNK         0.0600 
    187 H187        5.3662  -11.9919  -49.2396 H         1 UNK         0.0600 
    188 H188        4.3478  -10.9293  -50.2128 H         1 UNK         0.0600 
    189 H189        3.0868  -12.8965  -49.1235 H         1 UNK         0.3000 
    190 H190       -1.6550  -20.9983  -46.5836 H         1 UNK         0.3000 
    191 H191       -3.3165  -22.2446  -48.4527 H         1 UNK         0.0600 
    192 H192       -3.9256  -21.5486  -45.5289 H         1 UNK         0.0600 
    193 H193       -5.1148  -21.8081  -46.7984 H         1 UNK         0.0600 
    194 H194       -4.0261  -20.4298  -46.8813 H         1 UNK         0.0600 
    195 H195       -2.2102  -23.4889  -45.2667 H         1 UNK         0.3000 
    196 H196       -3.6082  -25.9614  -45.3717 H         1 UNK         0.0600 
    197 H197       -2.0241  -26.6155  -43.5478 H         1 UNK         0.0600 
    198 H198       -2.7056  -25.0191  -43.2728 H         1 UNK         0.0600 
    199 H199       -1.0550  -25.1811  -43.8664 H         1 UNK         0.0600 
    200 H200       -0.2609  -25.0997  -46.3767 H         1 UNK         0.3000 
    201 H201        0.5309  -27.7224  -47.1321 H         1 UNK         0.0600 
    202 H202        2.1525  -25.9359  -46.6163 H         1 UNK         0.0600 
    203 H203        1.6036  -24.9849  -47.9946 H         1 UNK         0.0600 
    204 H204        2.4244  -26.5212  -48.2504 H         1 UNK         0.0600 
    205 H205       -0.7720  -24.9975  -49.0913 H         1 UNK         0.3000 
    206 H206       -0.6719  -26.5094  -51.5777 H         1 UNK         0.0600 
    207 H207       -0.3105  -24.0311  -51.4559 H         1 UNK         0.0600 
    208 H208       -1.6436  -24.4459  -52.5218 H         1 UNK         0.0600 
    209 H209       -1.9733  -23.8132  -50.9124 H         1 UNK         0.0600 
    210 H210       -2.9389  -26.3714  -49.0051 H         1 UNK         0.3000 
    211 H211       -5.0580  -26.8971  -48.6477 H         1 UNK         0.0600 
    212 H212       -4.9883  -28.5290  -51.2428 H         1 UNK         0.0600 
    213 H213       -6.1497  -28.6905  -49.9335 H         1 UNK         0.0600 
    214 H214       -4.4667  -29.1132  -49.6630 H         1 UNK         0.0600 
    215 H215       -4.4782  -24.4937  -49.7775 H         1 UNK         0.3000 
    216 H216       -5.1624  -22.6361  -50.7441 H         1 UNK         0.0600 
    217 H217       -7.5741  -22.1492  -50.8731 H         1 UNK         0.0600 
    218 H218       -7.2240  -23.0361  -49.4003 H         1 UNK         0.0600 
    219 H219       -7.9685  -23.8583  -50.7720 H         1 UNK         0.0600 
    220 H220       -4.7502  -25.2434  -52.6111 H         1 UNK         0.3000 
    221 H221       -6.1186  -24.5420  -55.0320 H         1 UNK         0.0600 
    222 H222       -3.7248  -26.4100  -54.6564 H         1 UNK         0.0600 
    223 H223       -5.4037  -26.8759  -54.3763 H         1 UNK         0.0600 
    224 H224       -4.8717  -26.4126  -55.9856 H         1 UNK         0.0600 
    225 H225       -3.3848  -23.1442  -53.6112 H         1 UNK         0.3000 
    226 H226       -1.7829  -22.4568  -55.8753 H         1 UNK         0.0600 
    227 H227       -0.8427  -20.7389  -54.2832 H         1 UNK         0.0600 
    228 H228       -2.1159  -21.1210  -53.1308 H         1 UNK         0.0600 
    229 H229       -0.9135  -22.3368  -53.5664 H         1 UNK         0.0600 
    230 H230       -4.7811  -21.1608  -54.6566 H         1 UNK         0.3000 
    231 H231       -6.2073  -19.6060  -55.2544 H         1 UNK         0.0600 
    232 H232       -5.9467  -20.6192  -57.5339 H         1 UNK         0.0600 
    233 H233       -4.7337  -19.4025  -57.9307 H         1 UNK         0.0600 
    234 H234       -6.3914  -18.9224  -57.6033 H         1 UNK         0.0600 
    235 H235       -3.3846  -18.7897  -54.2134 H         1 UNK         0.3000 
    236 H236       -3.1584  -15.9624  -54.8331 H         1 UNK         0.0600 
    237 H237       -1.3909  -16.0613  -53.0763 H         1 UNK         0.0600 
    238 H238       -1.8971  -17.6844  -52.6285 H         1 UNK         0.0600 
    239 H239       -1.1943  -17.3817  -54.2177 H         1 UNK         0.0600 
    240 H240       -5.2377  -17.7562  -52.8574 H         1 UNK         0.3000 
    241 H241       -5.4152  -16.2634  -50.5211 H         1 UNK         0.0600 
    242 H242       -6.6856  -15.1555  -53.5519 H         1 UNK         0.3800 
    243 H243       -7.7905  -13.9889  -52.8703 H         1 UNK         0.3800 
    244 H244       -7.2819  -17.6519  -49.9351 H         1 UNK         0.0800 
    245 H245       -7.7443  -17.8933  -51.5929 H         1 UNK         0.0800 
    246 H246       -5.6317  -18.8544  -48.6797 H         1 UNK         0.0800 
    247 H247       -5.0814  -20.4553  -49.0914 H         1 UNK         0.0800 
@<TRIPOS>BOND
     1    1    2 1    
     2    1  127 1    
     3    1  128 1    
     4    1  129 1    
     5    2    3 2    
     6    2    4 am   BACKBONE|DICT|INTERRES
     7    4    5 1    
     8    4  130 1    
     9    5    6 1    
    10    5   65 1    
    11    5  131 1    
    12    6    7 1    
    13    6  132 1    
    14    6  133 1    
    15    7    8 1    
    16    8    9 1    
    17    8  134 1    
    18    8  135 1    
    19    9   10 ar   
    20    9   14 ar   
    21   10   11 ar   
    22   10  136 1    
    23   11   12 ar   
    24   11  126 1    
    25   12   13 ar   
    26   12  137 1    
    27   13   14 ar   
    28   13   15 1    
    29   14  138 1    
    30   15   16 1    
    31   15  139 1    
    32   15  140 1    
    33   16   17 1    
    34   17   18 1    
    35   17  141 1    
    36   17  142 1    
    37   18   19 1    
    38   18   67 1    
    39   18  143 1    
    40   19   20 am   BACKBONE|DICT|INTERRES
    41   19  144 1    
    42   20   21 2    
    43   20   22 1    
    44   22   23 1    
    45   22   24 1    
    46   22  145 1    
    47   23  146 1    
    48   23  147 1    
    49   23  148 1    
    50   24   25 am   BACKBONE|DICT|INTERRES
    51   24  149 1    
    52   25   26 2    
    53   25   27 1    
    54   27   28 1    
    55   27   29 1    
    56   27  150 1    
    57   28  151 1    
    58   28  152 1    
    59   28  153 1    
    60   29   30 am   BACKBONE|DICT|INTERRES
    61   29  154 1    
    62   30   31 2    
    63   30   32 1    
    64   32   33 1    
    65   32   34 1    
    66   32  155 1    
    67   33  156 1    
    68   33  157 1    
    69   33  158 1    
    70   34   35 am   BACKBONE|DICT|INTERRES
    71   34  159 1    
    72   35   36 2    
    73   35   37 1    
    74   37   38 1    
    75   37   39 1    
    76   37  160 1    
    77   38  161 1    
    78   38  162 1    
    79   38  163 1    
    80   39   40 am   BACKBONE|DICT|INTERRES
    81   39  164 1    
    82   40   41 2    
    83   40   42 1    
    84   42   43 1    
    85   42   44 1    
    86   42  165 1    
    87   43  166 1    
    88   43  167 1    
    89   43  168 1    
    90   44   45 am   BACKBONE|DICT|INTERRES
    91   44  169 1    
    92   45   46 2    
    93   45   47 1    
    94   47   48 1    
    95   47   49 1    
    96   47  170 1    
    97   48  171 1    
    98   48  172 1    
    99   48  173 1    
   100   49   50 am   BACKBONE|DICT|INTERRES
   101   49  174 1    
   102   50   51 2    
   103   50   52 1    
   104   52   53 1    
   105   52   54 1    
   106   52  175 1    
   107   53  176 1    
   108   53  177 1    
   109   53  178 1    
   110   54   55 am   BACKBONE|DICT|INTERRES
   111   54  179 1    
   112   55   56 2    
   113   55   57 1    
   114   57   58 1    
   115   57   59 1    
   116   57  180 1    
   117   58  181 1    
   118   58  182 1    
   119   58  183 1    
   120   59   60 am   BACKBONE|DICT|INTERRES
   121   59  184 1    
   122   60   61 2    
   123   60   62 1    
   124   62   63 1    
   125   62   64 1    
   126   62  185 1    
   127   63  186 1    
   128   63  187 1    
   129   63  188 1    
   130   64   65 am   BACKBONE|DICT|INTERRES
   131   64  189 1    
   132   65   66 2    
   133   67   68 2    
   134   67   69 am   BACKBONE|DICT|INTERRES
   135   69   70 1    
   136   69  190 1    
   137   70   71 1    
   138   70   72 1    
   139   70  191 1    
   140   71  192 1    
   141   71  193 1    
   142   71  194 1    
   143   72   73 2    
   144   72   74 am   BACKBONE|DICT|INTERRES
   145   74   75 1    
   146   74  195 1    
   147   75   76 1    
   148   75   77 1    
   149   75  196 1    
   150   76  197 1    
   151   76  198 1    
   152   76  199 1    
   153   77   78 2    
   154   77   79 am   BACKBONE|DICT|INTERRES
   155   79   80 1    
   156   79  200 1    
   157   80   81 1    
   158   80   82 1    
   159   80  201 1    
   160   81  202 1    
   161   81  203 1    
   162   81  204 1    
   163   82   83 2    
   164   82   84 am   BACKBONE|DICT|INTERRES
   165   84   85 1    
   166   84  205 1    
   167   85   86 1    
   168   85   87 1    
   169   85  206 1    
   170   86  207 1    
   171   86  208 1    
   172   86  209 1    
   173   87   88 2    
   174   87   89 am   BACKBONE|DICT|INTERRES
   175   89   90 1    
   176   89  210 1    
   177   90   91 1    
   178   90   92 1    
   179   90  211 1    
   180   91  212 1    
   181   91  213 1    
   182   91  214 1    
   183   92   93 2    
   184   92   94 am   BACKBONE|DICT|INTERRES
   185   94   95 1    
   186   94  215 1    
   187   95   96 1    
   188   95   97 1    
   189   95  216 1    
   190   96  217 1    
   191   96  218 1    
   192   96  219 1    
   193   97   98 2    
   194   97   99 am   BACKBONE|DICT|INTERRES
   195   99  100 1    
   196   99  220 1    
   197  100  101 1    
   198  100  102 1    
   199  100  221 1    
   200  101  222 1    
   201  101  223 1    
   202  101  224 1    
   203  102  103 2    
   204  102  104 am   BACKBONE|DICT|INTERRES
   205  104  105 1    
   206  104  225 1    
   207  105  106 1    
   208  105  107 1    
   209  105  226 1    
   210  106  227 1    
   211  106  228 1    
   212  106  229 1    
   213  107  108 2    
   214  107  109 am   BACKBONE|DICT|INTERRES
   215  109  110 1    
   216  109  230 1    
   217  110  111 1    
   218  110  112 1    
   219  110  231 1    
   220  111  232 1    
   221  111  233 1    
   222  111  234 1    
   223  112  113 2    
   224  112  114 am   BACKBONE|DICT|INTERRES
   225  114  115 1    
   226  114  235 1    
   227  115  116 1    
   228  115  117 1    
   229  115  236 1    
   230  116  237 1    
   231  116  238 1    
   232  116  239 1    
   233  117  118 2    
   234  117  119 am   BACKBONE|DICT|INTERRES
   235  119  120 1    
   236  119  240 1    
   237  120  121 1    
   238  120  124 1    
   239  120  241 1    
   240  121  122 am   BACKBONE|DICT|INTERRES
   241  121  123 2    
   242  122  242 1    
   243  122  243 1    
   244  124  125 1    
   245  124  244 1    
   246  124  245 1    
   247  125  126 1    
   248  126  246 1    
   249  126  247 1    
@<TRIPOS>SUBSTRUCTURE
     1 UNK         1 GROUP             0       ****    0 ROOT    
