@<TRIPOS>MOLECULE
3R540
247   249    1
SMALL
USER_CHARGES


@<TRIPOS>ATOM
      1 CA          2.7947   -9.6181  -50.6256 C.3       0 UNK        -0.1800 
      2 C           1.9612  -10.6040  -49.8212 C.2       0 UNK         0.5000 
      3 O           0.8667  -10.2587  -49.3737 O.2       0 UNK        -0.5000 
      4 N           2.4592  -11.8376  -49.6498 N.am      1 UNK        -0.5000 
      5 CA          1.8073  -12.9081  -48.8794 C.3       1 UNK         0.1400 
      6 C6          2.7153  -14.1570  -48.7132 C.3       23 UNK        -0.0398 
      7 S7          2.7622  -14.7771  -46.9954 S.3       23 UNK        -0.2404 
      8 C8          1.3814  -15.9637  -46.9265 C.3       23 UNK        -0.0205 
      9 C9          1.5749  -17.1525  -47.8519 C.ar      23 UNK        -0.0193 
     10 C10         0.8990  -17.2050  -49.0719 C.ar      23 UNK        -0.1150 
     11 C11         1.0875  -18.2812  -49.9431 C.ar      23 UNK        -0.0193 
     12 C12         1.9229  -19.3352  -49.5605 C.ar      23 UNK        -0.1150 
     13 C13         2.5801  -19.3125  -48.3265 C.ar      23 UNK        -0.0193 
     14 C14         2.4150  -18.2073  -47.4840 C.ar      23 UNK        -0.1150 
     15 C15         3.4905  -20.4691  -47.9286 C.3       23 UNK        -0.0205 
     16 S16         3.1268  -21.1374  -46.2720 S.3       23 UNK        -0.2404 
     17 C17         1.5114  -21.9582  -46.5073 C.3       23 UNK        -0.0398 
     18 CA          1.5812  -23.5080  -46.4406 C.3       11 UNK         0.1400 
     19 N           2.3632  -24.0027  -45.3030 N.am      11 UNK        -0.5000 
     20 C           2.8611  -25.2417  -45.1917 C.2       10 UNK         0.5000 
     21 O           2.7460  -26.1046  -46.0619 O.2       10 UNK        -0.5000 
     22 CA          3.5999  -25.5777  -43.8821 C.3       10 UNK         0.1400 
     23 CB          5.0874  -25.2114  -43.9964 C.3       10 UNK        -0.1800 
     24 N           3.0272  -24.8969  -42.7197 N.am      10 UNK        -0.5000 
     25 C           1.8445  -25.2017  -42.1667 C.2       9 UNK         0.5000 
     26 O           1.1362  -26.1380  -42.5366 O.2       9 UNK        -0.5000 
     27 CA          1.3556  -24.2813  -41.0290 C.3       9 UNK         0.1400 
     28 CB          1.8397  -24.8058  -39.6689 C.3       9 UNK        -0.1800 
     29 N           1.7594  -22.8770  -41.1760 N.am      9 UNK        -0.5000 
     30 C           1.4504  -22.0966  -42.2199 C.2       8 UNK         0.5000 
     31 O           0.8233  -22.4967  -43.2035 O.2       8 UNK        -0.5000 
     32 CA          1.9788  -20.6516  -42.1826 C.3       8 UNK         0.1400 
     33 CB          3.4957  -20.6256  -42.4307 C.3       8 UNK        -0.1800 
     34 N           1.3210  -19.8368  -43.2034 N.am      8 UNK        -0.5000 
     35 C           0.1030  -19.2997  -43.0685 C.2       7 UNK         0.5000 
     36 O          -0.5502  -19.3264  -42.0220 O.2       7 UNK        -0.5000 
     37 CA         -0.4987  -18.6435  -44.3257 C.3       7 UNK         0.1400 
     38 CB         -1.6239  -19.5225  -44.8931 C.3       7 UNK        -0.1800 
     39 N          -1.0370  -17.3078  -44.0656 N.am      7 UNK        -0.5000 
     40 C          -0.3555  -16.2624  -43.5812 C.2       6 UNK         0.5000 
     41 O           0.8443  -16.2979  -43.3022 O.2       6 UNK        -0.5000 
     42 CA         -1.1466  -14.9470  -43.4343 C.3       6 UNK         0.1400 
     43 CB         -0.3026  -13.8088  -42.8319 C.3       6 UNK        -0.1800 
     44 N          -1.6802  -14.4906  -44.7177 N.am      6 UNK        -0.5000 
     45 C          -2.8036  -14.9221  -45.3060 C.2       5 UNK         0.5000 
     46 O          -3.4888  -15.8391  -44.8501 O.2       5 UNK        -0.5000 
     47 CA         -3.2174  -14.2315  -46.6258 C.3       5 UNK         0.1400 
     48 CB         -4.7476  -14.0904  -46.7701 C.3       5 UNK        -0.1800 
     49 N          -2.5547  -12.9426  -46.8615 N.am      5 UNK        -0.5000 
     50 C          -2.6678  -11.8139  -46.1432 C.2       4 UNK         0.5000 
     51 O          -3.3688  -11.6994  -45.1377 O.2       4 UNK        -0.5000 
     52 CA         -1.8409  -10.6081  -46.6255 C.3       4 UNK         0.1400 
     53 CB         -0.4088  -10.6889  -46.0750 C.3       4 UNK        -0.1800 
     54 N          -1.7955  -10.4893  -48.0838 N.am      4 UNK        -0.5000 
     55 C          -2.8499  -10.1823  -48.8541 C.2       3 UNK         0.5000 
     56 O          -3.9762   -9.9487  -48.4141 O.2       3 UNK        -0.5000 
     57 CA         -2.6074  -10.1263  -50.3709 C.3       3 UNK         0.1400 
     58 CB         -2.0289   -8.7629  -50.7807 C.3       3 UNK        -0.1800 
     59 N          -1.7017  -11.1873  -50.8050 N.am      3 UNK        -0.5000 
     60 C          -2.0901  -12.4272  -51.1352 C.2       2 UNK         0.5000 
     61 O          -3.2655  -12.7927  -51.1628 O.2       2 UNK        -0.5000 
     62 CA         -0.9740  -13.4225  -51.5098 C.3       2 UNK         0.1400 
     63 CB         -0.6801  -13.3288  -53.0153 C.3       2 UNK        -0.1800 
     64 N           0.2742  -13.2065  -50.7750 N.am      2 UNK        -0.5000 
     65 C           0.4208  -13.2877  -49.4441 C.2       1 UNK         0.5000 
     66 O          -0.4885  -13.5783  -48.6694 O.2       1 UNK        -0.5000 
     67 C           0.1642  -24.1123  -46.3946 C.2       11 UNK         0.5000 
     68 O          -0.3247  -24.6234  -47.4018 O.2       11 UNK        -0.5000 
     69 N          -0.4341  -24.0966  -45.1936 N.am      12 UNK        -0.5000 
     70 CA         -1.7683  -24.5959  -44.8461 C.3       12 UNK         0.1400 
     71 CB         -2.1087  -24.1171  -43.4256 C.3       12 UNK        -0.1800 
     72 C          -1.9694  -26.1212  -44.9832 C.2       12 UNK         0.5000 
     73 O          -3.0597  -26.6121  -44.6867 O.2       12 UNK        -0.5000 
     74 N          -0.9443  -26.8487  -45.4459 N.am      13 UNK        -0.5000 
     75 CA         -1.0552  -28.2254  -45.9255 C.3       13 UNK         0.1400 
     76 CB          0.3558  -28.7989  -46.1229 C.3       13 UNK        -0.1800 
     77 C          -1.8728  -28.3229  -47.2324 C.2       13 UNK         0.5000 
     78 O          -2.5084  -29.3507  -47.4714 O.2       13 UNK        -0.5000 
     79 N          -1.8561  -27.2530  -48.0403 N.am      14 UNK        -0.5000 
     80 CA         -2.7015  -27.0793  -49.2199 C.3       14 UNK         0.1400 
     81 CB         -1.9182  -26.2602  -50.2602 C.3       14 UNK        -0.1800 
     82 C          -4.0220  -26.3745  -48.8490 C.2       14 UNK         0.5000 
     83 O          -4.1644  -25.8578  -47.7380 O.2       14 UNK        -0.5000 
     84 N          -4.9629  -26.3394  -49.8014 N.am      15 UNK        -0.5000 
     85 CA         -6.1982  -25.5551  -49.7140 C.3       15 UNK         0.1400 
     86 CB         -7.1328  -25.9738  -50.8590 C.3       15 UNK        -0.1800 
     87 C          -5.9062  -24.0447  -49.7932 C.2       15 UNK         0.5000 
     88 O          -4.9231  -23.6557  -50.4272 O.2       15 UNK        -0.5000 
     89 N          -6.7780  -23.2223  -49.1895 N.am      16 UNK        -0.5000 
     90 CA         -6.6483  -21.7627  -49.0392 C.3       16 UNK         0.1400 
     91 CB         -7.9221  -21.2086  -48.3850 C.3       16 UNK        -0.1800 
     92 C          -6.3381  -20.9873  -50.3347 C.2       16 UNK         0.5000 
     93 O          -5.5884  -20.0086  -50.2960 O.2       16 UNK        -0.5000 
     94 N          -6.8735  -21.4742  -51.4621 N.am      17 UNK        -0.5000 
     95 CA         -6.6232  -20.9587  -52.8079 C.3       17 UNK         0.1400 
     96 CB         -7.4576  -21.7618  -53.8165 C.3       17 UNK        -0.1800 
     97 C          -5.1350  -20.9756  -53.2096 C.2       17 UNK         0.5000 
     98 O          -4.6938  -20.0686  -53.9130 O.2       17 UNK        -0.5000 
     99 N          -4.3890  -21.9813  -52.7379 N.am      18 UNK        -0.5000 
    100 CA        -2.9517  -22.1244  -52.9550 C.3       18 UNK         0.1400 
    101 CB        -2.6488  -23.5832  -53.3282 C.3       18 UNK        -0.1800 
    102 C         -2.1519  -21.7157  -51.7078 C.2       18 UNK         0.5000 
    103 O         -1.0872  -21.1184  -51.8481 O.2       18 UNK        -0.5000 
    104 N         -2.6670  -22.0470  -50.5170 N.am      19 UNK        -0.5000 
    105 CA        -1.9978  -21.8499  -49.2324 C.3       19 UNK         0.1400 
    106 CB        -2.7182  -22.6704  -48.1562 C.3       19 UNK        -0.1800 
    107 C         -1.9202  -20.3892  -48.7716 C.2       19 UNK         0.5000 
    108 O         -0.9726  -20.0475  -48.0681 O.2       19 UNK        -0.5000 
    109 N         -2.9267  -19.5789  -49.1210 N.am      20 UNK        -0.5000 
    110 CA        -3.0595  -18.2018  -48.6519 C.3       20 UNK         0.1400 
    111 CB        -4.2819  -18.0973  -47.7260 C.3       20 UNK        -0.1800 
    112 C         -3.1683  -17.2203  -49.8236 C.2       20 UNK         0.5000 
    113 O         -2.4884  -16.1972  -49.8049 O.2       20 UNK        -0.5000 
    114 N         -4.0077  -17.5369  -50.8200 N.am      21 UNK        -0.5000 
    115 CA        -4.2429  -16.6665  -51.9778 C.3       21 UNK         0.1400 
    116 CB        -5.6528  -16.9263  -52.5268 C.3       21 UNK        -0.1800 
    117 C         -3.1771  -16.8038  -53.0852 C.2       21 UNK         0.5000 
    118 O         -3.0843  -15.9167  -53.9341 O.2       21 UNK        -0.5000 
    119 N         -2.3928  -17.8904  -53.0533 N.am      22 UNK        -0.5000 
    120 CA        -1.2747  -18.1896  -53.9694 C.3       22 UNK         0.1400 
    121 C         -1.6999  -18.4700  -55.4457 C.2       22 UNK         0.5000 
    122 N         -2.9139  -18.9311  -55.7116 N.am      22 UNK        -0.7600 
    123 O         -0.9138  -18.2929  -56.3731 O.2       22 UNK        -0.5000 
    124 C124       -0.1165  -17.1482  -53.8881 C.3       23 UNK        -0.0398 
    125 S125        0.6159  -16.7974  -52.2470 S.3       23 UNK        -0.2404 
    126 C126        0.3689  -18.3236  -51.2828 C.3       23 UNK        -0.0205 
    127 H127        3.0388   -8.7495  -50.0142 H         1 UNK         0.0600 
    128 H128        2.2339   -9.2770  -51.4958 H         1 UNK         0.0600 
    129 H129        3.7269  -10.0636  -50.9734 H         1 UNK         0.0600 
    130 H130        3.3605  -12.0619  -50.0469 H         1 UNK         0.3000 
    131 H131        1.6313  -12.4784  -47.8922 H         1 UNK         0.0600 
    132 H132        2.4598  -14.9585  -49.4076 H         1 UNK         0.0800 
    133 H133        3.7478  -13.9036  -48.9565 H         1 UNK         0.0800 
    134 H134        1.3069  -16.3312  -45.9053 H         1 UNK         0.0800 
    135 H135        0.4386  -15.4574  -47.1336 H         1 UNK         0.0800 
    136 H136        0.2352  -16.3992  -49.3541 H         1 UNK         0.1150 
    137 H137        2.0547  -20.1791  -50.2229 H         1 UNK         0.1150 
    138 H138        2.9360  -18.1702  -46.5378 H         1 UNK         0.1150 
    139 H139        3.4342  -21.2809  -48.6553 H         1 UNK         0.0800 
    140 H140        4.5220  -20.1154  -47.9421 H         1 UNK         0.0800 
    141 H141        1.0827  -21.6467  -47.4608 H         1 UNK         0.0800 
    142 H142        0.8432  -21.5654  -45.7403 H         1 UNK         0.0800 
    143 H143        2.0632  -23.8570  -47.3564 H         1 UNK         0.0600 
    144 H144        2.4555  -23.3680  -44.5233 H         1 UNK         0.3000 
    145 H145        3.5239  -26.6556  -43.7233 H         1 UNK         0.0600 
    146 H146        5.6360  -25.5048  -43.1013 H         1 UNK         0.0600 
    147 H147        5.5506  -25.7214  -44.8421 H         1 UNK         0.0600 
    148 H148        5.2289  -24.1395  -44.1421 H         1 UNK         0.0600 
    149 H149        3.5472  -24.1185  -42.3427 H         1 UNK         0.3000 
    150 H150        0.2646  -24.3093  -41.0326 H         1 UNK         0.0600 
    151 H151        2.9267  -24.7683  -39.5864 H         1 UNK         0.0600 
    152 H152        1.5346  -25.8423  -39.5187 H         1 UNK         0.0600 
    153 H153        1.4195  -24.2236  -38.8486 H         1 UNK         0.0600 
    154 H154        2.2896  -22.4832  -40.4120 H         1 UNK         0.3000 
    155 H155        1.7759  -20.2295  -41.1961 H         1 UNK         0.0600 
    156 H156        3.7624  -21.1058  -43.3722 H         1 UNK         0.0600 
    157 H157        4.0337  -21.1446  -41.6367 H         1 UNK         0.0600 
    158 H158        3.8728  -19.6030  -42.4585 H         1 UNK         0.0600 
    159 H159        1.7776  -19.8025  -44.1030 H         1 UNK         0.3000 
    160 H160        0.2785  -18.5458  -45.0866 H         1 UNK         0.0600 
    161 H161       -2.4387  -19.6461  -44.1787 H         1 UNK         0.0600 
    162 H162       -1.2573  -20.5175  -45.1479 H         1 UNK         0.0600 
    163 H163       -2.0397  -19.0871  -45.8004 H         1 UNK         0.0600 
    164 H164       -2.0184  -17.1641  -44.2761 H         1 UNK         0.3000 
    165 H165       -1.9772  -15.1414  -42.7524 H         1 UNK         0.0600 
    166 H166        0.0912  -14.0886  -41.8540 H         1 UNK         0.0600 
    167 H167        0.5456  -13.5546  -43.4691 H         1 UNK         0.0600 
    168 H168       -0.8995  -12.9069  -42.6941 H         1 UNK         0.0600 
    169 H169       -1.1617  -13.7610  -45.1826 H         1 UNK         0.3000 
    170 H170       -2.8716  -14.8901  -47.4231 H         1 UNK         0.0600 
    171 H171       -5.2466  -15.0573  -46.7151 H         1 UNK         0.0600 
    172 H172       -5.1740  -13.4662  -45.9848 H         1 UNK         0.0600 
    173 H173       -5.0100  -13.6468  -47.7308 H         1 UNK         0.0600 
    174 H174       -1.8969  -12.9504  -47.6391 H         1 UNK         0.3000 
    175 H175       -2.3064   -9.7030  -46.2298 H         1 UNK         0.0600 
    176 H176        0.1874   -9.8337  -46.3940 H         1 UNK         0.0600 
    177 H177       -0.4109  -10.6968  -44.9843 H         1 UNK         0.0600 
    178 H178        0.0984  -11.5942  -46.4067 H         1 UNK         0.0600 
    179 H179       -0.8891  -10.6068  -48.5253 H         1 UNK         0.3000 
    180 H180       -3.5713  -10.2438  -50.8709 H         1 UNK         0.0600 
    181 H181       -1.0633   -8.5726  -50.3109 H         1 UNK         0.0600 
    182 H182       -2.6993   -7.9529  -50.4907 H         1 UNK         0.0600 
    183 H183       -1.8935   -8.7016  -51.8606 H         1 UNK         0.0600 
    184 H184       -0.7125  -10.9821  -50.7568 H         1 UNK         0.3000 
    185 H185       -1.3257  -14.4305  -51.2877 H         1 UNK         0.0600 
    186 H186       -1.5687  -13.5693  -53.6001 H         1 UNK         0.0600 
    187 H187       -0.3593  -12.3265  -53.3020 H         1 UNK         0.0600 
    188 H188        0.1026  -14.0251  -53.3134 H         1 UNK         0.0600 
    189 H189        1.0780  -12.9437  -51.3258 H         1 UNK         0.3000 
    190 H190        0.0659  -23.6435  -44.4312 H         1 UNK         0.3000 
    191 H191       -2.4798  -24.1359  -45.5327 H         1 UNK         0.0600 
    192 H192       -2.0218  -23.0334  -43.3412 H         1 UNK         0.0600 
    193 H193       -3.1310  -24.3812  -43.1529 H         1 UNK         0.0600 
    194 H194       -1.4449  -24.5662  -42.6871 H         1 UNK         0.0600 
    195 H195       -0.0780  -26.3699  -45.6454 H         1 UNK         0.3000 
    196 H196       -1.5655  -28.8174  -45.1630 H         1 UNK         0.0600 
    197 H197        0.3127  -29.8388  -46.4492 H         1 UNK         0.0600 
    198 H198        0.9262  -28.7716  -45.1941 H         1 UNK         0.0600 
    199 H199        0.9149  -28.2404  -46.8749 H         1 UNK         0.0600 
    200 H200       -1.3463  -26.4283  -47.7416 H         1 UNK         0.3000 
    201 H201       -2.9403  -28.0530  -49.6524 H         1 UNK         0.0600 
    202 H202       -2.4807  -26.1632  -51.1886 H         1 UNK         0.0600 
    203 H203       -1.6960  -25.2541  -49.9031 H         1 UNK         0.0600 
    204 H204       -0.9716  -26.7411  -50.5073 H         1 UNK         0.0600 
    205 H205       -4.7642  -26.7560  -50.6988 H         1 UNK         0.3000 
    206 H206       -6.6836  -25.7726  -48.7603 H         1 UNK         0.0600 
    207 H207       -7.3642  -27.0381  -50.8101 H         1 UNK         0.0600 
    208 H208       -8.0799  -25.4349  -50.8102 H         1 UNK         0.0600 
    209 H209       -6.6900  -25.7710  -51.8352 H         1 UNK         0.0600 
    210 H210       -7.5705  -23.6362  -48.7198 H         1 UNK         0.3000 
    211 H211       -5.8221  -21.5772  -48.3533 H         1 UNK         0.0600 
    212 H212       -8.8047  -21.4003  -48.9966 H         1 UNK         0.0600 
    213 H213       -7.8505  -20.1295  -48.2402 H         1 UNK         0.0600 
    214 H214       -8.0889  -21.6545  -47.4043 H         1 UNK         0.0600 
    215 H215       -7.4638  -22.2897  -51.3925 H         1 UNK         0.3000 
    216 H216       -6.9652  -19.9232  -52.8320 H         1 UNK         0.0600 
    217 H217       -7.3100  -21.3879  -54.8306 H         1 UNK         0.0600 
    218 H218       -8.5226  -21.6874  -53.5962 H         1 UNK         0.0600 
    219 H219       -7.1859  -22.8182  -53.8129 H         1 UNK         0.0600 
    220 H220       -4.8165  -22.6535  -52.1093 H         1 UNK         0.3000 
    221 H221       -2.6235  -21.4915  -53.7824 H         1 UNK         0.0600 
    222 H222       -2.9870  -24.2728  -52.5547 H         1 UNK         0.0600 
    223 H223       -3.1423  -23.8595  -54.2600 H         1 UNK         0.0600 
    224 H224       -1.5782  -23.7397  -53.4669 H         1 UNK         0.0600 
    225 H225       -3.5332  -22.5816  -50.4924 H         1 UNK         0.3000 
    226 H226       -0.9753  -22.2242  -49.3189 H         1 UNK         0.0600 
    227 H227       -2.2616  -22.5123  -47.1795 H         1 UNK         0.0600 
    228 H228       -3.7671  -22.3976  -48.0683 H         1 UNK         0.0600 
    229 H229       -2.6675  -23.7347  -48.3736 H         1 UNK         0.0600 
    230 H230       -3.6878  -19.9434  -49.6829 H         1 UNK         0.3000 
    231 H231       -2.1809  -17.9041  -48.0749 H         1 UNK         0.0600 
    232 H232       -5.2135  -18.3103  -48.2505 H         1 UNK         0.0600 
    233 H233       -4.3630  -17.0963  -47.3067 H         1 UNK         0.0600 
    234 H234       -4.2056  -18.7918  -46.8896 H         1 UNK         0.0600 
    235 H235       -4.5732  -18.3774  -50.7494 H         1 UNK         0.3000 
    236 H236       -4.2149  -15.6267  -51.6432 H         1 UNK         0.0600 
    237 H237       -5.8792  -16.2538  -53.3551 H         1 UNK         0.0600 
    238 H238       -5.7588  -17.9433  -52.8952 H         1 UNK         0.0600 
    239 H239       -6.4111  -16.7658  -51.7604 H         1 UNK         0.0600 
    240 H240       -2.5704  -18.5748  -52.3348 H         1 UNK         0.3000 
    241 H241       -0.8714  -19.1446  -53.6373 H         1 UNK         0.0600 
    242 H242       -3.5674  -19.1707  -54.9669 H         1 UNK         0.3800 
    243 H243       -3.1723  -19.1088  -56.6684 H         1 UNK         0.3800 
    244 H244       -0.4432  -16.1983  -54.3124 H         1 UNK         0.0800 
    245 H245        0.7128  -17.4751  -54.5173 H         1 UNK         0.0800 
    246 H246       -0.6908  -18.4813  -51.0908 H         1 UNK         0.0800 
    247 H247        0.7219  -19.1704  -51.8723 H         1 UNK         0.0800 
@<TRIPOS>BOND
     1    1    2 1    
     2    1  127 1    
     3    1  128 1    
     4    1  129 1    
     5    2    3 2    
     6    2    4 am   BACKBONE|DICT|INTERRES
     7    4    5 1    
     8    4  130 1    
     9    5    6 1    
    10    5   65 1    
    11    5  131 1    
    12    6    7 1    
    13    6  132 1    
    14    6  133 1    
    15    7    8 1    
    16    8    9 1    
    17    8  134 1    
    18    8  135 1    
    19    9   10 ar   
    20    9   14 ar   
    21   10   11 ar   
    22   10  136 1    
    23   11   12 ar   
    24   11  126 1    
    25   12   13 ar   
    26   12  137 1    
    27   13   14 ar   
    28   13   15 1    
    29   14  138 1    
    30   15   16 1    
    31   15  139 1    
    32   15  140 1    
    33   16   17 1    
    34   17   18 1    
    35   17  141 1    
    36   17  142 1    
    37   18   19 1    
    38   18   67 1    
    39   18  143 1    
    40   19   20 am   BACKBONE|DICT|INTERRES
    41   19  144 1    
    42   20   21 2    
    43   20   22 1    
    44   22   23 1    
    45   22   24 1    
    46   22  145 1    
    47   23  146 1    
    48   23  147 1    
    49   23  148 1    
    50   24   25 am   BACKBONE|DICT|INTERRES
    51   24  149 1    
    52   25   26 2    
    53   25   27 1    
    54   27   28 1    
    55   27   29 1    
    56   27  150 1    
    57   28  151 1    
    58   28  152 1    
    59   28  153 1    
    60   29   30 am   BACKBONE|DICT|INTERRES
    61   29  154 1    
    62   30   31 2    
    63   30   32 1    
    64   32   33 1    
    65   32   34 1    
    66   32  155 1    
    67   33  156 1    
    68   33  157 1    
    69   33  158 1    
    70   34   35 am   BACKBONE|DICT|INTERRES
    71   34  159 1    
    72   35   36 2    
    73   35   37 1    
    74   37   38 1    
    75   37   39 1    
    76   37  160 1    
    77   38  161 1    
    78   38  162 1    
    79   38  163 1    
    80   39   40 am   BACKBONE|DICT|INTERRES
    81   39  164 1    
    82   40   41 2    
    83   40   42 1    
    84   42   43 1    
    85   42   44 1    
    86   42  165 1    
    87   43  166 1    
    88   43  167 1    
    89   43  168 1    
    90   44   45 am   BACKBONE|DICT|INTERRES
    91   44  169 1    
    92   45   46 2    
    93   45   47 1    
    94   47   48 1    
    95   47   49 1    
    96   47  170 1    
    97   48  171 1    
    98   48  172 1    
    99   48  173 1    
   100   49   50 am   BACKBONE|DICT|INTERRES
   101   49  174 1    
   102   50   51 2    
   103   50   52 1    
   104   52   53 1    
   105   52   54 1    
   106   52  175 1    
   107   53  176 1    
   108   53  177 1    
   109   53  178 1    
   110   54   55 am   BACKBONE|DICT|INTERRES
   111   54  179 1    
   112   55   56 2    
   113   55   57 1    
   114   57   58 1    
   115   57   59 1    
   116   57  180 1    
   117   58  181 1    
   118   58  182 1    
   119   58  183 1    
   120   59   60 am   BACKBONE|DICT|INTERRES
   121   59  184 1    
   122   60   61 2    
   123   60   62 1    
   124   62   63 1    
   125   62   64 1    
   126   62  185 1    
   127   63  186 1    
   128   63  187 1    
   129   63  188 1    
   130   64   65 am   BACKBONE|DICT|INTERRES
   131   64  189 1    
   132   65   66 2    
   133   67   68 2    
   134   67   69 am   BACKBONE|DICT|INTERRES
   135   69   70 1    
   136   69  190 1    
   137   70   71 1    
   138   70   72 1    
   139   70  191 1    
   140   71  192 1    
   141   71  193 1    
   142   71  194 1    
   143   72   73 2    
   144   72   74 am   BACKBONE|DICT|INTERRES
   145   74   75 1    
   146   74  195 1    
   147   75   76 1    
   148   75   77 1    
   149   75  196 1    
   150   76  197 1    
   151   76  198 1    
   152   76  199 1    
   153   77   78 2    
   154   77   79 am   BACKBONE|DICT|INTERRES
   155   79   80 1    
   156   79  200 1    
   157   80   81 1    
   158   80   82 1    
   159   80  201 1    
   160   81  202 1    
   161   81  203 1    
   162   81  204 1    
   163   82   83 2    
   164   82   84 am   BACKBONE|DICT|INTERRES
   165   84   85 1    
   166   84  205 1    
   167   85   86 1    
   168   85   87 1    
   169   85  206 1    
   170   86  207 1    
   171   86  208 1    
   172   86  209 1    
   173   87   88 2    
   174   87   89 am   BACKBONE|DICT|INTERRES
   175   89   90 1    
   176   89  210 1    
   177   90   91 1    
   178   90   92 1    
   179   90  211 1    
   180   91  212 1    
   181   91  213 1    
   182   91  214 1    
   183   92   93 2    
   184   92   94 am   BACKBONE|DICT|INTERRES
   185   94   95 1    
   186   94  215 1    
   187   95   96 1    
   188   95   97 1    
   189   95  216 1    
   190   96  217 1    
   191   96  218 1    
   192   96  219 1    
   193   97   98 2    
   194   97   99 am   BACKBONE|DICT|INTERRES
   195   99  100 1    
   196   99  220 1    
   197  100  101 1    
   198  100  102 1    
   199  100  221 1    
   200  101  222 1    
   201  101  223 1    
   202  101  224 1    
   203  102  103 2    
   204  102  104 am   BACKBONE|DICT|INTERRES
   205  104  105 1    
   206  104  225 1    
   207  105  106 1    
   208  105  107 1    
   209  105  226 1    
   210  106  227 1    
   211  106  228 1    
   212  106  229 1    
   213  107  108 2    
   214  107  109 am   BACKBONE|DICT|INTERRES
   215  109  110 1    
   216  109  230 1    
   217  110  111 1    
   218  110  112 1    
   219  110  231 1    
   220  111  232 1    
   221  111  233 1    
   222  111  234 1    
   223  112  113 2    
   224  112  114 am   BACKBONE|DICT|INTERRES
   225  114  115 1    
   226  114  235 1    
   227  115  116 1    
   228  115  117 1    
   229  115  236 1    
   230  116  237 1    
   231  116  238 1    
   232  116  239 1    
   233  117  118 2    
   234  117  119 am   BACKBONE|DICT|INTERRES
   235  119  120 1    
   236  119  240 1    
   237  120  121 1    
   238  120  124 1    
   239  120  241 1    
   240  121  122 am   BACKBONE|DICT|INTERRES
   241  121  123 2    
   242  122  242 1    
   243  122  243 1    
   244  124  125 1    
   245  124  244 1    
   246  124  245 1    
   247  125  126 1    
   248  126  246 1    
   249  126  247 1    
@<TRIPOS>SUBSTRUCTURE
     1 UNK         1 GROUP             0       ****    0 ROOT    
