@<TRIPOS>MOLECULE
3R540
247   249    1
SMALL
USER_CHARGES


@<TRIPOS>ATOM
      1 CA          0.6198  -12.0433  -48.1414 C.3       0 UNK        -0.1800 
      2 C           2.0615  -12.4706  -48.3767 C.2       0 UNK         0.5000 
      3 O           2.9782  -11.8708  -47.8162 O.2       0 UNK        -0.5000 
      4 N           2.2631  -13.5166  -49.1881 N.am      1 UNK        -0.5000 
      5 CA          3.5587  -14.1036  -49.5615 C.3       1 UNK         0.1400 
      6 C6          3.3382  -15.2539  -50.5718 C.3       23 UNK        -0.0398 
      7 S7          4.8342  -15.8037  -51.4611 S.3       23 UNK        -0.2404 
      8 C8          5.1540  -17.4259  -50.6783 C.3       23 UNK        -0.0205 
      9 C9          4.0550  -18.4842  -50.8226 C.ar      23 UNK        -0.0193 
     10 C10         2.9901  -18.3660  -51.7266 C.ar      23 UNK        -0.1150 
     11 C11         1.9994  -19.3492  -51.8009 C.ar      23 UNK        -0.0193 
     12 C12         2.0869  -20.4769  -50.9801 C.ar      23 UNK        -0.1150 
     13 C13         3.1542  -20.6237  -50.0901 C.ar      23 UNK        -0.0193 
     14 C14         4.1300  -19.6252  -50.0183 C.ar      23 UNK        -0.1150 
     15 C15         3.2719  -21.8768  -49.2332 C.3       23 UNK        -0.0205 
     16 S16         3.2943  -21.5237  -47.4449 S.3       23 UNK        -0.2404 
     17 C17         1.6298  -20.8389  -47.1534 C.3       23 UNK        -0.0398 
     18 CA          0.6113  -21.9223  -46.7129 C.3       11 UNK         0.1400 
     19 N          -0.3444  -21.4270  -45.7190 N.am      11 UNK        -0.5000 
     20 C          -1.2278  -22.1860  -45.0548 C.2       10 UNK         0.5000 
     21 O          -1.2871  -23.4105  -45.1561 O.2       10 UNK        -0.5000 
     22 CA         -2.2563  -21.4524  -44.1736 C.3       10 UNK         0.1400 
     23 CB         -1.6834  -21.1551  -42.7804 C.3       10 UNK        -0.1800 
     24 N          -2.7365  -20.2166  -44.7945 N.am      10 UNK        -0.5000 
     25 C          -3.4536  -20.1799  -45.9274 C.2       9 UNK         0.5000 
     26 O          -3.8558  -21.1892  -46.5067 O.2       9 UNK        -0.5000 
     27 CA         -3.7305  -18.7932  -46.5375 C.3       9 UNK         0.1400 
     28 CB         -4.9471  -18.1383  -45.8675 C.3       9 UNK        -0.1800 
     29 N          -2.5794  -17.8942  -46.4469 N.am      9 UNK        -0.5000 
     30 C          -1.4052  -18.0964  -47.0616 C.2       8 UNK         0.5000 
     31 O          -1.1796  -19.0449  -47.8120 O.2       8 UNK        -0.5000 
     32 CA         -0.2644  -17.1204  -46.7184 C.3       8 UNK         0.1400 
     33 CB         -0.3827  -15.8107  -47.5079 C.3       8 UNK        -0.1800 
     34 N          -0.2036  -16.8187  -45.2897 N.am      8 UNK        -0.5000 
     35 C           0.0766  -17.7162  -44.3350 C.2       7 UNK         0.5000 
     36 O           0.3451  -18.8931  -44.5652 O.2       7 UNK        -0.5000 
     37 CA          0.0057  -17.2277  -42.8793 C.3       7 UNK         0.1400 
     38 CB          1.3063  -16.5220  -42.4678 C.3       7 UNK        -0.1800 
     39 N          -1.1323  -16.3365  -42.6618 N.am      7 UNK        -0.5000 
     40 C          -2.4133  -16.7302  -42.6985 C.2       6 UNK         0.5000 
     41 O          -2.7674  -17.8963  -42.8723 O.2       6 UNK        -0.5000 
     42 CA         -3.4729  -15.6221  -42.5660 C.3       6 UNK         0.1400 
     43 CB         -3.7115  -15.2710  -41.0899 C.3       6 UNK        -0.1800 
     44 N          -3.1040  -14.4113  -43.3020 N.am      6 UNK        -0.5000 
     45 C          -3.0218  -14.3374  -44.6381 C.2       5 UNK         0.5000 
     46 O          -3.2796  -15.2755  -45.3907 O.2       5 UNK        -0.5000 
     47 CA         -2.5218  -13.0063  -45.2269 C.3       5 UNK         0.1400 
     48 CB         -3.6829  -12.0148  -45.3907 C.3       5 UNK        -0.1800 
     49 N          -1.4599  -12.3886  -44.4273 N.am      5 UNK        -0.5000 
     50 C          -0.2409  -12.9161  -44.2631 C.2       4 UNK         0.5000 
     51 O           0.1073  -14.0003  -44.7378 O.2       4 UNK        -0.5000 
     52 CA          0.7542  -12.1128  -43.4211 C.3       4 UNK         0.1400 
     53 CB          0.7249  -12.5619  -41.9499 C.3       4 UNK        -0.1800 
     54 N           2.0767  -12.3190  -43.9957 N.am      4 UNK        -0.5000 
     55 C           3.1348  -11.5156  -43.8503 C.2       3 UNK         0.5000 
     56 O           3.1349  -10.5256  -43.1165 O.2       3 UNK        -0.5000 
     57 CA          4.3844  -11.8281  -44.7002 C.3       3 UNK         0.1400 
     58 CB          5.6960  -11.7129  -43.8951 C.3       3 UNK        -0.1800 
     59 N           4.3065  -13.0881  -45.4531 N.am      3 UNK        -0.5000 
     60 C           4.4292  -14.3454  -44.9993 C.2       2 UNK         0.5000 
     61 O           4.6283  -14.6248  -43.8172 O.2       2 UNK        -0.5000 
     62 CA          4.2858  -15.4898  -46.0301 C.3       2 UNK         0.1400 
     63 CB          3.4252  -16.6372  -45.4831 C.3       2 UNK        -0.1800 
     64 N           3.7020  -15.0493  -47.2987 N.am      2 UNK        -0.5000 
     65 C           4.3899  -14.5720  -48.3439 C.2       1 UNK         0.5000 
     66 O           5.6158  -14.4582  -48.3559 O.2       1 UNK        -0.5000 
     67 C          -0.1043  -22.5499  -47.9262 C.2       11 UNK         0.5000 
     68 O           0.2604  -23.6498  -48.3381 O.2       11 UNK        -0.5000 
     69 N          -1.1380  -21.8691  -48.4430 N.am      12 UNK        -0.5000 
     70 CA         -1.9993  -22.3526  -49.5242 C.3       12 UNK         0.1400 
     71 CB         -3.0138  -21.2649  -49.9054 C.3       12 UNK        -0.1800 
     72 C          -2.7208  -23.6630  -49.1601 C.2       12 UNK         0.5000 
     73 O          -2.7286  -24.5956  -49.9638 O.2       12 UNK        -0.5000 
     74 N          -3.2651  -23.7301  -47.9367 N.am      13 UNK        -0.5000 
     75 CA         -3.8979  -24.9246  -47.3788 C.3       13 UNK         0.1400 
     76 CB         -4.5764  -24.5769  -46.0456 C.3       13 UNK        -0.1800 
     77 C          -2.9123  -26.0974  -47.2133 C.2       13 UNK         0.5000 
     78 O          -3.2419  -27.2194  -47.5979 O.2       13 UNK        -0.5000 
     79 N          -1.7086  -25.8161  -46.6928 N.am      14 UNK        -0.5000 
     80 CA         -0.6163  -26.7822  -46.5376 C.3       14 UNK         0.1400 
     81 CB          0.5184  -26.1484  -45.7188 C.3       14 UNK        -0.1800 
     82 C          -0.0846  -27.3177  -47.8815 C.2       14 UNK         0.5000 
     83 O           0.2477  -28.4995  -47.9777 O.2       14 UNK        -0.5000 
     84 N          -0.0535  -26.4514  -48.9026 N.am      15 UNK        -0.5000 
     85 CA          0.2893  -26.7800  -50.2879 C.3       15 UNK         0.1400 
     86 CB          0.6530  -25.4808  -51.0265 C.3       15 UNK        -0.1800 
     87 C          -0.8254  -27.5389  -51.0412 C.2       15 UNK         0.5000 
     88 O          -0.5902  -27.9746  -52.1691 O.2       15 UNK        -0.5000 
     89 N          -2.0079  -27.6758  -50.4213 N.am      16 UNK        -0.5000 
     90 CA         -3.2295  -28.2961  -50.9432 C.3       16 UNK         0.1400 
     91 CB         -3.0208  -29.8011  -51.2143 C.3       16 UNK        -0.1800 
     92 C          -3.8295  -27.5346  -52.1441 C.2       16 UNK         0.5000 
     93 O          -4.4247  -28.1478  -53.0331 O.2       16 UNK        -0.5000 
     94 N          -3.6760  -26.2051  -52.1381 N.am      17 UNK        -0.5000 
     95 CA         -4.3091  -25.2800  -53.0731 C.3       17 UNK         0.1400 
     96 CB         -3.3883  -24.0569  -53.2433 C.3       17 UNK        -0.1800 
     97 C          -5.7119  -24.8776  -52.5703 C.2       17 UNK         0.5000 
     98 O          -6.1993  -25.4109  -51.5685 O.2       17 UNK        -0.5000 
     99 N          -6.3448  -23.9362  -53.2814 N.am      18 UNK        -0.5000 
    100 CA        -7.6158  -23.3158  -52.9013 C.3       18 UNK         0.1400 
    101 CB        -8.0937  -22.4286  -54.0623 C.3       18 UNK        -0.1800 
    102 C         -7.5039  -22.4892  -51.6028 C.2       18 UNK         0.5000 
    103 O         -6.4084  -22.0572  -51.2367 O.2       18 UNK        -0.5000 
    104 N         -8.6495  -22.2707  -50.9438 N.am      19 UNK        -0.5000 
    105 CA        -8.7751  -21.4459  -49.7402 C.3       19 UNK         0.1400 
    106 CB       -10.2031  -21.5818  -49.1891 C.3       19 UNK        -0.1800 
    107 C         -8.4367  -19.9660  -50.0082 C.2       19 UNK         0.5000 
    108 O         -8.7002  -19.4675  -51.1062 O.2       19 UNK        -0.5000 
    109 N         -7.8774  -19.2996  -48.9882 N.am      20 UNK        -0.5000 
    110 CA        -7.2990  -17.9523  -49.0386 C.3       20 UNK         0.1400 
    111 CB        -8.3878  -16.8824  -49.2858 C.3       20 UNK        -0.1800 
    112 C         -6.1064  -17.9064  -50.0198 C.2       20 UNK         0.5000 
    113 O         -5.2548  -18.7926  -49.9486 O.2       20 UNK        -0.5000 
    114 N         -6.0686  -16.8991  -50.9046 N.am      21 UNK        -0.5000 
    115 CA        -5.0541  -16.6703  -51.9414 C.3       21 UNK         0.1400 
    116 CB        -5.0741  -17.8204  -52.9750 C.3       21 UNK        -0.1800 
    117 C         -3.6402  -16.3990  -51.3758 C.2       21 UNK         0.5000 
    118 O         -3.4858  -16.1443  -50.1788 O.2       21 UNK        -0.5000 
    119 N         -2.6396  -16.4098  -52.2682 N.am      22 UNK        -0.5000 
    120 CA        -1.2077  -16.2076  -51.9738 C.3       22 UNK         0.1400 
    121 C         -0.8560  -14.7976  -51.4020 C.2       22 UNK         0.5000 
    122 N         -1.6503  -13.7670  -51.6628 N.am      22 UNK        -0.7600 
    123 O          0.1587  -14.6200  -50.7355 O.2       22 UNK        -0.5000 
    124 C124       -0.5926  -17.3739  -51.1479 C.3       23 UNK        -0.0398 
    125 S125       -0.7641  -18.9962  -51.9703 S.3       23 UNK        -0.2404 
    126 C126        0.8498  -19.2019  -52.7888 C.3       23 UNK        -0.0205 
    127 H127       -0.0876  -12.7340  -48.6014 H         1 UNK         0.0600 
    128 H128        0.4498  -11.0509  -48.5581 H         1 UNK         0.0600 
    129 H129        0.4094  -12.0065  -47.0732 H         1 UNK         0.0600 
    130 H130        1.4561  -13.9326  -49.6528 H         1 UNK         0.3000 
    131 H131        4.1273  -13.3147  -50.0580 H         1 UNK         0.0600 
    132 H132        2.6500  -14.9225  -51.3496 H         1 UNK         0.0800 
    133 H133        2.8446  -16.0960  -50.0845 H         1 UNK         0.0800 
    134 H134        6.0739  -17.8303  -51.1023 H         1 UNK         0.0800 
    135 H135        5.3536  -17.2585  -49.6186 H         1 UNK         0.0800 
    136 H136        2.9187  -17.5072  -52.3772 H         1 UNK         0.1150 
    137 H137        1.3255  -21.2421  -51.0433 H         1 UNK         0.1150 
    138 H138        4.9546  -19.7401  -49.3284 H         1 UNK         0.1150 
    139 H139        2.4682  -22.5794  -49.4549 H         1 UNK         0.0800 
    140 H140        4.1983  -22.3891  -49.4957 H         1 UNK         0.0800 
    141 H141        1.2869  -20.2705  -48.0200 H         1 UNK         0.0800 
    142 H142        1.7562  -20.1011  -46.3617 H         1 UNK         0.0800 
    143 H143        1.1579  -22.7253  -46.2137 H         1 UNK         0.0600 
    144 H144       -0.3182  -20.4313  -45.5198 H         1 UNK         0.3000 
    145 H145       -3.1147  -22.1153  -44.0469 H         1 UNK         0.0600 
    146 H146       -2.4279  -20.6799  -42.1414 H         1 UNK         0.0600 
    147 H147       -1.3690  -22.0749  -42.2858 H         1 UNK         0.0600 
    148 H148       -0.8162  -20.4977  -42.8284 H         1 UNK         0.0600 
    149 H149       -2.4900  -19.3458  -44.3370 H         1 UNK         0.3000 
    150 H150       -3.9560  -18.9361  -47.5957 H         1 UNK         0.0600 
    151 H151       -5.8276  -18.7770  -45.9461 H         1 UNK         0.0600 
    152 H152       -5.1889  -17.1852  -46.3381 H         1 UNK         0.0600 
    153 H153       -4.7706  -17.9502  -44.8082 H         1 UNK         0.0600 
    154 H154       -2.7011  -17.0537  -45.8890 H         1 UNK         0.3000 
    155 H155        0.6774  -17.5978  -46.9973 H         1 UNK         0.0600 
    156 H156       -1.3315  -15.3078  -47.3222 H         1 UNK         0.0600 
    157 H157       -0.3185  -16.0007  -48.5761 H         1 UNK         0.0600 
    158 H158        0.4192  -15.1186  -47.2538 H         1 UNK         0.0600 
    159 H159       -0.3550  -15.8505  -45.0227 H         1 UNK         0.3000 
    160 H160       -0.1206  -18.1032  -42.2389 H         1 UNK         0.0600 
    161 H161        1.4977  -15.6347  -43.0713 H         1 UNK         0.0600 
    162 H162        2.1626  -17.1870  -42.5856 H         1 UNK         0.0600 
    163 H163        1.2757  -16.2164  -41.4220 H         1 UNK         0.0600 
    164 H164       -0.9296  -15.3548  -42.5534 H         1 UNK         0.3000 
    165 H165       -4.4078  -16.0033  -42.9826 H         1 UNK         0.0600 
    166 H166       -4.5133  -14.5401  -40.9836 H         1 UNK         0.0600 
    167 H167       -4.0019  -16.1554  -40.5212 H         1 UNK         0.0600 
    168 H168       -2.8167  -14.8587  -40.6219 H         1 UNK         0.0600 
    169 H169       -2.8766  -13.5928  -42.7572 H         1 UNK         0.3000 
    170 H170       -2.1152  -13.2170  -46.2184 H         1 UNK         0.0600 
    171 H171       -4.4799  -12.4449  -45.9988 H         1 UNK         0.0600 
    172 H172       -4.1165  -11.7373  -44.4291 H         1 UNK         0.0600 
    173 H173       -3.3542  -11.1018  -45.8876 H         1 UNK         0.0600 
    174 H174       -1.6739  -11.4965  -44.0047 H         1 UNK         0.3000 
    175 H175        0.4960  -11.0538  -43.4869 H         1 UNK         0.0600 
    176 H176       -0.2738  -12.4527  -41.5256 H         1 UNK         0.0600 
    177 H177        1.0182  -13.6057  -41.8404 H         1 UNK         0.0600 
    178 H178        1.4016  -11.9625  -41.3408 H         1 UNK         0.0600 
    179 H179        2.1372  -13.1065  -44.6274 H         1 UNK         0.3000 
    180 H180        4.4130  -11.0480  -45.4621 H         1 UNK         0.0600 
    181 H181        5.7083  -12.3832  -43.0356 H         1 UNK         0.0600 
    182 H182        5.8302  -10.7000  -43.5140 H         1 UNK         0.0600 
    183 H183        6.5626  -11.9417  -44.5153 H         1 UNK         0.0600 
    184 H184        4.0926  -12.9625  -46.4366 H         1 UNK         0.3000 
    185 H185        5.2882  -15.8830  -46.2110 H         1 UNK         0.0600 
    186 H186        3.8618  -17.0690  -44.5819 H         1 UNK         0.0600 
    187 H187        2.4302  -16.2791  -45.2299 H         1 UNK         0.0600 
    188 H188        3.3210  -17.4427  -46.2105 H         1 UNK         0.0600 
    189 H189        2.6952  -15.0711  -47.3627 H         1 UNK         0.3000 
    190 H190       -1.3395  -20.9404  -48.0811 H         1 UNK         0.3000 
    191 H191       -1.3616  -22.5435  -50.3896 H         1 UNK         0.0600 
    192 H192       -3.7588  -21.1092  -49.1259 H         1 UNK         0.0600 
    193 H193       -3.5533  -21.5330  -50.8141 H         1 UNK         0.0600 
    194 H194       -2.5284  -20.3068  -50.0846 H         1 UNK         0.0600 
    195 H195       -3.2534  -22.8994  -47.3526 H         1 UNK         0.3000 
    196 H196       -4.6738  -25.2416  -48.0790 H         1 UNK         0.0600 
    197 H197       -5.0916  -25.4449  -45.6326 H         1 UNK         0.0600 
    198 H198       -5.3181  -23.7885  -46.1754 H         1 UNK         0.0600 
    199 H199       -3.8565  -24.2378  -45.3011 H         1 UNK         0.0600 
    200 H200       -1.5292  -24.8731  -46.3569 H         1 UNK         0.3000 
    201 H201       -1.0051  -27.6333  -45.9749 H         1 UNK         0.0600 
    202 H202        0.1678  -25.8367  -44.7348 H         1 UNK         0.0600 
    203 H203        0.9345  -25.2731  -46.2180 H         1 UNK         0.0600 
    204 H204        1.3328  -26.8572  -45.5649 H         1 UNK         0.0600 
    205 H205       -0.2675  -25.4755  -48.7141 H         1 UNK         0.3000 
    206 H206        1.1707  -27.4243  -50.2801 H         1 UNK         0.0600 
    207 H207        1.4796  -24.9662  -50.5362 H         1 UNK         0.0600 
    208 H208        0.9611  -25.6835  -52.0528 H         1 UNK         0.0600 
    209 H209       -0.1920  -24.7929  -51.0674 H         1 UNK         0.0600 
    210 H210       -2.1011  -27.2654  -49.5005 H         1 UNK         0.3000 
    211 H211       -3.9674  -28.2117  -50.1444 H         1 UNK         0.0600 
    212 H212       -2.3531  -29.9744  -52.0585 H         1 UNK         0.0600 
    213 H213       -3.9679  -30.2909  -51.4431 H         1 UNK         0.0600 
    214 H214       -2.5995  -30.3033  -50.3434 H         1 UNK         0.0600 
    215 H215       -3.2293  -25.7713  -51.3330 H         1 UNK         0.3000 
    216 H216       -4.4230  -25.7642  -54.0451 H         1 UNK         0.0600 
    217 H217       -3.3492  -23.4537  -52.3364 H         1 UNK         0.0600 
    218 H218       -3.7297  -23.4101  -54.0517 H         1 UNK         0.0600 
    219 H219       -2.3694  -24.3603  -53.4854 H         1 UNK         0.0600 
    220 H220       -5.8734  -23.5300  -54.0756 H         1 UNK         0.3000 
    221 H221       -8.3468  -24.1113  -52.7423 H         1 UNK         0.0600 
    222 H222       -8.2154  -23.0068  -54.9785 H         1 UNK         0.0600 
    223 H223       -7.3901  -21.6198  -54.2648 H         1 UNK         0.0600 
    224 H224       -9.0587  -21.9725  -53.8376 H         1 UNK         0.0600 
    225 H225       -9.5106  -22.6295  -51.3293 H         1 UNK         0.3000 
    226 H226       -8.0758  -21.8347  -48.9968 H         1 UNK         0.0600 
    227 H227      -10.4377  -22.6191  -48.9492 H         1 UNK         0.0600 
    228 H228      -10.3259  -21.0022  -48.2732 H         1 UNK         0.0600 
    229 H229      -10.9454  -21.2251  -49.9044 H         1 UNK         0.0600 
    230 H230       -7.6946  -19.8092  -48.1358 H         1 UNK         0.3000 
    231 H231       -6.8812  -17.7638  -48.0499 H         1 UNK         0.0600 
    232 H232       -8.8204  -16.9528  -50.2842 H         1 UNK         0.0600 
    233 H233       -7.9845  -15.8761  -49.1675 H         1 UNK         0.0600 
    234 H234       -9.2014  -16.9838  -48.5674 H         1 UNK         0.0600 
    235 H235       -6.8044  -16.2092  -50.8604 H         1 UNK         0.3000 
    236 H236       -5.3569  -15.7570  -52.4553 H         1 UNK         0.0600 
    237 H237       -4.5172  -17.5604  -53.8753 H         1 UNK         0.0600 
    238 H238       -4.6369  -18.7347  -52.5712 H         1 UNK         0.0600 
    239 H239       -6.0927  -18.0509  -53.2879 H         1 UNK         0.0600 
    240 H240       -2.8577  -16.6113  -53.2329 H         1 UNK         0.3000 
    241 H241       -0.7106  -16.2213  -52.9440 H         1 UNK         0.0600 
    242 H242       -1.4141  -12.8576  -51.3009 H         1 UNK         0.3800 
    243 H243       -2.4860  -13.8871  -52.2116 H         1 UNK         0.3800 
    244 H244       -1.0848  -17.4483  -50.1785 H         1 UNK         0.0800 
    245 H245        0.4614  -17.1927  -50.9365 H         1 UNK         0.0800 
    246 H246        1.0170  -18.3601  -53.4624 H         1 UNK         0.0800 
    247 H247        0.8109  -20.0919  -53.4181 H         1 UNK         0.0800 
@<TRIPOS>BOND
     1    1    2 1    
     2    1  127 1    
     3    1  128 1    
     4    1  129 1    
     5    2    3 2    
     6    2    4 am   BACKBONE|DICT|INTERRES
     7    4    5 1    
     8    4  130 1    
     9    5    6 1    
    10    5   65 1    
    11    5  131 1    
    12    6    7 1    
    13    6  132 1    
    14    6  133 1    
    15    7    8 1    
    16    8    9 1    
    17    8  134 1    
    18    8  135 1    
    19    9   10 ar   
    20    9   14 ar   
    21   10   11 ar   
    22   10  136 1    
    23   11   12 ar   
    24   11  126 1    
    25   12   13 ar   
    26   12  137 1    
    27   13   14 ar   
    28   13   15 1    
    29   14  138 1    
    30   15   16 1    
    31   15  139 1    
    32   15  140 1    
    33   16   17 1    
    34   17   18 1    
    35   17  141 1    
    36   17  142 1    
    37   18   19 1    
    38   18   67 1    
    39   18  143 1    
    40   19   20 am   BACKBONE|DICT|INTERRES
    41   19  144 1    
    42   20   21 2    
    43   20   22 1    
    44   22   23 1    
    45   22   24 1    
    46   22  145 1    
    47   23  146 1    
    48   23  147 1    
    49   23  148 1    
    50   24   25 am   BACKBONE|DICT|INTERRES
    51   24  149 1    
    52   25   26 2    
    53   25   27 1    
    54   27   28 1    
    55   27   29 1    
    56   27  150 1    
    57   28  151 1    
    58   28  152 1    
    59   28  153 1    
    60   29   30 am   BACKBONE|DICT|INTERRES
    61   29  154 1    
    62   30   31 2    
    63   30   32 1    
    64   32   33 1    
    65   32   34 1    
    66   32  155 1    
    67   33  156 1    
    68   33  157 1    
    69   33  158 1    
    70   34   35 am   BACKBONE|DICT|INTERRES
    71   34  159 1    
    72   35   36 2    
    73   35   37 1    
    74   37   38 1    
    75   37   39 1    
    76   37  160 1    
    77   38  161 1    
    78   38  162 1    
    79   38  163 1    
    80   39   40 am   BACKBONE|DICT|INTERRES
    81   39  164 1    
    82   40   41 2    
    83   40   42 1    
    84   42   43 1    
    85   42   44 1    
    86   42  165 1    
    87   43  166 1    
    88   43  167 1    
    89   43  168 1    
    90   44   45 am   BACKBONE|DICT|INTERRES
    91   44  169 1    
    92   45   46 2    
    93   45   47 1    
    94   47   48 1    
    95   47   49 1    
    96   47  170 1    
    97   48  171 1    
    98   48  172 1    
    99   48  173 1    
   100   49   50 am   BACKBONE|DICT|INTERRES
   101   49  174 1    
   102   50   51 2    
   103   50   52 1    
   104   52   53 1    
   105   52   54 1    
   106   52  175 1    
   107   53  176 1    
   108   53  177 1    
   109   53  178 1    
   110   54   55 am   BACKBONE|DICT|INTERRES
   111   54  179 1    
   112   55   56 2    
   113   55   57 1    
   114   57   58 1    
   115   57   59 1    
   116   57  180 1    
   117   58  181 1    
   118   58  182 1    
   119   58  183 1    
   120   59   60 am   BACKBONE|DICT|INTERRES
   121   59  184 1    
   122   60   61 2    
   123   60   62 1    
   124   62   63 1    
   125   62   64 1    
   126   62  185 1    
   127   63  186 1    
   128   63  187 1    
   129   63  188 1    
   130   64   65 am   BACKBONE|DICT|INTERRES
   131   64  189 1    
   132   65   66 2    
   133   67   68 2    
   134   67   69 am   BACKBONE|DICT|INTERRES
   135   69   70 1    
   136   69  190 1    
   137   70   71 1    
   138   70   72 1    
   139   70  191 1    
   140   71  192 1    
   141   71  193 1    
   142   71  194 1    
   143   72   73 2    
   144   72   74 am   BACKBONE|DICT|INTERRES
   145   74   75 1    
   146   74  195 1    
   147   75   76 1    
   148   75   77 1    
   149   75  196 1    
   150   76  197 1    
   151   76  198 1    
   152   76  199 1    
   153   77   78 2    
   154   77   79 am   BACKBONE|DICT|INTERRES
   155   79   80 1    
   156   79  200 1    
   157   80   81 1    
   158   80   82 1    
   159   80  201 1    
   160   81  202 1    
   161   81  203 1    
   162   81  204 1    
   163   82   83 2    
   164   82   84 am   BACKBONE|DICT|INTERRES
   165   84   85 1    
   166   84  205 1    
   167   85   86 1    
   168   85   87 1    
   169   85  206 1    
   170   86  207 1    
   171   86  208 1    
   172   86  209 1    
   173   87   88 2    
   174   87   89 am   BACKBONE|DICT|INTERRES
   175   89   90 1    
   176   89  210 1    
   177   90   91 1    
   178   90   92 1    
   179   90  211 1    
   180   91  212 1    
   181   91  213 1    
   182   91  214 1    
   183   92   93 2    
   184   92   94 am   BACKBONE|DICT|INTERRES
   185   94   95 1    
   186   94  215 1    
   187   95   96 1    
   188   95   97 1    
   189   95  216 1    
   190   96  217 1    
   191   96  218 1    
   192   96  219 1    
   193   97   98 2    
   194   97   99 am   BACKBONE|DICT|INTERRES
   195   99  100 1    
   196   99  220 1    
   197  100  101 1    
   198  100  102 1    
   199  100  221 1    
   200  101  222 1    
   201  101  223 1    
   202  101  224 1    
   203  102  103 2    
   204  102  104 am   BACKBONE|DICT|INTERRES
   205  104  105 1    
   206  104  225 1    
   207  105  106 1    
   208  105  107 1    
   209  105  226 1    
   210  106  227 1    
   211  106  228 1    
   212  106  229 1    
   213  107  108 2    
   214  107  109 am   BACKBONE|DICT|INTERRES
   215  109  110 1    
   216  109  230 1    
   217  110  111 1    
   218  110  112 1    
   219  110  231 1    
   220  111  232 1    
   221  111  233 1    
   222  111  234 1    
   223  112  113 2    
   224  112  114 am   BACKBONE|DICT|INTERRES
   225  114  115 1    
   226  114  235 1    
   227  115  116 1    
   228  115  117 1    
   229  115  236 1    
   230  116  237 1    
   231  116  238 1    
   232  116  239 1    
   233  117  118 2    
   234  117  119 am   BACKBONE|DICT|INTERRES
   235  119  120 1    
   236  119  240 1    
   237  120  121 1    
   238  120  124 1    
   239  120  241 1    
   240  121  122 am   BACKBONE|DICT|INTERRES
   241  121  123 2    
   242  122  242 1    
   243  122  243 1    
   244  124  125 1    
   245  124  244 1    
   246  124  245 1    
   247  125  126 1    
   248  126  246 1    
   249  126  247 1    
@<TRIPOS>SUBSTRUCTURE
     1 UNK         1 GROUP             0       ****    0 ROOT    
