@<TRIPOS>MOLECULE
3R540
247   249    1
SMALL
USER_CHARGES


@<TRIPOS>ATOM
      1 CA          5.6301  -17.1044  -46.3466 C.3       0 UNK        -0.1800 
      2 C           4.1672  -16.7455  -46.5548 C.2       0 UNK         0.5000 
      3 O           3.3042  -17.2088  -45.8100 O.2       0 UNK        -0.5000 
      4 N           3.8782  -15.9120  -47.5613 N.am      1 UNK        -0.5000 
      5 CA          2.5274  -15.4936  -47.9636 C.3       1 UNK         0.1400 
      6 C6          2.5770  -14.6984  -49.2934 C.3       23 UNK        -0.0398 
      7 S7          0.9956  -14.6966  -50.1999 S.3       23 UNK        -0.2404 
      8 C8          1.1300  -16.2364  -51.1625 C.3       23 UNK        -0.0205 
      9 C9         -0.1684  -16.5223  -51.9001 C.ar      23 UNK        -0.0193 
     10 C10        -0.2625  -16.3360  -53.2815 C.ar      23 UNK        -0.1150 
     11 C11        -1.4753  -16.5483  -53.9444 C.ar      23 UNK        -0.0193 
     12 C12        -2.5921  -16.9757  -53.2168 C.ar      23 UNK        -0.1150 
     13 C13        -2.5119  -17.1626  -51.8313 C.ar      23 UNK        -0.0193 
     14 C14        -1.2935  -16.9368  -51.1847 C.ar      23 UNK        -0.1150 
     15 C15        -3.7587  -17.5176  -51.0276 C.3       23 UNK        -0.0205 
     16 S16        -3.7684  -19.2378  -50.4234 S.3       23 UNK        -0.2404 
     17 C17        -2.9888  -19.0818  -48.7811 C.3       23 UNK        -0.0398 
     18 CA         -2.1107  -20.3147  -48.4338 C.3       11 UNK         0.1400 
     19 N          -0.7934  -19.9376  -47.9082 N.am      11 UNK        -0.5000 
     20 C           0.2261  -20.7941  -47.7451 C.2       10 UNK         0.5000 
     21 O           0.1660  -21.9851  -48.0399 O.2       10 UNK        -0.5000 
     22 CA          1.5133  -20.2487  -47.0993 C.3       10 UNK         0.1400 
     23 CB          2.4550  -19.6956  -48.1792 C.3       10 UNK        -0.1800 
     24 N           1.2884  -19.2244  -46.0767 N.am      10 UNK        -0.5000 
     25 C           0.4947  -19.3483  -45.0057 C.2       9 UNK         0.5000 
     26 O          -0.1852  -20.3485  -44.7618 O.2       9 UNK        -0.5000 
     27 CA          0.3812  -18.1035  -44.1091 C.3       9 UNK         0.1400 
     28 CB         -0.7911  -17.2377  -44.5962 C.3       9 UNK        -0.1800 
     29 N           0.1878  -18.4090  -42.6920 N.am      9 UNK        -0.5000 
     30 C           0.9983  -19.1590  -41.9293 C.2       8 UNK         0.5000 
     31 O           2.0059  -19.7293  -42.3499 O.2       8 UNK        -0.5000 
     32 CA          0.6337  -19.2590  -40.4371 C.3       8 UNK         0.1400 
     33 CB          1.8595  -19.5450  -39.5500 C.3       8 UNK        -0.1800 
     34 N          -0.0022  -18.0213  -39.9867 N.am      8 UNK        -0.5000 
     35 C          -1.1587  -17.9419  -39.3164 C.2       7 UNK         0.5000 
     36 O          -1.8238  -18.9234  -38.9833 O.2       7 UNK        -0.5000 
     37 CA         -1.6708  -16.5334  -38.9549 C.3       7 UNK         0.1400 
     38 CB         -1.3811  -16.2248  -37.4787 C.3       7 UNK        -0.1800 
     39 N          -1.1067  -15.4774  -39.8021 N.am      7 UNK        -0.5000 
     40 C          -1.4724  -15.2704  -41.0764 C.2       6 UNK         0.5000 
     41 O          -2.3315  -15.9497  -41.6398 O.2       6 UNK        -0.5000 
     42 CA         -0.7431  -14.1785  -41.8877 C.3       6 UNK         0.1400 
     43 CB         -1.7079  -13.3135  -42.7228 C.3       6 UNK        -0.1800 
     44 N           0.1898  -13.3517  -41.1217 N.am      6 UNK        -0.5000 
     45 C          -0.0647  -12.4347  -40.1804 C.2       5 UNK         0.5000 
     46 O          -1.1944  -12.0981  -39.8234 O.2       5 UNK        -0.5000 
     47 CA          1.1927  -11.8364  -39.5103 C.3       5 UNK         0.1400 
     48 CB          0.8786  -11.0431  -38.2245 C.3       5 UNK        -0.1800 
     49 N           2.2226  -12.8588  -39.2642 N.am      5 UNK        -0.5000 
     50 C           2.0829  -13.9632  -38.5131 C.2       4 UNK         0.5000 
     51 O           1.0690  -14.2166  -37.8640 O.2       4 UNK        -0.5000 
     52 CA          3.2504  -14.9726  -38.5456 C.3       4 UNK         0.1400 
     53 CB          2.8918  -16.3225  -37.8896 C.3       4 UNK        -0.1800 
     54 N           3.7806  -15.1793  -39.8996 N.am      4 UNK        -0.5000 
     55 C           3.1117  -15.6195  -40.9757 C.2       3 UNK         0.5000 
     56 O           1.9292  -15.9725  -40.9674 O.2       3 UNK        -0.5000 
     57 CA          3.9103  -15.6470  -42.2941 C.3       3 UNK         0.1400 
     58 CB          4.3489  -17.0782  -42.6301 C.3       3 UNK        -0.1800 
     59 N           3.1729  -15.0809  -43.4285 N.am      3 UNK        -0.5000 
     60 C           2.6840  -13.8318  -43.4773 C.2       2 UNK         0.5000 
     61 O           2.8059  -13.0246  -42.5535 O.2       2 UNK        -0.5000 
     62 CA          1.9316  -13.4160  -44.7562 C.3       2 UNK         0.1400 
     63 CB          1.9508  -11.8948  -44.9905 C.3       2 UNK        -0.1800 
     64 N           2.4754  -14.0953  -45.9319 N.am      2 UNK        -0.5000 
     65 C           1.7498  -14.7445  -46.8519 C.2       1 UNK         0.5000 
     66 O           0.5209  -14.8087  -46.8249 O.2       1 UNK        -0.5000 
     67 C          -2.8617  -21.2789  -47.4918 C.2       11 UNK         0.5000 
     68 O          -3.4906  -22.2270  -47.9636 O.2       11 UNK        -0.5000 
     69 N          -2.7600  -21.0320  -46.1777 N.am      12 UNK        -0.5000 
     70 CA         -3.3479  -21.8696  -45.1341 C.3       12 UNK         0.1400 
     71 CB         -3.4060  -21.0909  -43.8103 C.3       12 UNK        -0.1800 
     72 C          -2.5735  -23.1865  -44.9714 C.2       12 UNK         0.5000 
     73 O          -3.1960  -24.2406  -44.8455 O.2       12 UNK        -0.5000 
     74 N          -1.2359  -23.1118  -45.0381 N.am      13 UNK        -0.5000 
     75 CA         -0.3329  -24.2661  -45.0165 C.3       13 UNK         0.1400 
     76 CB          1.1205  -23.7755  -44.9446 C.3       13 UNK        -0.1800 
     77 C          -0.5361  -25.2065  -46.2220 C.2       13 UNK         0.5000 
     78 O          -0.4948  -26.4261  -46.0588 O.2       13 UNK        -0.5000 
     79 N          -0.7984  -24.6208  -47.3980 N.am      14 UNK        -0.5000 
     80 CA         -1.1490  -25.3187  -48.6356 C.3       14 UNK         0.1400 
     81 CB         -0.8669  -24.3842  -49.8249 C.3       14 UNK        -0.1800 
     82 C          -2.6123  -25.8049  -48.6790 C.2       14 UNK         0.5000 
     83 O          -2.9841  -26.4679  -49.6459 O.2       14 UNK        -0.5000 
     84 N          -3.4287  -25.4472  -47.6755 N.am      15 UNK        -0.5000 
     85 CA         -4.8607  -25.7458  -47.5522 C.3       15 UNK         0.1400 
     86 CB         -5.0786  -27.2493  -47.2843 C.3       15 UNK        -0.1800 
     87 C          -5.6821  -25.2153  -48.7478 C.2       15 UNK         0.5000 
     88 O          -6.5372  -25.9236  -49.2817 O.2       15 UNK        -0.5000 
     89 N          -5.3706  -23.9771  -49.1573 N.am      16 UNK        -0.5000 
     90 CA         -5.9331  -23.2260  -50.2834 C.3       16 UNK         0.1400 
     91 CB         -7.4552  -23.0276  -50.1329 C.3       16 UNK        -0.1800 
     92 C          -5.5449  -23.7613  -51.6781 C.2       16 UNK         0.5000 
     93 O          -6.0622  -23.2546  -52.6749 O.2       16 UNK        -0.5000 
     94 N          -4.6012  -24.7135  -51.7641 N.am      17 UNK        -0.5000 
     95 CA         -4.0589  -25.1947  -53.0409 C.3       17 UNK         0.1400 
     96 CB         -3.2056  -26.4507  -52.8209 C.3       17 UNK        -0.1800 
     97 C          -3.2547  -24.1131  -53.7883 C.2       17 UNK         0.5000 
     98 O          -3.2334  -24.1166  -55.0183 O.2       17 UNK        -0.5000 
     99 N          -2.6539  -23.1763  -53.0390 N.am      18 UNK        -0.5000 
    100 CA        -2.0043  -21.9834  -53.5808 C.3       18 UNK         0.1400 
    101 CB        -1.2049  -21.2766  -52.4774 C.3       18 UNK        -0.1800 
    102 C         -3.0140  -21.0273  -54.2421 C.2       18 UNK         0.5000 
    103 O         -2.7480  -20.5449  -55.3394 O.2       18 UNK        -0.5000 
    104 N         -4.1823  -20.8264  -53.6124 N.am      19 UNK        -0.5000 
    105 CA        -5.2878  -20.0427  -54.1718 C.3       19 UNK         0.1400 
    106 CB        -6.3885  -19.8327  -53.1201 C.3       19 UNK        -0.1800 
    107 C         -5.8727  -20.6845  -55.4412 C.2       19 UNK         0.5000 
    108 O         -6.1585  -19.9714  -56.4031 O.2       19 UNK        -0.5000 
    109 N         -5.9962  -22.0195  -55.4381 N.am      20 UNK        -0.5000 
    110 CA        -6.4198  -22.8126  -56.5931 C.3       20 UNK         0.1400 
    111 CB        -6.6431  -24.2701  -56.1627 C.3       20 UNK        -0.1800 
    112 C         -5.4311  -22.7307  -57.7740 C.2       20 UNK         0.5000 
    113 O         -5.8694  -22.6916  -58.9243 O.2       20 UNK        -0.5000 
    114 N         -4.1254  -22.6838  -57.4726 N.am      21 UNK        -0.5000 
    115 CA        -3.0552  -22.4831  -58.4495 C.3       21 UNK         0.1400 
    116 CB        -1.7030  -22.8592  -57.8239 C.3       21 UNK        -0.1800 
    117 C         -3.0289  -21.0468  -59.0061 C.2       21 UNK         0.5000 
    118 O         -2.8849  -20.8745  -60.2176 O.2       21 UNK        -0.5000 
    119 N         -3.1758  -20.0490  -58.1234 N.am      22 UNK        -0.5000 
    120 CA        -3.2759  -18.6242  -58.4798 C.3       22 UNK         0.1400 
    121 C         -4.5527  -18.2752  -59.2964 C.2       22 UNK         0.5000 
    122 N         -5.7148  -18.8169  -58.9560 N.am      22 UNK        -0.7600 
    123 O         -4.4865  -17.5037  -60.2496 O.2       22 UNK        -0.5000 
    124 C124       -3.1673  -17.7017  -57.2392 C.3       23 UNK        -0.0398 
    125 S125       -1.5147  -17.7334  -56.4647 S.3       23 UNK        -0.2404 
    126 C126       -1.5922  -16.2374  -55.4301 C.3       23 UNK        -0.0205 
    127 H127        6.0599  -16.4893  -45.5567 H         1 UNK         0.0600 
    128 H128        6.2120  -16.9516  -47.2557 H         1 UNK         0.0600 
    129 H129        5.7234  -18.1512  -46.0576 H         1 UNK         0.0600 
    130 H130        4.6347  -15.5529  -48.1268 H         1 UNK         0.3000 
    131 H131        1.9752  -16.4171  -48.1476 H         1 UNK         0.0600 
    132 H132        2.8831  -13.6657  -49.1171 H         1 UNK         0.0800 
    133 H133        3.3332  -15.1185  -49.9584 H         1 UNK         0.0800 
    134 H134        1.3576  -17.0706  -50.4977 H         1 UNK         0.0800 
    135 H135        1.9633  -16.1572  -51.8625 H         1 UNK         0.0800 
    136 H136        0.5999  -15.9938  -53.8362 H         1 UNK         0.1150 
    137 H137       -3.5331  -17.1239  -53.7270 H         1 UNK         0.1150 
    138 H138       -1.2153  -17.0394  -50.1145 H         1 UNK         0.1150 
    139 H139       -3.8649  -16.8278  -50.1892 H         1 UNK         0.0800 
    140 H140       -4.6471  -17.3697  -51.6427 H         1 UNK         0.0800 
    141 H141       -3.7770  -18.9105  -48.0449 H         1 UNK         0.0800 
    142 H142       -2.3954  -18.1714  -48.7551 H         1 UNK         0.0800 
    143 H143       -1.9113  -20.8769  -49.3473 H         1 UNK         0.0600 
    144 H144       -0.6631  -18.9774  -47.6284 H         1 UNK         0.3000 
    145 H145        2.0144  -21.0854  -46.6104 H         1 UNK         0.0600 
    146 H146        3.4232  -19.4267  -47.7576 H         1 UNK         0.0600 
    147 H147        2.6390  -20.4391  -48.9561 H         1 UNK         0.0600 
    148 H148        2.0391  -18.8120  -48.6634 H         1 UNK         0.0600 
    149 H149        1.8746  -18.3960  -46.1387 H         1 UNK         0.3000 
    150 H150        1.3013  -17.5242  -44.1902 H         1 UNK         0.0600 
    151 H151       -1.7489  -17.7392  -44.4504 H         1 UNK         0.0600 
    152 H152       -0.6991  -17.0095  -45.6588 H         1 UNK         0.0600 
    153 H153       -0.8302  -16.2857  -44.0720 H         1 UNK         0.0600 
    154 H154       -0.6262  -18.0029  -42.2541 H         1 UNK         0.3000 
    155 H155       -0.0581  -20.0986  -40.3474 H         1 UNK         0.0600 
    156 H156        2.6338  -18.7888  -39.6843 H         1 UNK         0.0600 
    157 H157        2.3006  -20.5130  -39.7905 H         1 UNK         0.0600 
    158 H158        1.5883  -19.5658  -38.4944 H         1 UNK         0.0600 
    159 H159        0.4860  -17.1661  -40.2408 H         1 UNK         0.3000 
    160 H160       -2.7548  -16.5325  -39.0881 H         1 UNK         0.0600 
    161 H161       -0.3214  -16.3306  -37.2457 H         1 UNK         0.0600 
    162 H162       -1.9246  -16.9091  -36.8263 H         1 UNK         0.0600 
    163 H163       -1.6862  -15.2118  -37.2155 H         1 UNK         0.0600 
    164 H164       -0.3800  -14.9033  -39.3917 H         1 UNK         0.3000 
    165 H165       -0.1113  -14.7248  -42.5864 H         1 UNK         0.0600 
    166 H166       -1.1664  -12.5714  -43.3095 H         1 UNK         0.0600 
    167 H167       -2.4273  -12.7874  -42.0951 H         1 UNK         0.0600 
    168 H168       -2.2758  -13.9265  -43.4237 H         1 UNK         0.0600 
    169 H169        1.1683  -13.5358  -41.3110 H         1 UNK         0.3000 
    170 H170        1.6185  -11.1385  -40.2327 H         1 UNK         0.0600 
    171 H171        0.2148  -10.2044  -38.4373 H         1 UNK         0.0600 
    172 H172        0.3892  -11.6623  -37.4722 H         1 UNK         0.0600 
    173 H173        1.7868  -10.6334  -37.7828 H         1 UNK         0.0600 
    174 H174        3.0744  -12.7543  -39.7987 H         1 UNK         0.3000 
    175 H175        4.0562  -14.5262  -37.9613 H         1 UNK         0.0600 
    176 H176        2.0305  -16.7878  -38.3675 H         1 UNK         0.0600 
    177 H177        3.7251  -17.0230  -37.9420 H         1 UNK         0.0600 
    178 H178        2.6444  -16.1901  -36.8358 H         1 UNK         0.0600 
    179 H179        4.7476  -14.9121  -40.0217 H         1 UNK         0.3000 
    180 H180        4.8102  -15.0429  -42.1617 H         1 UNK         0.0600 
    181 H181        3.5073  -17.6868  -42.9565 H         1 UNK         0.0600 
    182 H182        4.7977  -17.5712  -41.7667 H         1 UNK         0.0600 
    183 H183        5.0912  -17.0856  -43.4265 H         1 UNK         0.0600 
    184 H184        3.0169  -15.7003  -44.2138 H         1 UNK         0.3000 
    185 H185        0.8942  -13.7156  -44.5976 H         1 UNK         0.0600 
    186 H186        1.3925  -11.6287  -45.8882 H         1 UNK         0.0600 
    187 H187        1.4922  -11.3614  -44.1568 H         1 UNK         0.0600 
    188 H188        2.9684  -11.5197  -45.1045 H         1 UNK         0.0600 
    189 H189        3.4826  -14.1102  -46.0137 H         1 UNK         0.3000 
    190 H190       -2.1450  -20.2941  -45.8631 H         1 UNK         0.3000 
    191 H191       -4.3715  -22.1155  -45.4257 H         1 UNK         0.0600 
    192 H192       -3.8905  -21.6836  -43.0334 H         1 UNK         0.0600 
    193 H193       -3.9781  -20.1696  -43.9198 H         1 UNK         0.0600 
    194 H194       -2.4132  -20.8266  -43.4458 H         1 UNK         0.0600 
    195 H195       -0.8080  -22.1925  -45.1023 H         1 UNK         0.3000 
    196 H196       -0.5460  -24.8353  -44.1094 H         1 UNK         0.0600 
    197 H197        1.4069  -23.2378  -45.8478 H         1 UNK         0.0600 
    198 H198        1.2735  -23.1099  -44.0946 H         1 UNK         0.0600 
    199 H199        1.8085  -24.6141  -44.8318 H         1 UNK         0.0600 
    200 H200       -0.7248  -23.6097  -47.4646 H         1 UNK         0.3000 
    201 H201       -0.5103  -26.1987  -48.7336 H         1 UNK         0.0600 
    202 H202       -1.4911  -23.4905  -49.7896 H         1 UNK         0.0600 
    203 H203       -1.0558  -24.8821  -50.7755 H         1 UNK         0.0600 
    204 H204        0.1751  -24.0642  -49.8354 H         1 UNK         0.0600 
    205 H205       -3.0390  -24.8957  -46.9215 H         1 UNK         0.3000 
    206 H206       -5.2129  -25.2005  -46.6755 H         1 UNK         0.0600 
    207 H207       -4.5019  -27.5817  -46.4211 H         1 UNK         0.0600 
    208 H208       -6.1276  -27.4608  -47.0742 H         1 UNK         0.0600 
    209 H209       -4.7862  -27.8606  -48.1386 H         1 UNK         0.0600 
    210 H210       -4.6401  -23.4803  -48.6484 H         1 UNK         0.3000 
    211 H211       -5.4768  -22.2370  -50.2193 H         1 UNK         0.0600 
    212 H212       -7.8314  -22.3185  -50.8711 H         1 UNK         0.0600 
    213 H213       -7.7062  -22.6316  -49.1490 H         1 UNK         0.0600 
    214 H214       -8.0037  -23.9593  -50.2721 H         1 UNK         0.0600 
    215 H215       -4.2280  -25.1295  -50.9194 H         1 UNK         0.3000 
    216 H216       -4.9028  -25.4749  -53.6743 H         1 UNK         0.0600 
    217 H217       -2.3099  -26.2361  -52.2392 H         1 UNK         0.0600 
    218 H218       -2.8810  -26.8702  -53.7739 H         1 UNK         0.0600 
    219 H219       -3.7685  -27.2253  -52.2997 H         1 UNK         0.0600 
    220 H220       -2.7173  -23.2509  -52.0357 H         1 UNK         0.3000 
    221 H221       -1.2998  -22.3032  -54.3516 H         1 UNK         0.0600 
    222 H222       -0.4155  -21.9190  -52.0868 H         1 UNK         0.0600 
    223 H223       -1.8431  -20.9890  -51.6457 H         1 UNK         0.0600 
    224 H224       -0.7320  -20.3690  -52.8559 H         1 UNK         0.0600 
    225 H225       -4.3495  -21.2804  -52.7282 H         1 UNK         0.3000 
    226 H226       -4.8944  -19.0624  -54.4469 H         1 UNK         0.0600 
    227 H227       -6.8210  -20.7747  -52.7854 H         1 UNK         0.0600 
    228 H228       -6.0125  -19.3082  -52.2445 H         1 UNK         0.0600 
    229 H229       -7.2014  -19.2304  -53.5275 H         1 UNK         0.0600 
    230 H230       -5.7908  -22.5221  -54.5812 H         1 UNK         0.3000 
    231 H231       -7.3765  -22.4115  -56.9341 H         1 UNK         0.0600 
    232 H232       -5.7135  -24.7463  -55.8529 H         1 UNK         0.0600 
    233 H233       -7.0519  -24.8586  -56.9849 H         1 UNK         0.0600 
    234 H234       -7.3471  -24.3351  -55.3328 H         1 UNK         0.0600 
    235 H235       -3.8442  -22.7895  -56.5045 H         1 UNK         0.3000 
    236 H236       -3.2330  -23.1605  -59.2874 H         1 UNK         0.0600 
    237 H237       -1.7013  -23.8948  -57.4835 H         1 UNK         0.0600 
    238 H238       -0.8957  -22.7530  -58.5493 H         1 UNK         0.0600 
    239 H239       -1.4606  -22.2272  -56.9698 H         1 UNK         0.0600 
    240 H240       -3.2069  -20.2677  -57.1305 H         1 UNK         0.3000 
    241 H241       -2.4271  -18.3994  -59.1287 H         1 UNK         0.0600 
    242 H242       -6.5398  -18.5953  -59.4895 H         1 UNK         0.3800 
    243 H243       -5.8002  -19.3840  -58.1150 H         1 UNK         0.3800 
    244 H244       -3.9136  -17.9738  -56.4914 H         1 UNK         0.0800 
    245 H245       -3.3785  -16.6694  -57.5249 H         1 UNK         0.0800 
    246 H246       -2.5193  -15.6905  -55.6061 H         1 UNK         0.0800 
    247 H247       -0.7908  -15.5643  -55.7385 H         1 UNK         0.0800 
@<TRIPOS>BOND
     1    1    2 1    
     2    1  127 1    
     3    1  128 1    
     4    1  129 1    
     5    2    3 2    
     6    2    4 am   BACKBONE|DICT|INTERRES
     7    4    5 1    
     8    4  130 1    
     9    5    6 1    
    10    5   65 1    
    11    5  131 1    
    12    6    7 1    
    13    6  132 1    
    14    6  133 1    
    15    7    8 1    
    16    8    9 1    
    17    8  134 1    
    18    8  135 1    
    19    9   10 ar   
    20    9   14 ar   
    21   10   11 ar   
    22   10  136 1    
    23   11   12 ar   
    24   11  126 1    
    25   12   13 ar   
    26   12  137 1    
    27   13   14 ar   
    28   13   15 1    
    29   14  138 1    
    30   15   16 1    
    31   15  139 1    
    32   15  140 1    
    33   16   17 1    
    34   17   18 1    
    35   17  141 1    
    36   17  142 1    
    37   18   19 1    
    38   18   67 1    
    39   18  143 1    
    40   19   20 am   BACKBONE|DICT|INTERRES
    41   19  144 1    
    42   20   21 2    
    43   20   22 1    
    44   22   23 1    
    45   22   24 1    
    46   22  145 1    
    47   23  146 1    
    48   23  147 1    
    49   23  148 1    
    50   24   25 am   BACKBONE|DICT|INTERRES
    51   24  149 1    
    52   25   26 2    
    53   25   27 1    
    54   27   28 1    
    55   27   29 1    
    56   27  150 1    
    57   28  151 1    
    58   28  152 1    
    59   28  153 1    
    60   29   30 am   BACKBONE|DICT|INTERRES
    61   29  154 1    
    62   30   31 2    
    63   30   32 1    
    64   32   33 1    
    65   32   34 1    
    66   32  155 1    
    67   33  156 1    
    68   33  157 1    
    69   33  158 1    
    70   34   35 am   BACKBONE|DICT|INTERRES
    71   34  159 1    
    72   35   36 2    
    73   35   37 1    
    74   37   38 1    
    75   37   39 1    
    76   37  160 1    
    77   38  161 1    
    78   38  162 1    
    79   38  163 1    
    80   39   40 am   BACKBONE|DICT|INTERRES
    81   39  164 1    
    82   40   41 2    
    83   40   42 1    
    84   42   43 1    
    85   42   44 1    
    86   42  165 1    
    87   43  166 1    
    88   43  167 1    
    89   43  168 1    
    90   44   45 am   BACKBONE|DICT|INTERRES
    91   44  169 1    
    92   45   46 2    
    93   45   47 1    
    94   47   48 1    
    95   47   49 1    
    96   47  170 1    
    97   48  171 1    
    98   48  172 1    
    99   48  173 1    
   100   49   50 am   BACKBONE|DICT|INTERRES
   101   49  174 1    
   102   50   51 2    
   103   50   52 1    
   104   52   53 1    
   105   52   54 1    
   106   52  175 1    
   107   53  176 1    
   108   53  177 1    
   109   53  178 1    
   110   54   55 am   BACKBONE|DICT|INTERRES
   111   54  179 1    
   112   55   56 2    
   113   55   57 1    
   114   57   58 1    
   115   57   59 1    
   116   57  180 1    
   117   58  181 1    
   118   58  182 1    
   119   58  183 1    
   120   59   60 am   BACKBONE|DICT|INTERRES
   121   59  184 1    
   122   60   61 2    
   123   60   62 1    
   124   62   63 1    
   125   62   64 1    
   126   62  185 1    
   127   63  186 1    
   128   63  187 1    
   129   63  188 1    
   130   64   65 am   BACKBONE|DICT|INTERRES
   131   64  189 1    
   132   65   66 2    
   133   67   68 2    
   134   67   69 am   BACKBONE|DICT|INTERRES
   135   69   70 1    
   136   69  190 1    
   137   70   71 1    
   138   70   72 1    
   139   70  191 1    
   140   71  192 1    
   141   71  193 1    
   142   71  194 1    
   143   72   73 2    
   144   72   74 am   BACKBONE|DICT|INTERRES
   145   74   75 1    
   146   74  195 1    
   147   75   76 1    
   148   75   77 1    
   149   75  196 1    
   150   76  197 1    
   151   76  198 1    
   152   76  199 1    
   153   77   78 2    
   154   77   79 am   BACKBONE|DICT|INTERRES
   155   79   80 1    
   156   79  200 1    
   157   80   81 1    
   158   80   82 1    
   159   80  201 1    
   160   81  202 1    
   161   81  203 1    
   162   81  204 1    
   163   82   83 2    
   164   82   84 am   BACKBONE|DICT|INTERRES
   165   84   85 1    
   166   84  205 1    
   167   85   86 1    
   168   85   87 1    
   169   85  206 1    
   170   86  207 1    
   171   86  208 1    
   172   86  209 1    
   173   87   88 2    
   174   87   89 am   BACKBONE|DICT|INTERRES
   175   89   90 1    
   176   89  210 1    
   177   90   91 1    
   178   90   92 1    
   179   90  211 1    
   180   91  212 1    
   181   91  213 1    
   182   91  214 1    
   183   92   93 2    
   184   92   94 am   BACKBONE|DICT|INTERRES
   185   94   95 1    
   186   94  215 1    
   187   95   96 1    
   188   95   97 1    
   189   95  216 1    
   190   96  217 1    
   191   96  218 1    
   192   96  219 1    
   193   97   98 2    
   194   97   99 am   BACKBONE|DICT|INTERRES
   195   99  100 1    
   196   99  220 1    
   197  100  101 1    
   198  100  102 1    
   199  100  221 1    
   200  101  222 1    
   201  101  223 1    
   202  101  224 1    
   203  102  103 2    
   204  102  104 am   BACKBONE|DICT|INTERRES
   205  104  105 1    
   206  104  225 1    
   207  105  106 1    
   208  105  107 1    
   209  105  226 1    
   210  106  227 1    
   211  106  228 1    
   212  106  229 1    
   213  107  108 2    
   214  107  109 am   BACKBONE|DICT|INTERRES
   215  109  110 1    
   216  109  230 1    
   217  110  111 1    
   218  110  112 1    
   219  110  231 1    
   220  111  232 1    
   221  111  233 1    
   222  111  234 1    
   223  112  113 2    
   224  112  114 am   BACKBONE|DICT|INTERRES
   225  114  115 1    
   226  114  235 1    
   227  115  116 1    
   228  115  117 1    
   229  115  236 1    
   230  116  237 1    
   231  116  238 1    
   232  116  239 1    
   233  117  118 2    
   234  117  119 am   BACKBONE|DICT|INTERRES
   235  119  120 1    
   236  119  240 1    
   237  120  121 1    
   238  120  124 1    
   239  120  241 1    
   240  121  122 am   BACKBONE|DICT|INTERRES
   241  121  123 2    
   242  122  242 1    
   243  122  243 1    
   244  124  125 1    
   245  124  244 1    
   246  124  245 1    
   247  125  126 1    
   248  126  246 1    
   249  126  247 1    
@<TRIPOS>SUBSTRUCTURE
     1 UNK         1 GROUP             0       ****    0 ROOT    
