@<TRIPOS>MOLECULE
3R540
247   249    1
SMALL
USER_CHARGES


@<TRIPOS>ATOM
      1 CA         -0.0525  -14.5135  -45.9763 C.3       0 UNK        -0.1800 
      2 C           0.5323  -13.5128  -46.9619 C.2       0 UNK         0.5000 
      3 O           1.6591  -13.6929  -47.4196 O.2       0 UNK        -0.5000 
      4 N          -0.2474  -12.4765  -47.2957 N.am      1 UNK        -0.5000 
      5 CA          0.0511  -11.4108  -48.2659 C.3       1 UNK         0.1400 
      6 C6          0.1105  -11.9325  -49.7290 C.3       23 UNK        -0.0398 
      7 S7         -1.4244  -12.7863  -50.2261 S.3       23 UNK        -0.2404 
      8 C8         -0.8327  -14.5022  -50.3737 C.3       23 UNK        -0.0205 
      9 C9         -1.9917  -15.4718  -50.5346 C.ar      23 UNK        -0.0193 
     10 C10        -2.7074  -15.5074  -51.7341 C.ar      23 UNK        -0.1150 
     11 C11        -3.7856  -16.3811  -51.8935 C.ar      23 UNK        -0.0193 
     12 C12        -4.1431  -17.2276  -50.8401 C.ar      23 UNK        -0.1150 
     13 C13        -3.4310  -17.2076  -49.6363 C.ar      23 UNK        -0.0193 
     14 C14        -2.3544  -16.3275  -49.4888 C.ar      23 UNK        -0.1150 
     15 C15        -3.8481  -18.1206  -48.4932 C.3       23 UNK        -0.0205 
     16 S16        -3.2428  -19.8182  -48.7417 S.3       23 UNK        -0.2404 
     17 C17        -1.9486  -19.9673  -47.4618 C.3       23 UNK        -0.0398 
     18 CA         -1.5439  -21.4376  -47.1814 C.3       11 UNK         0.1400 
     19 N          -0.3403  -21.5222  -46.3493 N.am      11 UNK        -0.5000 
     20 C           0.3173  -22.6556  -46.0619 C.2       10 UNK         0.5000 
     21 O           0.0131  -23.7587  -46.5152 O.2       10 UNK        -0.5000 
     22 CA          1.4744  -22.5511  -45.0523 C.3       10 UNK         0.1400 
     23 CB          2.7476  -22.0222  -45.7284 C.3       10 UNK        -0.1800 
     24 N           1.1371  -21.7200  -43.8945 N.am      10 UNK        -0.5000 
     25 C           0.1617  -22.0075  -43.0198 C.2       9 UNK         0.5000 
     26 O          -0.5222  -23.0276  -43.0740 O.2       9 UNK        -0.5000 
     27 CA         -0.1381  -20.9674  -41.9276 C.3       9 UNK         0.1400 
     28 CB          0.8586  -21.0949  -40.7664 C.3       9 UNK        -0.1800 
     29 N          -0.1405  -19.5969  -42.4380 N.am      9 UNK        -0.5000 
     30 C          -0.9942  -19.1268  -43.3597 C.2       8 UNK         0.5000 
     31 O          -1.9069  -19.7912  -43.8515 O.2       8 UNK        -0.5000 
     32 CA         -0.7445  -17.6938  -43.8648 C.3       8 UNK         0.1400 
     33 CB         -1.2487  -16.6517  -42.8560 C.3       8 UNK        -0.1800 
     34 N           0.6684  -17.4541  -44.1551 N.am      8 UNK        -0.5000 
     35 C           1.3694  -18.1048  -45.0943 C.2       7 UNK         0.5000 
     36 O           0.8795  -18.9304  -45.8651 O.2       7 UNK        -0.5000 
     37 CA          2.8795  -17.8228  -45.1446 C.3       7 UNK         0.1400 
     38 CB          3.1760  -16.5604  -45.9654 C.3       7 UNK        -0.1800 
     39 N           3.4515  -17.6891  -43.8043 N.am      7 UNK        -0.5000 
     40 C           3.6302  -18.7138  -42.9589 C.2       6 UNK         0.5000 
     41 O           3.3519  -19.8805  -43.2341 O.2       6 UNK        -0.5000 
     42 CA          4.1798  -18.3750  -41.5608 C.3       6 UNK         0.1400 
     43 CB          5.7098  -18.2452  -41.5972 C.3       6 UNK        -0.1800 
     44 N           3.6018  -17.1510  -41.0041 N.am      6 UNK        -0.5000 
     45 C           2.3149  -17.0135  -40.6559 C.2       5 UNK         0.5000 
     46 O           1.4834  -17.9151  -40.7456 O.2       5 UNK        -0.5000 
     47 CA          1.8680  -15.6211  -40.1727 C.3       5 UNK         0.1400 
     48 CB          2.1042  -15.4730  -38.6625 C.3       5 UNK        -0.1800 
     49 N           2.5097  -14.5059  -40.8756 N.am      5 UNK        -0.5000 
     50 C           2.4883  -14.3146  -42.2006 C.2       4 UNK         0.5000 
     51 O           1.9602  -15.0939  -42.9955 O.2       4 UNK        -0.5000 
     52 CA          3.1338  -13.0184  -42.7129 C.3       4 UNK         0.1400 
     53 CB          3.7404  -13.1883  -44.1162 C.3       4 UNK        -0.1800 
     54 N           2.1254  -11.9668  -42.7631 N.am      4 UNK        -0.5000 
     55 C           1.7336  -11.2090  -41.7312 C.2       3 UNK         0.5000 
     56 O           2.2259  -11.3004  -40.6052 O.2       3 UNK        -0.5000 
     57 CA          0.5851  -10.2031  -41.9841 C.3       3 UNK         0.1400 
     58 CB          0.8707   -8.8249  -41.3518 C.3       3 UNK        -0.1800 
     59 N           0.1848  -10.0668  -43.3952 N.am      3 UNK        -0.5000 
     60 C           0.9118   -9.5713  -44.4072 C.2       2 UNK         0.5000 
     61 O           2.0510   -9.1138  -44.2876 O.2       2 UNK        -0.5000 
     62 CA          0.2629   -9.6239  -45.7968 C.3       2 UNK         0.1400 
     63 CB         -0.4649   -8.3100  -46.1209 C.3       2 UNK        -0.1800 
     64 N           1.3250   -9.8482  -46.7743 N.am      2 UNK        -0.5000 
     65 C           1.3188  -10.6016  -47.8825 C.2       1 UNK         0.5000 
     66 O           2.3197  -10.6680  -48.5964 O.2       1 UNK        -0.5000 
     67 C          -2.7052  -22.2648  -46.5859 C.2       11 UNK         0.5000 
     68 O          -3.3290  -23.0402  -47.3114 O.2       11 UNK        -0.5000 
     69 N          -2.9430  -22.1227  -45.2739 N.am      12 UNK        -0.5000 
     70 CA         -3.9612  -22.8670  -44.5315 C.3       12 UNK         0.1400 
     71 CB         -4.0901  -22.2864  -43.1152 C.3       12 UNK        -0.1800 
     72 C          -3.6914  -24.3831  -44.4801 C.2       12 UNK         0.5000 
     73 O          -4.6288  -25.1663  -44.6344 O.2       12 UNK        -0.5000 
     74 N          -2.4228  -24.7679  -44.2811 N.am      13 UNK        -0.5000 
     75 CA         -1.9653  -26.1578  -44.2539 C.3       13 UNK         0.1400 
     76 CB         -0.5241  -26.2179  -43.7249 C.3       13 UNK        -0.1800 
     77 C          -2.0692  -26.8465  -45.6257 C.2       13 UNK         0.5000 
     78 O          -2.4954  -28.0004  -45.6918 O.2       13 UNK        -0.5000 
     79 N          -1.6932  -26.1274  -46.6927 N.am      14 UNK        -0.5000 
     80 CA         -1.8300  -26.5752  -48.0795 C.3       14 UNK         0.1400 
     81 CB         -1.0248  -25.6414  -48.9950 C.3       14 UNK        -0.1800 
     82 C          -3.3006  -26.6545  -48.5314 C.2       14 UNK         0.5000 
     83 O          -3.6606  -27.5905  -49.2469 O.2       14 UNK        -0.5000 
     84 N          -4.1078  -25.6842  -48.0758 N.am      15 UNK        -0.5000 
     85 CA         -5.5334  -25.4750  -48.3411 C.3       15 UNK         0.1400 
     86 CB         -6.3658  -26.6952  -47.8953 C.3       15 UNK        -0.1800 
     87 C          -5.8256  -25.0738  -49.8009 C.2       15 UNK         0.5000 
     88 O          -4.9275  -25.0706  -50.6457 O.2       15 UNK        -0.5000 
     89 N          -7.0879  -24.7021  -50.0638 N.am      16 UNK        -0.5000 
     90 CA         -7.6365  -24.3173  -51.3723 C.3       16 UNK         0.1400 
     91 CB         -7.7529  -25.5581  -52.2828 C.3       16 UNK        -0.1800 
     92 C          -6.8637  -23.1586  -52.0396 C.2       16 UNK         0.5000 
     93 O          -6.5494  -23.2301  -53.2281 O.2       16 UNK        -0.5000 
     94 N          -6.5345  -22.1310  -51.2408 N.am      17 UNK        -0.5000 
     95 CA         -5.7208  -20.9645  -51.6090 C.3       17 UNK         0.1400 
     96 CB         -6.4708  -20.0839  -52.6298 C.3       17 UNK        -0.1800 
     97 C          -4.3047  -21.3714  -52.0740 C.2       17 UNK         0.5000 
     98 O          -3.8440  -20.9394  -53.1316 O.2       17 UNK        -0.5000 
     99 N          -3.6732  -22.2511  -51.2814 N.am      18 UNK        -0.5000 
    100 CA        -2.3812  -22.8989  -51.5233 C.3       18 UNK         0.1400 
    101 CB        -1.2302  -21.8723  -51.4607 C.3       18 UNK        -0.1800 
    102 C         -2.3878  -23.7236  -52.8255 C.2       18 UNK         0.5000 
    103 O         -1.5034  -23.5622  -53.6655 O.2       18 UNK        -0.5000 
    104 N         -3.4270  -24.5552  -52.9903 N.am      19 UNK        -0.5000 
    105 CA        -3.7493  -25.3400  -54.1892 C.3       19 UNK         0.1400 
    106 CB        -2.7418  -26.4948  -54.3628 C.3       19 UNK        -0.1800 
    107 C         -3.8936  -24.4657  -55.4571 C.2       19 UNK         0.5000 
    108 O         -3.4704  -24.8653  -56.5433 O.2       19 UNK        -0.5000 
    109 N         -4.4704  -23.2702  -55.2714 N.am      20 UNK        -0.5000 
    110 CA        -4.6778  -22.1929  -56.2412 C.3       20 UNK         0.1400 
    111 CB        -5.6875  -22.6271  -57.3231 C.3       20 UNK        -0.1800 
    112 C         -3.3806  -21.6045  -56.8418 C.2       20 UNK         0.5000 
    113 O         -3.4432  -20.9627  -57.8930 O.2       20 UNK        -0.5000 
    114 N         -2.2298  -21.7918  -56.1741 N.am      21 UNK        -0.5000 
    115 CA        -0.9128  -21.3297  -56.6334 C.3       21 UNK         0.1400 
    116 CB         0.1834  -21.8874  -55.7144 C.3       21 UNK        -0.1800 
    117 C         -0.7821  -19.7985  -56.7505 C.2       21 UNK         0.5000 
    118 O          0.0460  -19.3214  -57.5277 O.2       21 UNK        -0.5000 
    119 N         -1.6094  -19.0602  -56.0015 N.am      22 UNK        -0.5000 
    120 CA        -1.7654  -17.6030  -56.1107 C.3       22 UNK         0.1400 
    121 C         -2.5368  -17.1178  -57.3772 C.2       22 UNK         0.5000 
    122 N         -3.1417  -17.9902  -58.1769 N.am      22 UNK        -0.7600 
    123 O         -2.5727  -15.9208  -57.6495 O.2       22 UNK        -0.5000 
    124 C124       -2.3406  -16.9980  -54.8056 C.3       23 UNK        -0.0398 
    125 S125       -3.9802  -17.6614  -54.3500 S.3       23 UNK        -0.2404 
    126 C126       -4.5771  -16.3904  -53.1932 C.3       23 UNK        -0.0205 
    127 H127        0.4800  -14.4584  -45.0288 H         1 UNK         0.0600 
    128 H128        0.0454  -15.5260  -46.3676 H         1 UNK         0.0600 
    129 H129       -1.1092  -14.3277  -45.7838 H         1 UNK         0.0600 
    130 H130       -1.1696  -12.4232  -46.8876 H         1 UNK         0.3000 
    131 H131       -0.7835  -10.7099  -48.2171 H         1 UNK         0.0600 
    132 H132        0.2606  -11.1007  -50.4192 H         1 UNK         0.0800 
    133 H133        0.9635  -12.5983  -49.8709 H         1 UNK         0.0800 
    134 H134       -0.1658  -14.5830  -51.2333 H         1 UNK         0.0800 
    135 H135       -0.2401  -14.7652  -49.4971 H         1 UNK         0.0800 
    136 H136       -2.4301  -14.8419  -52.5396 H         1 UNK         0.1150 
    137 H137       -4.9792  -17.9017  -50.9551 H         1 UNK         0.1150 
    138 H138       -1.8050  -16.3035  -48.5581 H         1 UNK         0.1150 
    139 H139       -3.5019  -17.7226  -47.5384 H         1 UNK         0.0800 
    140 H140       -4.9370  -18.1447  -48.4305 H         1 UNK         0.0800 
    141 H141       -1.0813  -19.4019  -47.8057 H         1 UNK         0.0800 
    142 H142       -2.2835  -19.4830  -46.5435 H         1 UNK         0.0800 
    143 H143       -1.2860  -21.8972  -48.1377 H         1 UNK         0.0600 
    144 H144        0.0075  -20.6476  -45.9654 H         1 UNK         0.3000 
    145 H145        1.6834  -23.5580  -44.6852 H         1 UNK         0.0600 
    146 H146        3.5896  -22.0204  -45.0361 H         1 UNK         0.0600 
    147 H147        3.0264  -22.6477  -46.5772 H         1 UNK         0.0600 
    148 H148        2.6168  -21.0060  -46.0992 H         1 UNK         0.0600 
    149 H149        1.7001  -20.8880  -43.7499 H         1 UNK         0.3000 
    150 H150       -1.1366  -21.1760  -41.5385 H         1 UNK         0.0600 
    151 H151        0.5914  -20.4309  -39.9442 H         1 UNK         0.0600 
    152 H152        0.8711  -22.1115  -40.3716 H         1 UNK         0.0600 
    153 H153        1.8743  -20.8500  -41.0776 H         1 UNK         0.0600 
    154 H154        0.5543  -18.9685  -42.0437 H         1 UNK         0.3000 
    155 H155       -1.3023  -17.5645  -44.7946 H         1 UNK         0.0600 
    156 H156       -0.7316  -16.7319  -41.9002 H         1 UNK         0.0600 
    157 H157       -2.3146  -16.7799  -42.6643 H         1 UNK         0.0600 
    158 H158       -1.1035  -15.6380  -43.2295 H         1 UNK         0.0600 
    159 H159        1.1435  -16.7528  -43.5940 H         1 UNK         0.3000 
    160 H160        3.3616  -18.6672  -45.6414 H         1 UNK         0.0600 
    161 H161        2.7181  -15.6765  -45.5239 H         1 UNK         0.0600 
    162 H162        2.7871  -16.6540  -46.9801 H         1 UNK         0.0600 
    163 H163        4.2482  -16.3800  -46.0422 H         1 UNK         0.0600 
    164 H164        3.6302  -16.7504  -43.4785 H         1 UNK         0.3000 
    165 H165        3.9246  -19.2024  -40.8952 H         1 UNK         0.0600 
    166 H166        6.1158  -18.0870  -40.5979 H         1 UNK         0.0600 
    167 H167        6.1685  -19.1523  -41.9931 H         1 UNK         0.0600 
    168 H168        6.0304  -17.4137  -42.2259 H         1 UNK         0.0600 
    169 H169        4.2161  -16.3567  -40.9023 H         1 UNK         0.3000 
    170 H170        0.7947  -15.5430  -40.3561 H         1 UNK         0.0600 
    171 H171        1.6183  -16.2784  -38.1100 H         1 UNK         0.0600 
    172 H172        3.1664  -15.4996  -38.4164 H         1 UNK         0.0600 
    173 H173        1.6962  -14.5332  -38.2896 H         1 UNK         0.0600 
    174 H174        2.9218  -13.7876  -40.2959 H         1 UNK         0.3000 
    175 H175        3.9372  -12.7310  -42.0312 H         1 UNK         0.0600 
    176 H176        2.9773  -13.3951  -44.8667 H         1 UNK         0.0600 
    177 H177        4.2697  -12.2867  -44.4249 H         1 UNK         0.0600 
    178 H178        4.4570  -14.0103  -44.1379 H         1 UNK         0.0600 
    179 H179        1.6505  -11.8461  -43.6439 H         1 UNK         0.3000 
    180 H180       -0.2833  -10.6191  -41.4712 H         1 UNK         0.0600 
    181 H181        1.7789   -8.3733  -41.7513 H         1 UNK         0.0600 
    182 H182        0.9994   -8.9091  -40.2721 H         1 UNK         0.0600 
    183 H183        0.0466   -8.1328  -41.5248 H         1 UNK         0.0600 
    184 H184       -0.7410  -10.4157  -43.6032 H         1 UNK         0.3000 
    185 H185       -0.4630  -10.4346  -45.7969 H         1 UNK         0.0600 
    186 H186       -1.2527   -8.1095  -45.3936 H         1 UNK         0.0600 
    187 H187        0.2176   -7.4592  -46.1089 H         1 UNK         0.0600 
    188 H188       -0.9331   -8.3481  -47.1046 H         1 UNK         0.0600 
    189 H189        2.1919   -9.3987  -46.5096 H         1 UNK         0.3000 
    190 H190       -2.4068  -21.4385  -44.7473 H         1 UNK         0.3000 
    191 H191       -4.9145  -22.7202  -45.0434 H         1 UNK         0.0600 
    192 H192       -4.3576  -21.2300  -43.1454 H         1 UNK         0.0600 
    193 H193       -4.8664  -22.8034  -42.5500 H         1 UNK         0.0600 
    194 H194       -3.1592  -22.3789  -42.5556 H         1 UNK         0.0600 
    195 H195       -1.7206  -24.0573  -44.0897 H         1 UNK         0.3000 
    196 H196       -2.6031  -26.7066  -43.5579 H         1 UNK         0.0600 
    197 H197       -0.1617  -27.2460  -43.6909 H         1 UNK         0.0600 
    198 H198       -0.4592  -25.8169  -42.7134 H         1 UNK         0.0600 
    199 H199        0.1597  -25.6480  -44.3548 H         1 UNK         0.0600 
    200 H200       -1.2941  -25.2036  -46.5493 H         1 UNK         0.3000 
    201 H201       -1.4043  -27.5777  -48.1595 H         1 UNK         0.0600 
    202 H202        0.0416  -25.7049  -48.7782 H         1 UNK         0.0600 
    203 H203       -1.3262  -24.6022  -48.8639 H         1 UNK         0.0600 
    204 H204       -1.1617  -25.9014  -50.0456 H         1 UNK         0.0600 
    205 H205       -3.6715  -24.9219  -47.5654 H         1 UNK         0.3000 
    206 H206       -5.8210  -24.6267  -47.7182 H         1 UNK         0.0600 
    207 H207       -6.1082  -26.9947  -46.8790 H         1 UNK         0.0600 
    208 H208       -7.4326  -26.4708  -47.9025 H         1 UNK         0.0600 
    209 H209       -6.2118  -27.5549  -48.5478 H         1 UNK         0.0600 
    210 H210       -7.7537  -24.7066  -49.3037 H         1 UNK         0.3000 
    211 H211       -8.6458  -23.9448  -51.1920 H         1 UNK         0.0600 
    212 H212       -6.7751  -25.9745  -52.5263 H         1 UNK         0.0600 
    213 H213       -8.2475  -25.3109  -53.2229 H         1 UNK         0.0600 
    214 H214       -8.3400  -26.3425  -51.8055 H         1 UNK         0.0600 
    215 H215       -6.8268  -22.1757  -50.2749 H         1 UNK         0.3000 
    216 H216       -5.5906  -20.3758  -50.7002 H         1 UNK         0.0600 
    217 H217       -6.5766  -20.5765  -53.5967 H         1 UNK         0.0600 
    218 H218       -5.9391  -19.1496  -52.7989 H         1 UNK         0.0600 
    219 H219       -7.4679  -19.8269  -52.2727 H         1 UNK         0.0600 
    220 H220       -4.1654  -22.5780  -50.4623 H         1 UNK         0.3000 
    221 H221       -2.2416  -23.6093  -50.7103 H         1 UNK         0.0600 
    222 H222       -1.2868  -21.1484  -52.2742 H         1 UNK         0.0600 
    223 H223       -1.2425  -21.3194  -50.5225 H         1 UNK         0.0600 
    224 H224       -0.2619  -22.3688  -51.5321 H         1 UNK         0.0600 
    225 H225       -4.0858  -24.6439  -52.2176 H         1 UNK         0.3000 
    226 H226       -4.7311  -25.7798  -54.0102 H         1 UNK         0.0600 
    227 H227       -2.6760  -27.0984  -53.4575 H         1 UNK         0.0600 
    228 H228       -3.0434  -27.1588  -55.1735 H         1 UNK         0.0600 
    229 H229       -1.7416  -26.1276  -54.5949 H         1 UNK         0.0600 
    230 H230       -4.8281  -23.0723  -54.3422 H         1 UNK         0.3000 
    231 H231       -5.1344  -21.3781  -55.6776 H         1 UNK         0.0600 
    232 H232       -5.2764  -23.3997  -57.9732 H         1 UNK         0.0600 
    233 H233       -5.9727  -21.7855  -57.9555 H         1 UNK         0.0600 
    234 H234       -6.6015  -23.0161  -56.8742 H         1 UNK         0.0600 
    235 H235       -2.2463  -22.3221  -55.3099 H         1 UNK         0.3000 
    236 H236       -0.7547  -21.7411  -57.6323 H         1 UNK         0.0600 
    237 H237        0.1775  -22.9774  -55.7113 H         1 UNK         0.0600 
    238 H238        1.1732  -21.5716  -56.0464 H         1 UNK         0.0600 
    239 H239        0.0568  -21.5450  -54.6866 H         1 UNK         0.0600 
    240 H240       -2.2646  -19.5311  -55.3925 H         1 UNK         0.3000 
    241 H241       -0.7618  -17.1877  -56.2207 H         1 UNK         0.0600 
    242 H242       -3.6278  -17.6537  -58.9927 H         1 UNK         0.3800 
    243 H243       -3.1311  -18.9854  -57.9802 H         1 UNK         0.3800 
    244 H244       -1.6562  -17.1991  -53.9803 H         1 UNK         0.0800 
    245 H245       -2.3991  -15.9113  -54.8854 H         1 UNK         0.0800 
    246 H246       -5.6300  -16.5785  -52.9783 H         1 UNK         0.0800 
    247 H247       -4.5381  -15.4112  -53.6730 H         1 UNK         0.0800 
@<TRIPOS>BOND
     1    1    2 1    
     2    1  127 1    
     3    1  128 1    
     4    1  129 1    
     5    2    3 2    
     6    2    4 am   BACKBONE|DICT|INTERRES
     7    4    5 1    
     8    4  130 1    
     9    5    6 1    
    10    5   65 1    
    11    5  131 1    
    12    6    7 1    
    13    6  132 1    
    14    6  133 1    
    15    7    8 1    
    16    8    9 1    
    17    8  134 1    
    18    8  135 1    
    19    9   10 ar   
    20    9   14 ar   
    21   10   11 ar   
    22   10  136 1    
    23   11   12 ar   
    24   11  126 1    
    25   12   13 ar   
    26   12  137 1    
    27   13   14 ar   
    28   13   15 1    
    29   14  138 1    
    30   15   16 1    
    31   15  139 1    
    32   15  140 1    
    33   16   17 1    
    34   17   18 1    
    35   17  141 1    
    36   17  142 1    
    37   18   19 1    
    38   18   67 1    
    39   18  143 1    
    40   19   20 am   BACKBONE|DICT|INTERRES
    41   19  144 1    
    42   20   21 2    
    43   20   22 1    
    44   22   23 1    
    45   22   24 1    
    46   22  145 1    
    47   23  146 1    
    48   23  147 1    
    49   23  148 1    
    50   24   25 am   BACKBONE|DICT|INTERRES
    51   24  149 1    
    52   25   26 2    
    53   25   27 1    
    54   27   28 1    
    55   27   29 1    
    56   27  150 1    
    57   28  151 1    
    58   28  152 1    
    59   28  153 1    
    60   29   30 am   BACKBONE|DICT|INTERRES
    61   29  154 1    
    62   30   31 2    
    63   30   32 1    
    64   32   33 1    
    65   32   34 1    
    66   32  155 1    
    67   33  156 1    
    68   33  157 1    
    69   33  158 1    
    70   34   35 am   BACKBONE|DICT|INTERRES
    71   34  159 1    
    72   35   36 2    
    73   35   37 1    
    74   37   38 1    
    75   37   39 1    
    76   37  160 1    
    77   38  161 1    
    78   38  162 1    
    79   38  163 1    
    80   39   40 am   BACKBONE|DICT|INTERRES
    81   39  164 1    
    82   40   41 2    
    83   40   42 1    
    84   42   43 1    
    85   42   44 1    
    86   42  165 1    
    87   43  166 1    
    88   43  167 1    
    89   43  168 1    
    90   44   45 am   BACKBONE|DICT|INTERRES
    91   44  169 1    
    92   45   46 2    
    93   45   47 1    
    94   47   48 1    
    95   47   49 1    
    96   47  170 1    
    97   48  171 1    
    98   48  172 1    
    99   48  173 1    
   100   49   50 am   BACKBONE|DICT|INTERRES
   101   49  174 1    
   102   50   51 2    
   103   50   52 1    
   104   52   53 1    
   105   52   54 1    
   106   52  175 1    
   107   53  176 1    
   108   53  177 1    
   109   53  178 1    
   110   54   55 am   BACKBONE|DICT|INTERRES
   111   54  179 1    
   112   55   56 2    
   113   55   57 1    
   114   57   58 1    
   115   57   59 1    
   116   57  180 1    
   117   58  181 1    
   118   58  182 1    
   119   58  183 1    
   120   59   60 am   BACKBONE|DICT|INTERRES
   121   59  184 1    
   122   60   61 2    
   123   60   62 1    
   124   62   63 1    
   125   62   64 1    
   126   62  185 1    
   127   63  186 1    
   128   63  187 1    
   129   63  188 1    
   130   64   65 am   BACKBONE|DICT|INTERRES
   131   64  189 1    
   132   65   66 2    
   133   67   68 2    
   134   67   69 am   BACKBONE|DICT|INTERRES
   135   69   70 1    
   136   69  190 1    
   137   70   71 1    
   138   70   72 1    
   139   70  191 1    
   140   71  192 1    
   141   71  193 1    
   142   71  194 1    
   143   72   73 2    
   144   72   74 am   BACKBONE|DICT|INTERRES
   145   74   75 1    
   146   74  195 1    
   147   75   76 1    
   148   75   77 1    
   149   75  196 1    
   150   76  197 1    
   151   76  198 1    
   152   76  199 1    
   153   77   78 2    
   154   77   79 am   BACKBONE|DICT|INTERRES
   155   79   80 1    
   156   79  200 1    
   157   80   81 1    
   158   80   82 1    
   159   80  201 1    
   160   81  202 1    
   161   81  203 1    
   162   81  204 1    
   163   82   83 2    
   164   82   84 am   BACKBONE|DICT|INTERRES
   165   84   85 1    
   166   84  205 1    
   167   85   86 1    
   168   85   87 1    
   169   85  206 1    
   170   86  207 1    
   171   86  208 1    
   172   86  209 1    
   173   87   88 2    
   174   87   89 am   BACKBONE|DICT|INTERRES
   175   89   90 1    
   176   89  210 1    
   177   90   91 1    
   178   90   92 1    
   179   90  211 1    
   180   91  212 1    
   181   91  213 1    
   182   91  214 1    
   183   92   93 2    
   184   92   94 am   BACKBONE|DICT|INTERRES
   185   94   95 1    
   186   94  215 1    
   187   95   96 1    
   188   95   97 1    
   189   95  216 1    
   190   96  217 1    
   191   96  218 1    
   192   96  219 1    
   193   97   98 2    
   194   97   99 am   BACKBONE|DICT|INTERRES
   195   99  100 1    
   196   99  220 1    
   197  100  101 1    
   198  100  102 1    
   199  100  221 1    
   200  101  222 1    
   201  101  223 1    
   202  101  224 1    
   203  102  103 2    
   204  102  104 am   BACKBONE|DICT|INTERRES
   205  104  105 1    
   206  104  225 1    
   207  105  106 1    
   208  105  107 1    
   209  105  226 1    
   210  106  227 1    
   211  106  228 1    
   212  106  229 1    
   213  107  108 2    
   214  107  109 am   BACKBONE|DICT|INTERRES
   215  109  110 1    
   216  109  230 1    
   217  110  111 1    
   218  110  112 1    
   219  110  231 1    
   220  111  232 1    
   221  111  233 1    
   222  111  234 1    
   223  112  113 2    
   224  112  114 am   BACKBONE|DICT|INTERRES
   225  114  115 1    
   226  114  235 1    
   227  115  116 1    
   228  115  117 1    
   229  115  236 1    
   230  116  237 1    
   231  116  238 1    
   232  116  239 1    
   233  117  118 2    
   234  117  119 am   BACKBONE|DICT|INTERRES
   235  119  120 1    
   236  119  240 1    
   237  120  121 1    
   238  120  124 1    
   239  120  241 1    
   240  121  122 am   BACKBONE|DICT|INTERRES
   241  121  123 2    
   242  122  242 1    
   243  122  243 1    
   244  124  125 1    
   245  124  244 1    
   246  124  245 1    
   247  125  126 1    
   248  126  246 1    
   249  126  247 1    
@<TRIPOS>SUBSTRUCTURE
     1 UNK         1 GROUP             0       ****    0 ROOT    
