@<TRIPOS>MOLECULE
3R540
247   249    1
SMALL
USER_CHARGES


@<TRIPOS>ATOM
      1 CA          4.5701  -12.4019  -54.4011 C.3       0 UNK        -0.1800 
      2 C           4.6815  -13.8140  -53.8435 C.2       0 UNK         0.5000 
      3 O           5.7767  -14.3753  -53.8177 O.2       0 UNK        -0.5000 
      4 N           3.5520  -14.3874  -53.4079 N.am      1 UNK        -0.5000 
      5 CA          3.4562  -15.7138  -52.7884 C.3       1 UNK         0.1400 
      6 C6          1.9801  -16.1822  -52.7321 C.3       23 UNK        -0.0398 
      7 S7          1.7418  -17.8614  -52.0520 S.3       23 UNK        -0.2404 
      8 C8         -0.0367  -17.8532  -51.6440 C.3       23 UNK        -0.0205 
      9 C9         -0.4291  -16.7124  -50.7137 C.ar      23 UNK        -0.0193 
     10 C10        -1.3372  -15.7365  -51.1348 C.ar      23 UNK        -0.1150 
     11 C11        -1.7162  -14.6944  -50.2795 C.ar      23 UNK        -0.0193 
     12 C12        -1.1482  -14.6203  -49.0038 C.ar      23 UNK        -0.1150 
     13 C13        -0.2327  -15.5848  -48.5736 C.ar      23 UNK        -0.0193 
     14 C14         0.1186  -16.6291  -49.4327 C.ar      23 UNK        -0.1150 
     15 C15         0.3718  -15.5099  -47.1774 C.3       23 UNK        -0.0205 
     16 S16        -0.8483  -15.7334  -45.8378 S.3       23 UNK        -0.2404 
     17 C17        -1.8773  -17.1019  -46.4620 C.3       23 UNK        -0.0398 
     18 CA         -1.1322  -18.4476  -46.6046 C.3       11 UNK         0.1400 
     19 N          -0.6604  -18.9909  -45.3259 N.am      11 UNK        -0.5000 
     20 C           0.0979  -20.0920  -45.2135 C.2       10 UNK         0.5000 
     21 O           0.5350  -20.7216  -46.1747 O.2       10 UNK        -0.5000 
     22 CA          0.3606  -20.6267  -43.7978 C.3       10 UNK         0.1400 
     23 CB          1.5933  -19.9704  -43.1721 C.3       10 UNK        -0.1800 
     24 N          -0.7987  -20.4589  -42.9251 N.am      10 UNK        -0.5000 
     25 C          -1.9091  -21.2030  -43.0182 C.2       9 UNK         0.5000 
     26 O          -2.0458  -22.1312  -43.8160 O.2       9 UNK        -0.5000 
     27 CA         -3.0791  -20.8065  -42.1012 C.3       9 UNK         0.1400 
     28 CB         -2.8986  -21.4042  -40.6981 C.3       9 UNK        -0.1800 
     29 N          -3.2376  -19.3541  -42.0032 N.am      9 UNK        -0.5000 
     30 C          -3.6143  -18.5742  -43.0271 C.2       8 UNK         0.5000 
     31 O          -3.8933  -19.0092  -44.1440 O.2       8 UNK        -0.5000 
     32 CA         -3.6552  -17.0535  -42.7837 C.3       8 UNK         0.1400 
     33 CB         -5.0561  -16.6244  -42.3237 C.3       8 UNK        -0.1800 
     34 N          -2.6652  -16.5634  -41.8232 N.am      8 UNK        -0.5000 
     35 C          -1.3369  -16.7151  -41.9152 C.2       7 UNK         0.5000 
     36 O          -0.7815  -17.3530  -42.8132 O.2       7 UNK        -0.5000 
     37 CA         -0.4756  -16.0703  -40.8080 C.3       7 UNK         0.1400 
     38 CB         -1.2848  -15.4326  -39.6557 C.3       7 UNK        -0.1800 
     39 N           0.5107  -17.0127  -40.2766 N.am      7 UNK        -0.5000 
     40 C           0.2648  -18.2107  -39.7227 C.2       6 UNK         0.5000 
     41 O          -0.8674  -18.6702  -39.5639 O.2       6 UNK        -0.5000 
     42 CA          1.4967  -19.0408  -39.3170 C.3       6 UNK         0.1400 
     43 CB          1.1965  -20.5501  -39.2491 C.3       6 UNK        -0.1800 
     44 N           2.5838  -18.8031  -40.2658 N.am      6 UNK        -0.5000 
     45 C           3.8251  -18.4123  -39.9623 C.2       5 UNK         0.5000 
     46 O           4.2439  -18.2780  -38.8121 O.2       5 UNK        -0.5000 
     47 CA          4.7530  -18.0970  -41.1531 C.3       5 UNK         0.1400 
     48 CB          5.5945  -19.3300  -41.5155 C.3       5 UNK        -0.1800 
     49 N           4.0659  -17.6268  -42.3628 N.am      5 UNK        -0.5000 
     50 C           3.3225  -16.5179  -42.4750 C.2       4 UNK         0.5000 
     51 O           3.0341  -15.8055  -41.5117 O.2       4 UNK        -0.5000 
     52 CA          2.8256  -16.1444  -43.8939 C.3       4 UNK         0.1400 
     53 CB          2.2054  -14.7360  -43.9316 C.3       4 UNK        -0.1800 
     54 N           3.8789  -16.2088  -44.9148 N.am      4 UNK        -0.5000 
     55 C           4.4004  -17.3219  -45.4491 C.2       3 UNK         0.5000 
     56 O           4.0620  -18.4545  -45.1047 O.2       3 UNK        -0.5000 
     57 CA          5.5070  -17.1296  -46.5085 C.3       3 UNK         0.1400 
     58 CB          5.8077  -18.4186  -47.3032 C.3       3 UNK        -0.1800 
     59 N           5.2612  -16.0014  -47.4165 N.am      3 UNK        -0.5000 
     60 C           4.2442  -15.8665  -48.2819 C.2       2 UNK         0.5000 
     61 O           3.3289  -16.6824  -48.3898 O.2       2 UNK        -0.5000 
     62 CA          4.2322  -14.5923  -49.1615 C.3       2 UNK         0.1400 
     63 CB          5.5975  -13.8724  -49.2421 C.3       2 UNK        -0.1800 
     64 N           3.7134  -14.8260  -50.5146 N.am      2 UNK        -0.5000 
     65 C           4.1580  -15.7235  -51.4101 C.2       1 UNK         0.5000 
     66 O           5.1023  -16.4916  -51.2154 O.2       1 UNK        -0.5000 
     67 C          -2.0170  -19.4489  -47.3720 C.2       11 UNK         0.5000 
     68 O          -1.8478  -19.6052  -48.5829 O.2       11 UNK        -0.5000 
     69 N          -2.9226  -20.1286  -46.6542 N.am      12 UNK        -0.5000 
     70 CA         -3.7547  -21.1977  -47.1958 C.3       12 UNK         0.1400 
     71 CB         -4.8309  -21.5980  -46.1769 C.3       12 UNK        -0.1800 
     72 C          -2.9165  -22.4130  -47.6207 C.2       12 UNK         0.5000 
     73 O          -3.1075  -22.9096  -48.7297 O.2       12 UNK        -0.5000 
     74 N          -1.9825  -22.8489  -46.7622 N.am      13 UNK        -0.5000 
     75 CA         -1.0653  -23.9618  -47.0267 C.3       13 UNK         0.1400 
     76 CB         -0.2251  -24.2545  -45.7757 C.3       13 UNK        -0.1800 
     77 C          -0.1605  -23.7270  -48.2514 C.2       13 UNK         0.5000 
     78 O          -0.0045  -24.6343  -49.0696 O.2       13 UNK        -0.5000 
     79 N           0.3636  -22.5007  -48.3917 N.am      14 UNK        -0.5000 
     80 CA          1.1520  -22.0426  -49.5404 C.3       14 UNK         0.1400 
     81 CB          1.6906  -20.6321  -49.2534 C.3       14 UNK        -0.1800 
     82 C           0.3688  -22.0601  -50.8689 C.2       14 UNK         0.5000 
     83 O           0.9703  -22.2438  -51.9271 O.2       14 UNK        -0.5000 
     84 N          -0.9578  -21.9096  -50.7817 N.am      15 UNK        -0.5000 
     85 CA         -1.9062  -21.9930  -51.8887 C.3       15 UNK         0.1400 
     86 CB         -2.9402  -20.8702  -51.7229 C.3       15 UNK        -0.1800 
     87 C          -2.5735  -23.3797  -51.9963 C.2       15 UNK         0.5000 
     88 O          -3.6425  -23.4809  -52.5972 O.2       15 UNK        -0.5000 
     89 N          -1.9524  -24.4204  -51.4187 N.am      16 UNK        -0.5000 
     90 CA         -2.3726  -25.8269  -51.4536 C.3       16 UNK         0.1400 
     91 CB         -2.2525  -26.3926  -52.8847 C.3       16 UNK        -0.1800 
     92 C          -3.7659  -26.0523  -50.8291 C.2       16 UNK         0.5000 
     93 O          -4.6285  -26.6859  -51.4394 O.2       16 UNK        -0.5000 
     94 N          -3.9456  -25.5052  -49.6194 N.am      17 UNK        -0.5000 
     95 CA         -5.1848  -25.4440  -48.8376 C.3       17 UNK         0.1400 
     96 CB         -5.7428  -26.8486  -48.5231 C.3       17 UNK        -0.1800 
     97 C          -6.2137  -24.4901  -49.4770 C.2       17 UNK         0.5000 
     98 O          -7.3970  -24.8217  -49.5679 O.2       17 UNK        -0.5000 
     99 N          -5.7220  -23.3115  -49.8900 N.am      18 UNK        -0.5000 
    100 CA        -6.4544  -22.1951  -50.4959 C.3       18 UNK         0.1400 
    101 CB        -7.3674  -21.5238  -49.4490 C.3       18 UNK        -0.1800 
    102 C         -7.2010  -22.5982  -51.7845 C.2       18 UNK         0.5000 
    103 O         -8.4001  -22.3417  -51.9196 O.2       18 UNK        -0.5000 
    104 N         -6.4788  -23.2422  -52.7108 N.am      19 UNK        -0.5000 
    105 CA        -6.9821  -23.7265  -53.9955 C.3       19 UNK         0.1400 
    106 CB        -6.0184  -24.7979  -54.5365 C.3       19 UNK        -0.1800 
    107 C         -7.1973  -22.5665  -54.9889 C.2       19 UNK         0.5000 
    108 O         -6.3933  -22.3729  -55.9026 O.2       19 UNK        -0.5000 
    109 N         -8.2777  -21.8056  -54.7641 N.am      20 UNK        -0.5000 
    110 CA        -8.7154  -20.6237  -55.5166 C.3       20 UNK         0.1400 
    111 CB        -9.0963  -20.9981  -56.9648 C.3       20 UNK        -0.1800 
    112 C         -7.7155  -19.4497  -55.4338 C.2       20 UNK         0.5000 
    113 O         -7.5449  -18.7079  -56.4034 O.2       20 UNK        -0.5000 
    114 N         -7.0832  -19.2943  -54.2659 N.am      21 UNK        -0.5000 
    115 CA        -6.1380  -18.2337  -53.9388 C.3       21 UNK         0.1400 
    116 CB        -4.7430  -18.5805  -54.4904 C.3       21 UNK        -0.1800 
    117 C         -6.1146  -18.0403  -52.4160 C.2       21 UNK         0.5000 
    118 O         -6.5546  -18.9247  -51.6772 O.2       21 UNK        -0.5000 
    119 N         -5.6045  -16.8822  -51.9857 N.am      22 UNK        -0.5000 
    120 CA        -5.4907  -16.4469  -50.5821 C.3       22 UNK         0.1400 
    121 C         -4.5125  -17.2615  -49.6883 C.2       22 UNK         0.5000 
    122 N         -3.6052  -18.0469  -50.2487 N.am      22 UNK        -0.7600 
    123 O         -4.6040  -17.1936  -48.4664 O.2       22 UNK        -0.5000 
    124 C124       -5.2402  -14.9137  -50.4712 C.3       23 UNK        -0.0398 
    125 S125       -4.0944  -14.2242  -51.7250 S.3       23 UNK        -0.2404 
    126 C126       -2.6914  -13.6110  -50.7312 C.3       23 UNK        -0.0205 
    127 H127        5.1925  -11.7200  -53.8216 H         1 UNK         0.0600 
    128 H128        3.5444  -12.0331  -54.3722 H         1 UNK         0.0600 
    129 H129        4.9101  -12.3791  -55.4365 H         1 UNK         0.0600 
    130 H130        2.6889  -13.8665  -53.4688 H         1 UNK         0.3000 
    131 H131        3.9953  -16.4136  -53.4309 H         1 UNK         0.0600 
    132 H132        1.3946  -15.4675  -52.1541 H         1 UNK         0.0800 
    133 H133        1.5542  -16.1736  -53.7363 H         1 UNK         0.0800 
    134 H134       -0.6111  -17.8135  -52.5706 H         1 UNK         0.0800 
    135 H135       -0.2921  -18.7995  -51.1649 H         1 UNK         0.0800 
    136 H136       -1.7537  -15.7915  -52.1302 H         1 UNK         0.1150 
    137 H137       -1.4207  -13.8142  -48.3372 H         1 UNK         0.1150 
    138 H138        0.8300  -17.3774  -49.1129 H         1 UNK         0.1150 
    139 H139        1.1497  -16.2635  -47.0521 H         1 UNK         0.0800 
    140 H140        0.8617  -14.5434  -47.0583 H         1 UNK         0.0800 
    141 H141       -2.2906  -16.7894  -47.4208 H         1 UNK         0.0800 
    142 H142       -2.7388  -17.2132  -45.8055 H         1 UNK         0.0800 
    143 H143       -0.2449  -18.2898  -47.2173 H         1 UNK         0.0600 
    144 H144       -0.9268  -18.4882  -44.4856 H         1 UNK         0.3000 
    145 H145        0.5714  -21.6943  -43.8851 H         1 UNK         0.0600 
    146 H146        1.8758  -20.4845  -42.2555 H         1 UNK         0.0600 
    147 H147        2.4477  -20.0373  -43.8451 H         1 UNK         0.0600 
    148 H148        1.4201  -18.9181  -42.9520 H         1 UNK         0.0600 
    149 H149       -0.8005  -19.6598  -42.3061 H         1 UNK         0.3000 
    150 H150       -3.9942  -21.2194  -42.5313 H         1 UNK         0.0600 
    151 H151       -2.8230  -22.4913  -40.7456 H         1 UNK         0.0600 
    152 H152       -3.7457  -21.1652  -40.0550 H         1 UNK         0.0600 
    153 H153       -1.9945  -21.0349  -40.2132 H         1 UNK         0.0600 
    154 H154       -2.9861  -18.9219  -41.1245 H         1 UNK         0.3000 
    155 H155       -3.4488  -16.5611  -43.7346 H         1 UNK         0.0600 
    156 H156       -5.8175  -16.9509  -43.0336 H         1 UNK         0.0600 
    157 H157       -5.1319  -15.5397  -42.2456 H         1 UNK         0.0600 
    158 H158       -5.3087  -17.0508  -41.3520 H         1 UNK         0.0600 
    159 H159       -3.0282  -16.0469  -41.0355 H         1 UNK         0.3000 
    160 H160        0.0912  -15.2743  -41.2917 H         1 UNK         0.0600 
    161 H161       -0.6191  -14.9881  -38.9158 H         1 UNK         0.0600 
    162 H162       -1.9094  -16.1615  -39.1378 H         1 UNK         0.0600 
    163 H163       -1.9310  -14.6326  -40.0189 H         1 UNK         0.0600 
    164 H164        1.4769  -16.7319  -40.4014 H         1 UNK         0.3000 
    165 H165        1.7828  -18.7027  -38.3192 H         1 UNK         0.0600 
    166 H166        2.0932  -21.1198  -39.0051 H         1 UNK         0.0600 
    167 H167        0.4566  -20.7661  -38.4775 H         1 UNK         0.0600 
    168 H168        0.8032  -20.9293  -40.1924 H         1 UNK         0.0600 
    169 H169        2.3405  -18.8695  -41.2433 H         1 UNK         0.3000 
    170 H170        5.4302  -17.3027  -40.8331 H         1 UNK         0.0600 
    171 H171        6.1448  -19.6984  -40.6487 H         1 UNK         0.0600 
    172 H172        4.9713  -20.1471  -41.8816 H         1 UNK         0.0600 
    173 H173        6.3268  -19.0950  -42.2881 H         1 UNK         0.0600 
    174 H174        4.2265  -18.1575  -43.2145 H         1 UNK         0.3000 
    175 H175        2.0440  -16.8580  -44.1637 H         1 UNK         0.0600 
    176 H176        2.9076  -13.9766  -43.5853 H         1 UNK         0.0600 
    177 H177        1.8955  -14.4633  -44.9386 H         1 UNK         0.0600 
    178 H178        1.3193  -14.6816  -43.2989 H         1 UNK         0.0600 
    179 H179        4.2419  -15.3217  -45.2308 H         1 UNK         0.3000 
    180 H180        6.4097  -16.8770  -45.9507 H         1 UNK         0.0600 
    181 H181        4.9284  -18.7805  -47.8373 H         1 UNK         0.0600 
    182 H182        6.1382  -19.2192  -46.6404 H         1 UNK         0.0600 
    183 H183        6.5997  -18.2560  -48.0341 H         1 UNK         0.0600 
    184 H184        5.9605  -15.2723  -47.4002 H         1 UNK         0.3000 
    185 H185        3.5274  -13.9101  -48.6843 H         1 UNK         0.0600 
    186 H186        5.9203  -13.5130  -48.2646 H         1 UNK         0.0600 
    187 H187        6.3775  -14.5255  -49.6357 H         1 UNK         0.0600 
    188 H188        5.5401  -13.0003  -49.8939 H         1 UNK         0.0600 
    189 H189        2.9234  -14.2542  -50.7745 H         1 UNK         0.3000 
    190 H190       -3.0614  -19.8903  -45.6767 H         1 UNK         0.3000 
    191 H191       -4.2578  -20.8121  -48.0854 H         1 UNK         0.0600 
    192 H192       -4.3939  -21.9601  -45.2460 H         1 UNK         0.0600 
    193 H193       -5.4684  -22.3897  -46.5729 H         1 UNK         0.0600 
    194 H194       -5.4747  -20.7520  -45.9353 H         1 UNK         0.0600 
    195 H195       -1.9077  -22.4059  -45.8525 H         1 UNK         0.3000 
    196 H196       -1.6760  -24.8430  -47.2336 H         1 UNK         0.0600 
    197 H197        0.4171  -25.1220  -45.9323 H         1 UNK         0.0600 
    198 H198       -0.8583  -24.4696  -44.9148 H         1 UNK         0.0600 
    199 H199        0.4187  -23.4141  -45.5181 H         1 UNK         0.0600 
    200 H200        0.2283  -21.8240  -47.6431 H         1 UNK         0.3000 
    201 H201        2.0020  -22.7186  -49.6508 H         1 UNK         0.0600 
    202 H202        2.3197  -20.6211  -48.3631 H         1 UNK         0.0600 
    203 H203        0.8814  -19.9179  -49.0981 H         1 UNK         0.0600 
    204 H204        2.2967  -20.2661  -50.0829 H         1 UNK         0.0600 
    205 H205       -1.3645  -21.7768  -49.8642 H         1 UNK         0.3000 
    206 H206       -1.3895  -21.8283  -52.8360 H         1 UNK         0.0600 
    207 H207       -2.4651  -19.9003  -51.8588 H         1 UNK         0.0600 
    208 H208       -3.7417  -20.9402  -52.4573 H         1 UNK         0.0600 
    209 H209       -3.3966  -20.8895  -50.7330 H         1 UNK         0.0600 
    210 H210       -1.1115  -24.2351  -50.8851 H         1 UNK         0.3000 
    211 H211       -1.6659  -26.3721  -50.8263 H         1 UNK         0.0600 
    212 H212       -2.9598  -25.9224  -53.5688 H         1 UNK         0.0600 
    213 H213       -2.4502  -27.4650  -52.8979 H         1 UNK         0.0600 
    214 H214       -1.2496  -26.2432  -53.2844 H         1 UNK         0.0600 
    215 H215       -3.2002  -24.9158  -49.2678 H         1 UNK         0.3000 
    216 H216       -4.9119  -24.9911  -47.8834 H         1 UNK         0.0600 
    217 H217       -6.5621  -26.7867  -47.8061 H         1 UNK         0.0600 
    218 H218       -4.9769  -27.4889  -48.0858 H         1 UNK         0.0600 
    219 H219       -6.1304  -27.3458  -49.4124 H         1 UNK         0.0600 
    220 H220       -4.7274  -23.1589  -49.7524 H         1 UNK         0.3000 
    221 H221       -5.7088  -21.4587  -50.7952 H         1 UNK         0.0600 
    222 H222       -8.1540  -22.1957  -49.1048 H         1 UNK         0.0600 
    223 H223       -6.7971  -21.1992  -48.5791 H         1 UNK         0.0600 
    224 H224       -7.8508  -20.6390  -49.8646 H         1 UNK         0.0600 
    225 H225       -5.4832  -23.3852  -52.5489 H         1 UNK         0.3000 
    226 H226       -7.9478  -24.2091  -53.8308 H         1 UNK         0.0600 
    227 H227       -5.9099  -25.6222  -53.8312 H         1 UNK         0.0600 
    228 H228       -6.3867  -25.2161  -55.4739 H         1 UNK         0.0600 
    229 H229       -5.0246  -24.3910  -54.7264 H         1 UNK         0.0600 
    230 H230       -8.8087  -22.0115  -53.9239 H         1 UNK         0.3000 
    231 H231       -9.6236  -20.2746  -55.0235 H         1 UNK         0.0600 
    232 H232       -9.8094  -21.8221  -56.9847 H         1 UNK         0.0600 
    233 H233       -8.2257  -21.2929  -57.5513 H         1 UNK         0.0600 
    234 H234       -9.5627  -20.1553  -57.4762 H         1 UNK         0.0600 
    235 H235       -7.3040  -19.9060  -53.4902 H         1 UNK         0.3000 
    236 H236       -6.4815  -17.2985  -54.3863 H         1 UNK         0.0600 
    237 H237       -3.9980  -17.8446  -54.1857 H         1 UNK         0.0600 
    238 H238       -4.4068  -19.5569  -54.1448 H         1 UNK         0.0600 
    239 H239       -4.7471  -18.6020  -55.5802 H         1 UNK         0.0600 
    240 H240       -5.2470  -16.2199  -52.6596 H         1 UNK         0.3000 
    241 H241       -6.4703  -16.6309  -50.1364 H         1 UNK         0.0600 
    242 H242       -2.9716  -18.5830  -49.6633 H         1 UNK         0.3800 
    243 H243       -3.5343  -18.0974  -51.2490 H         1 UNK         0.3800 
    244 H244       -6.1913  -14.3984  -50.6104 H         1 UNK         0.0800 
    245 H245       -4.9120  -14.6315  -49.4690 H         1 UNK         0.0800 
    246 H246       -3.0790  -13.0553  -49.8760 H         1 UNK         0.0800 
    247 H247       -2.1355  -12.8923  -51.3343 H         1 UNK         0.0800 
@<TRIPOS>BOND
     1    1    2 1    
     2    1  127 1    
     3    1  128 1    
     4    1  129 1    
     5    2    3 2    
     6    2    4 am   BACKBONE|DICT|INTERRES
     7    4    5 1    
     8    4  130 1    
     9    5    6 1    
    10    5   65 1    
    11    5  131 1    
    12    6    7 1    
    13    6  132 1    
    14    6  133 1    
    15    7    8 1    
    16    8    9 1    
    17    8  134 1    
    18    8  135 1    
    19    9   10 ar   
    20    9   14 ar   
    21   10   11 ar   
    22   10  136 1    
    23   11   12 ar   
    24   11  126 1    
    25   12   13 ar   
    26   12  137 1    
    27   13   14 ar   
    28   13   15 1    
    29   14  138 1    
    30   15   16 1    
    31   15  139 1    
    32   15  140 1    
    33   16   17 1    
    34   17   18 1    
    35   17  141 1    
    36   17  142 1    
    37   18   19 1    
    38   18   67 1    
    39   18  143 1    
    40   19   20 am   BACKBONE|DICT|INTERRES
    41   19  144 1    
    42   20   21 2    
    43   20   22 1    
    44   22   23 1    
    45   22   24 1    
    46   22  145 1    
    47   23  146 1    
    48   23  147 1    
    49   23  148 1    
    50   24   25 am   BACKBONE|DICT|INTERRES
    51   24  149 1    
    52   25   26 2    
    53   25   27 1    
    54   27   28 1    
    55   27   29 1    
    56   27  150 1    
    57   28  151 1    
    58   28  152 1    
    59   28  153 1    
    60   29   30 am   BACKBONE|DICT|INTERRES
    61   29  154 1    
    62   30   31 2    
    63   30   32 1    
    64   32   33 1    
    65   32   34 1    
    66   32  155 1    
    67   33  156 1    
    68   33  157 1    
    69   33  158 1    
    70   34   35 am   BACKBONE|DICT|INTERRES
    71   34  159 1    
    72   35   36 2    
    73   35   37 1    
    74   37   38 1    
    75   37   39 1    
    76   37  160 1    
    77   38  161 1    
    78   38  162 1    
    79   38  163 1    
    80   39   40 am   BACKBONE|DICT|INTERRES
    81   39  164 1    
    82   40   41 2    
    83   40   42 1    
    84   42   43 1    
    85   42   44 1    
    86   42  165 1    
    87   43  166 1    
    88   43  167 1    
    89   43  168 1    
    90   44   45 am   BACKBONE|DICT|INTERRES
    91   44  169 1    
    92   45   46 2    
    93   45   47 1    
    94   47   48 1    
    95   47   49 1    
    96   47  170 1    
    97   48  171 1    
    98   48  172 1    
    99   48  173 1    
   100   49   50 am   BACKBONE|DICT|INTERRES
   101   49  174 1    
   102   50   51 2    
   103   50   52 1    
   104   52   53 1    
   105   52   54 1    
   106   52  175 1    
   107   53  176 1    
   108   53  177 1    
   109   53  178 1    
   110   54   55 am   BACKBONE|DICT|INTERRES
   111   54  179 1    
   112   55   56 2    
   113   55   57 1    
   114   57   58 1    
   115   57   59 1    
   116   57  180 1    
   117   58  181 1    
   118   58  182 1    
   119   58  183 1    
   120   59   60 am   BACKBONE|DICT|INTERRES
   121   59  184 1    
   122   60   61 2    
   123   60   62 1    
   124   62   63 1    
   125   62   64 1    
   126   62  185 1    
   127   63  186 1    
   128   63  187 1    
   129   63  188 1    
   130   64   65 am   BACKBONE|DICT|INTERRES
   131   64  189 1    
   132   65   66 2    
   133   67   68 2    
   134   67   69 am   BACKBONE|DICT|INTERRES
   135   69   70 1    
   136   69  190 1    
   137   70   71 1    
   138   70   72 1    
   139   70  191 1    
   140   71  192 1    
   141   71  193 1    
   142   71  194 1    
   143   72   73 2    
   144   72   74 am   BACKBONE|DICT|INTERRES
   145   74   75 1    
   146   74  195 1    
   147   75   76 1    
   148   75   77 1    
   149   75  196 1    
   150   76  197 1    
   151   76  198 1    
   152   76  199 1    
   153   77   78 2    
   154   77   79 am   BACKBONE|DICT|INTERRES
   155   79   80 1    
   156   79  200 1    
   157   80   81 1    
   158   80   82 1    
   159   80  201 1    
   160   81  202 1    
   161   81  203 1    
   162   81  204 1    
   163   82   83 2    
   164   82   84 am   BACKBONE|DICT|INTERRES
   165   84   85 1    
   166   84  205 1    
   167   85   86 1    
   168   85   87 1    
   169   85  206 1    
   170   86  207 1    
   171   86  208 1    
   172   86  209 1    
   173   87   88 2    
   174   87   89 am   BACKBONE|DICT|INTERRES
   175   89   90 1    
   176   89  210 1    
   177   90   91 1    
   178   90   92 1    
   179   90  211 1    
   180   91  212 1    
   181   91  213 1    
   182   91  214 1    
   183   92   93 2    
   184   92   94 am   BACKBONE|DICT|INTERRES
   185   94   95 1    
   186   94  215 1    
   187   95   96 1    
   188   95   97 1    
   189   95  216 1    
   190   96  217 1    
   191   96  218 1    
   192   96  219 1    
   193   97   98 2    
   194   97   99 am   BACKBONE|DICT|INTERRES
   195   99  100 1    
   196   99  220 1    
   197  100  101 1    
   198  100  102 1    
   199  100  221 1    
   200  101  222 1    
   201  101  223 1    
   202  101  224 1    
   203  102  103 2    
   204  102  104 am   BACKBONE|DICT|INTERRES
   205  104  105 1    
   206  104  225 1    
   207  105  106 1    
   208  105  107 1    
   209  105  226 1    
   210  106  227 1    
   211  106  228 1    
   212  106  229 1    
   213  107  108 2    
   214  107  109 am   BACKBONE|DICT|INTERRES
   215  109  110 1    
   216  109  230 1    
   217  110  111 1    
   218  110  112 1    
   219  110  231 1    
   220  111  232 1    
   221  111  233 1    
   222  111  234 1    
   223  112  113 2    
   224  112  114 am   BACKBONE|DICT|INTERRES
   225  114  115 1    
   226  114  235 1    
   227  115  116 1    
   228  115  117 1    
   229  115  236 1    
   230  116  237 1    
   231  116  238 1    
   232  116  239 1    
   233  117  118 2    
   234  117  119 am   BACKBONE|DICT|INTERRES
   235  119  120 1    
   236  119  240 1    
   237  120  121 1    
   238  120  124 1    
   239  120  241 1    
   240  121  122 am   BACKBONE|DICT|INTERRES
   241  121  123 2    
   242  122  242 1    
   243  122  243 1    
   244  124  125 1    
   245  124  244 1    
   246  124  245 1    
   247  125  126 1    
   248  126  246 1    
   249  126  247 1    
@<TRIPOS>SUBSTRUCTURE
     1 UNK         1 GROUP             0       ****    0 ROOT    
