@<TRIPOS>MOLECULE
3R540
247   249    1
SMALL
USER_CHARGES


@<TRIPOS>ATOM
      1 CA          3.1656  -10.0135  -50.7342 C.3       0 UNK        -0.1800 
      2 C           2.9600  -10.9382  -49.5436 C.2       0 UNK         0.5000 
      3 O           3.3858  -10.6137  -48.4351 O.2       0 UNK        -0.5000 
      4 N           2.2941  -12.0809  -49.7627 N.am      1 UNK        -0.5000 
      5 CA          2.0329  -13.1286  -48.7627 C.3       1 UNK         0.1400 
      6 C6          1.3459  -14.3688  -49.3820 C.3       23 UNK        -0.0398 
      7 S7          2.2763  -15.1097  -50.7702 S.3       23 UNK        -0.2404 
      8 C8          2.8171  -16.7094  -50.0657 C.3       23 UNK        -0.0205 
      9 C9          1.7676  -17.8261  -50.0476 C.ar      23 UNK        -0.0193 
     10 C10         0.3900  -17.5700  -50.0199 C.ar      23 UNK        -0.1150 
     11 C11        -0.5326  -18.6143  -49.9375 C.ar      23 UNK        -0.0193 
     12 C12        -0.0759  -19.9329  -49.8934 C.ar      23 UNK        -0.1150 
     13 C13         1.2911  -20.2140  -49.9519 C.ar      23 UNK        -0.0193 
     14 C14         2.2043  -19.1565  -50.0238 C.ar      23 UNK        -0.1150 
     15 C15         1.7696  -21.6620  -49.9477 C.3       23 UNK        -0.0205 
     16 S16         2.8519  -22.0724  -48.5376 S.3       23 UNK        -0.2404 
     17 C17         1.8319  -21.5950  -47.1029 C.3       23 UNK        -0.0398 
     18 CA          1.0857  -22.7686  -46.4258 C.3       11 UNK         0.1400 
     19 N           0.6259  -22.3995  -45.0875 N.am      11 UNK        -0.5000 
     20 C           0.0443  -23.2174  -44.2010 C.2       10 UNK         0.5000 
     21 O          -0.1094  -24.4258  -44.3806 O.2       10 UNK        -0.5000 
     22 CA         -0.5034  -22.5569  -42.9207 C.3       10 UNK         0.1400 
     23 CB          0.6114  -22.3584  -41.8832 C.3       10 UNK        -0.1800 
     24 N          -1.1614  -21.2745  -43.1888 N.am      10 UNK        -0.5000 
     25 C          -2.2815  -21.1420  -43.9149 C.2       9 UNK         0.5000 
     26 O          -2.9025  -22.0940  -44.3866 O.2       9 UNK        -0.5000 
     27 CA         -2.7674  -19.7093  -44.2017 C.3       9 UNK         0.1400 
     28 CB         -3.5188  -19.1322  -42.9930 C.3       9 UNK        -0.1800 
     29 N          -1.6784  -18.8097  -44.5831 N.am      9 UNK        -0.5000 
     30 C          -0.9365  -18.9424  -45.6919 C.2       8 UNK         0.5000 
     31 O          -1.1324  -19.8108  -46.5408 O.2       8 UNK        -0.5000 
     32 CA          0.2586  -17.9826  -45.8500 C.3       8 UNK         0.1400 
     33 CB         -0.1980  -16.6244  -46.4005 C.3       8 UNK        -0.1800 
     34 N           0.9864  -17.7838  -44.5944 N.am      8 UNK        -0.5000 
     35 C           1.6073  -18.7554  -43.9100 C.2       7 UNK         0.5000 
     36 O           1.6815  -19.9196  -44.2943 O.2       7 UNK        -0.5000 
     37 CA          2.1917  -18.3837  -42.5388 C.3       7 UNK         0.1400 
     38 CB          3.5940  -17.7736  -42.6813 C.3       7 UNK        -0.1800 
     39 N           1.3114  -17.4661  -41.8180 N.am      7 UNK        -0.5000 
     40 C           0.1469  -17.8272  -41.2608 C.2       6 UNK         0.5000 
     41 O          -0.2746  -18.9846  -41.2521 O.2       6 UNK        -0.5000 
     42 CA         -0.7052  -16.6998  -40.6465 C.3       6 UNK         0.1400 
     43 CB         -0.2547  -16.4028  -39.2087 C.3       6 UNK        -0.1800 
     44 N          -0.6619  -15.4650  -41.4337 N.am      6 UNK        -0.5000 
     45 C          -1.1902  -15.3355  -42.6586 C.2       5 UNK         0.5000 
     46 O          -1.8118  -16.2324  -43.2268 O.2       5 UNK        -0.5000 
     47 CA         -0.9488  -14.0012  -43.3930 C.3       5 UNK         0.1400 
     48 CB         -2.0728  -13.0035  -43.0784 C.3       5 UNK        -0.1800 
     49 N           0.3476  -13.3718  -43.1190 N.am      5 UNK        -0.5000 
     50 C           1.5449  -13.9494  -43.2967 C.2       4 UNK         0.5000 
     51 O           1.6894  -15.1266  -43.6269 O.2       4 UNK        -0.5000 
     52 CA          2.7682  -13.0411  -43.1026 C.3       4 UNK         0.1400 
     53 CB          4.1057  -13.7536  -43.3738 C.3       4 UNK        -0.1800 
     54 N           2.6325  -11.9029  -44.0030 N.am      4 UNK        -0.5000 
     55 C           2.8951  -10.6263  -43.6968 C.2       3 UNK         0.5000 
     56 O           3.3488  -10.2660  -42.6099 O.2       3 UNK        -0.5000 
     57 CA          2.5911   -9.5641  -44.7756 C.3       3 UNK         0.1400 
     58 CB          3.8898   -9.1010  -45.4527 C.3       3 UNK        -0.1800 
     59 N           1.6560  -10.0291  -45.8036 N.am      3 UNK        -0.5000 
     60 C           0.3581  -10.2950  -45.5886 C.2       2 UNK         0.5000 
     61 O          -0.2068  -10.0833  -44.5153 O.2       2 UNK        -0.5000 
     62 CA         -0.4408  -10.9384  -46.7416 C.3       2 UNK         0.1400 
     63 CB         -1.3342   -9.8923  -47.4250 C.3       2 UNK        -0.1800 
     64 N           0.3847  -11.5930  -47.7605 N.am      2 UNK        -0.5000 
     65 C           1.2088  -12.6313  -47.5540 C.2       1 UNK         0.5000 
     66 O           1.3575  -13.1696  -46.4580 O.2       1 UNK        -0.5000 
     67 C          -0.0782  -23.2967  -47.2876 C.2       11 UNK         0.5000 
     68 O           0.0359  -24.3856  -47.8462 O.2       11 UNK        -0.5000 
     69 N          -1.1958  -22.5566  -47.3333 N.am      12 UNK        -0.5000 
     70 CA         -2.4230  -22.9557  -48.0237 C.3       12 UNK         0.1400 
     71 CB         -3.4363  -21.8047  -48.0034 C.3       12 UNK        -0.1800 
     72 C          -3.0503  -24.2424  -47.4620 C.2       12 UNK         0.5000 
     73 O          -3.5171  -25.0682  -48.2436 O.2       12 UNK        -0.5000 
     74 N          -3.0284  -24.4195  -46.1347 N.am      13 UNK        -0.5000 
     75 CA         -3.4952  -25.6381  -45.4700 C.3       13 UNK         0.1400 
     76 CB         -3.5053  -25.4323  -43.9479 C.3       13 UNK        -0.1800 
     77 C          -2.6690  -26.8805  -45.8573 C.2       13 UNK         0.5000 
     78 O          -3.2462  -27.9424  -46.0937 O.2       13 UNK        -0.5000 
     79 N          -1.3423  -26.7180  -45.9494 N.am      14 UNK        -0.5000 
     80 CA         -0.4094  -27.7602  -46.3774 C.3       14 UNK         0.1400 
     81 CB          1.0191  -27.3503  -45.9869 C.3       14 UNK        -0.1800 
     82 C          -0.4967  -28.0609  -47.8867 C.2       14 UNK         0.5000 
     83 O          -0.4739  -29.2284  -48.2772 O.2       14 UNK        -0.5000 
     84 N          -0.5921  -27.0061  -48.7057 N.am      15 UNK        -0.5000 
     85 CA         -0.5662  -27.0633  -50.1698 C.3       15 UNK         0.1400 
     86 CB          0.0613  -25.7626  -50.6947 C.3       15 UNK        -0.1800 
     87 C          -1.9424  -27.3091  -50.8224 C.2       15 UNK         0.5000 
     88 O          -2.0309  -27.2596  -52.0500 O.2       15 UNK        -0.5000 
     89 N          -2.9851  -27.5540  -50.0151 N.am      16 UNK        -0.5000 
     90 CA         -4.3743  -27.8137  -50.4142 C.3       16 UNK         0.1400 
     91 CB         -4.4881  -29.1530  -51.1723 C.3       16 UNK        -0.1800 
     92 C          -4.9883  -26.6246  -51.1825 C.2       16 UNK         0.5000 
     93 O          -5.3683  -26.7535  -52.3468 O.2       16 UNK        -0.5000 
     94 N          -5.0227  -25.4764  -50.4964 N.am      17 UNK        -0.5000 
     95 CA         -5.4655  -24.1373  -50.9013 C.3       17 UNK         0.1400 
     96 CB         -6.8095  -24.1470  -51.6562 C.3       17 UNK        -0.1800 
     97 C          -4.3912  -23.3276  -51.6481 C.2       17 UNK         0.5000 
     98 O          -4.5055  -22.1045  -51.6896 O.2       17 UNK        -0.5000 
     99 N          -3.3633  -23.9992  -52.1871 N.am      18 UNK        -0.5000 
    100 CA        -2.2203  -23.4747  -52.9453 C.3       18 UNK         0.1400 
    101 CB        -1.3939  -22.4670  -52.1213 C.3       18 UNK        -0.1800 
    102 C         -2.5994  -22.8862  -54.3175 C.2       18 UNK         0.5000 
    103 O         -2.1235  -23.3838  -55.3389 O.2       18 UNK        -0.5000 
    104 N         -3.4363  -21.8449  -54.3238 N.am      19 UNK        -0.5000 
    105 CA        -3.8835  -21.1123  -55.5019 C.3       19 UNK         0.1400 
    106 CB        -2.7827  -20.1363  -55.9589 C.3       19 UNK        -0.1800 
    107 C         -5.1707  -20.3491  -55.1662 C.2       19 UNK         0.5000 
    108 O         -5.4247  -20.0493  -53.9985 O.2       19 UNK        -0.5000 
    109 N         -5.9367  -19.9919  -56.2050 N.am      20 UNK        -0.5000 
    110 CA        -7.1899  -19.2326  -56.1055 C.3       20 UNK         0.1400 
    111 CB        -7.8690  -19.2170  -57.4841 C.3       20 UNK        -0.1800 
    112 C         -7.0227  -17.7940  -55.5692 C.2       20 UNK         0.5000 
    113 O         -8.0050  -17.1921  -55.1343 O.2       20 UNK        -0.5000 
    114 N         -5.7893  -17.2712  -55.6062 N.am      21 UNK        -0.5000 
    115 CA        -5.4051  -15.9762  -55.0466 C.3       21 UNK         0.1400 
    116 CB        -4.0248  -15.5910  -55.6017 C.3       21 UNK        -0.1800 
    117 C         -5.3887  -15.9521  -53.5039 C.2       21 UNK         0.5000 
    118 O         -5.5078  -14.8714  -52.9243 O.2       21 UNK        -0.5000 
    119 N         -5.2282  -17.1193  -52.8657 N.am      22 UNK        -0.5000 
    120 CA        -5.2388  -17.2737  -51.4041 C.3       22 UNK         0.1400 
    121 C         -6.6687  -17.1328  -50.8139 C.2       22 UNK         0.5000 
    122 N         -6.8114  -16.4837  -49.6661 N.am      22 UNK        -0.7600 
    123 O         -7.6442  -17.6414  -51.3616 O.2       22 UNK        -0.5000 
    124 C124       -4.6016  -18.6139  -50.9632 C.3       23 UNK        -0.0398 
    125 S125       -2.8462  -18.7494  -51.4437 S.3       23 UNK        -0.2404 
    126 C126       -2.0226  -18.3199  -49.8785 C.3       23 UNK        -0.0205 
    127 H127        2.7313  -10.4237  -51.6462 H         1 UNK         0.0600 
    128 H128        2.7026   -9.0458  -50.5414 H         1 UNK         0.0600 
    129 H129        4.2303   -9.8553  -50.9056 H         1 UNK         0.0600 
    130 H130        1.9816  -12.2946  -50.6995 H         1 UNK         0.3000 
    131 H131        3.0028  -13.4429  -48.3713 H         1 UNK         0.0600 
    132 H132        1.1966  -15.1297  -48.6155 H         1 UNK         0.0800 
    133 H133        0.3513  -14.1083  -49.7487 H         1 UNK         0.0800 
    134 H134        3.1842  -16.5520  -49.0507 H         1 UNK         0.0800 
    135 H135        3.6760  -17.0429  -50.6501 H         1 UNK         0.0800 
    136 H136        0.0161  -16.5598  -50.0525 H         1 UNK         0.1150 
    137 H137       -0.7925  -20.7384  -49.8224 H         1 UNK         0.1150 
    138 H138        3.2628  -19.3745  -50.0511 H         1 UNK         0.1150 
    139 H139        0.9238  -22.3502  -49.9481 H         1 UNK         0.0800 
    140 H140        2.3137  -21.8534  -50.8733 H         1 UNK         0.0800 
    141 H141        1.1470  -20.7903  -47.3646 H         1 UNK         0.0800 
    142 H142        2.5302  -21.1569  -46.3899 H         1 UNK         0.0800 
    143 H143        1.7943  -23.5892  -46.2951 H         1 UNK         0.0600 
    144 H144        0.7729  -21.4290  -44.8194 H         1 UNK         0.3000 
    145 H145       -1.2477  -23.2312  -42.4923 H         1 UNK         0.0600 
    146 H146        0.2174  -21.9401  -40.9568 H         1 UNK         0.0600 
    147 H147        1.0869  -23.3083  -41.6361 H         1 UNK         0.0600 
    148 H148        1.3891  -21.6874  -42.2477 H         1 UNK         0.0600 
    149 H149       -0.7248  -20.4449  -42.8043 H         1 UNK         0.3000 
    150 H150       -3.4652  -19.7589  -45.0400 H         1 UNK         0.0600 
    151 H151       -4.3461  -19.7803  -42.7016 H         1 UNK         0.0600 
    152 H152       -3.9382  -18.1524  -43.2222 H         1 UNK         0.0600 
    153 H153       -2.8667  -19.0212  -42.1266 H         1 UNK         0.0600 
    154 H154       -1.4999  -18.0227  -43.9665 H         1 UNK         0.3000 
    155 H155        0.9527  -18.4233  -46.5685 H         1 UNK         0.0600 
    156 H156       -0.9719  -16.1760  -45.7795 H         1 UNK         0.0600 
    157 H157       -0.6106  -16.7310  -47.4036 H         1 UNK         0.0600 
    158 H158        0.6334  -15.9221  -46.4559 H         1 UNK         0.0600 
    159 H159        1.0256  -16.8376  -44.2257 H         1 UNK         0.3000 
    160 H160        2.2845  -19.3003  -41.9524 H         1 UNK         0.0600 
    161 H161        4.0024  -17.4875  -41.7120 H         1 UNK         0.0600 
    162 H162        3.5926  -16.8912  -43.3205 H         1 UNK         0.0600 
    163 H163        4.2831  -18.4927  -43.1256 H         1 UNK         0.0600 
    164 H164        1.5441  -16.4840  -41.8734 H         1 UNK         0.3000 
    165 H165       -1.7403  -17.0468  -40.6143 H         1 UNK         0.0600 
    166 H166       -0.9005  -15.6610  -38.7385 H         1 UNK         0.0600 
    167 H167       -0.2945  -17.3032  -38.5940 H         1 UNK         0.0600 
    168 H168        0.7688  -16.0274  -39.1752 H         1 UNK         0.0600 
    169 H169       -0.1656  -14.6812  -41.0362 H         1 UNK         0.3000 
    170 H170       -0.9772  -14.2105  -44.4636 H         1 UNK         0.0600 
    171 H171       -3.0514  -13.4368  -43.2899 H         1 UNK         0.0600 
    172 H172       -2.0645  -12.7061  -42.0291 H         1 UNK         0.0600 
    173 H173       -1.9820  -12.1018  -43.6840 H         1 UNK         0.0600 
    174 H174        0.3235  -12.3927  -42.8713 H         1 UNK         0.3000 
    175 H175        2.7553  -12.7090  -42.0626 H         1 UNK         0.0600 
    176 H176        4.1543  -14.1424  -44.3919 H         1 UNK         0.0600 
    177 H177        4.9481  -13.0762  -43.2335 H         1 UNK         0.0600 
    178 H178        4.2467  -14.5917  -42.6908 H         1 UNK         0.0600 
    179 H179        2.2300  -12.1215  -44.9095 H         1 UNK         0.3000 
    180 H180        2.1426   -8.7046  -44.2732 H         1 UNK         0.0600 
    181 H181        4.3968   -9.9264  -45.9539 H         1 UNK         0.0600 
    182 H182        4.5847   -8.6847  -44.7222 H         1 UNK         0.0600 
    183 H183        3.6953   -8.3265  -46.1948 H         1 UNK         0.0600 
    184 H184        2.0551  -10.2380  -46.7116 H         1 UNK         0.3000 
    185 H185       -1.0834  -11.7021  -46.2986 H         1 UNK         0.0600 
    186 H186       -1.9887   -9.4036  -46.7019 H         1 UNK         0.0600 
    187 H187       -0.7427   -9.1150  -47.9105 H         1 UNK         0.0600 
    188 H188       -1.9731  -10.3507  -48.1801 H         1 UNK         0.0600 
    189 H189        0.3440  -11.2016  -48.6903 H         1 UNK         0.3000 
    190 H190       -1.2075  -21.6478  -46.8752 H         1 UNK         0.3000 
    191 H191       -2.1650  -23.1548  -49.0650 H         1 UNK         0.0600 
    192 H192       -3.6613  -21.4808  -46.9872 H         1 UNK         0.0600 
    193 H193       -4.3758  -22.0953  -48.4740 H         1 UNK         0.0600 
    194 H194       -3.0559  -20.9482  -48.5543 H         1 UNK         0.0600 
    195 H195       -2.6945  -23.6663  -45.5406 H         1 UNK         0.3000 
    196 H196       -4.5242  -25.8144  -45.7904 H         1 UNK         0.0600 
    197 H197       -3.8930  -26.3151  -43.4383 H         1 UNK         0.0600 
    198 H198       -4.1390  -24.5905  -43.6683 H         1 UNK         0.0600 
    199 H199       -2.5059  -25.2420  -43.5578 H         1 UNK         0.0600 
    200 H200       -0.9434  -25.8175  -45.7053 H         1 UNK         0.3000 
    201 H201       -0.6538  -28.6791  -45.8403 H         1 UNK         0.0600 
    202 H202        1.1065  -27.2076  -44.9096 H         1 UNK         0.0600 
    203 H203        1.3190  -26.4198  -46.4704 H         1 UNK         0.0600 
    204 H204        1.7390  -28.1177  -46.2740 H         1 UNK         0.0600 
    205 H205       -0.5555  -26.0730  -48.2995 H         1 UNK         0.3000 
    206 H206        0.0788  -27.8887  -50.4774 H         1 UNK         0.0600 
    207 H207        1.0550  -25.6045  -50.2751 H         1 UNK         0.0600 
    208 H208        0.1665  -25.7757  -51.7801 H         1 UNK         0.0600 
    209 H209       -0.5526  -24.9039  -50.4300 H         1 UNK         0.0600 
    210 H210       -2.8150  -27.5093  -49.0197 H         1 UNK         0.3000 
    211 H211       -4.9455  -27.9141  -49.4899 H         1 UNK         0.0600 
    212 H212       -3.9584  -29.1316  -52.1251 H         1 UNK         0.0600 
    213 H213       -5.5309  -29.3906  -51.3854 H         1 UNK         0.0600 
    214 H214       -4.0819  -29.9744  -50.5821 H         1 UNK         0.0600 
    215 H215       -4.5731  -25.4850  -49.5798 H         1 UNK         0.3000 
    216 H216       -5.6355  -23.6076  -49.9632 H         1 UNK         0.0600 
    217 H217       -7.1944  -23.1326  -51.7676 H         1 UNK         0.0600 
    218 H218       -7.5628  -24.7238  -51.1198 H         1 UNK         0.0600 
    219 H219       -6.7128  -24.5625  -52.6593 H         1 UNK         0.0600 
    220 H220       -3.3977  -25.0076  -52.1200 H         1 UNK         0.3000 
    221 H221       -1.5803  -24.3376  -53.1362 H         1 UNK         0.0600 
    222 H222       -1.9399  -21.5429  -51.9360 H         1 UNK         0.0600 
    223 H223       -1.1095  -22.8762  -51.1557 H         1 UNK         0.0600 
    224 H224       -0.4755  -22.1980  -52.6440 H         1 UNK         0.0600 
    225 H225       -3.8477  -21.5405  -53.4421 H         1 UNK         0.3000 
    226 H226       -4.1033  -21.8223  -56.3018 H         1 UNK         0.0600 
    227 H227       -1.8701  -20.6657  -56.2328 H         1 UNK         0.0600 
    228 H228       -3.0973  -19.5662  -56.8336 H         1 UNK         0.0600 
    229 H229       -2.5310  -19.4229  -55.1727 H         1 UNK         0.0600 
    230 H230       -5.6523  -20.2596  -57.1365 H         1 UNK         0.3000 
    231 H231       -7.8440  -19.7602  -55.4082 H         1 UNK         0.0600 
    232 H232       -8.0732  -20.2285  -57.8357 H         1 UNK         0.0600 
    233 H233       -7.2500  -18.7187  -58.2312 H         1 UNK         0.0600 
    234 H234       -8.8236  -18.6905  -57.4448 H         1 UNK         0.0600 
    235 H235       -5.0480  -17.8346  -55.9937 H         1 UNK         0.3000 
    236 H236       -6.1291  -15.2299  -55.3804 H         1 UNK         0.0600 
    237 H237       -3.7131  -14.6138  -55.2305 H         1 UNK         0.0600 
    238 H238       -3.2593  -16.3118  -55.3109 H         1 UNK         0.0600 
    239 H239       -4.0381  -15.5343  -56.6903 H         1 UNK         0.0600 
    240 H240       -5.1873  -17.9796  -53.3985 H         1 UNK         0.3000 
    241 H241       -4.6282  -16.4700  -50.9871 H         1 UNK         0.0600 
    242 H242       -7.7327  -16.3981  -49.2653 H         1 UNK         0.3800 
    243 H243       -6.0280  -16.0586  -49.1949 H         1 UNK         0.3800 
    244 H244       -4.6844  -18.7452  -49.8831 H         1 UNK         0.0800 
    245 H245       -5.1412  -19.4534  -51.4041 H         1 UNK         0.0800 
    246 H246       -2.2003  -17.2654  -49.6629 H         1 UNK         0.0800 
    247 H247       -2.4598  -18.8752  -49.0502 H         1 UNK         0.0800 
@<TRIPOS>BOND
     1    1    2 1    
     2    1  127 1    
     3    1  128 1    
     4    1  129 1    
     5    2    3 2    
     6    2    4 am   BACKBONE|DICT|INTERRES
     7    4    5 1    
     8    4  130 1    
     9    5    6 1    
    10    5   65 1    
    11    5  131 1    
    12    6    7 1    
    13    6  132 1    
    14    6  133 1    
    15    7    8 1    
    16    8    9 1    
    17    8  134 1    
    18    8  135 1    
    19    9   10 ar   
    20    9   14 ar   
    21   10   11 ar   
    22   10  136 1    
    23   11   12 ar   
    24   11  126 1    
    25   12   13 ar   
    26   12  137 1    
    27   13   14 ar   
    28   13   15 1    
    29   14  138 1    
    30   15   16 1    
    31   15  139 1    
    32   15  140 1    
    33   16   17 1    
    34   17   18 1    
    35   17  141 1    
    36   17  142 1    
    37   18   19 1    
    38   18   67 1    
    39   18  143 1    
    40   19   20 am   BACKBONE|DICT|INTERRES
    41   19  144 1    
    42   20   21 2    
    43   20   22 1    
    44   22   23 1    
    45   22   24 1    
    46   22  145 1    
    47   23  146 1    
    48   23  147 1    
    49   23  148 1    
    50   24   25 am   BACKBONE|DICT|INTERRES
    51   24  149 1    
    52   25   26 2    
    53   25   27 1    
    54   27   28 1    
    55   27   29 1    
    56   27  150 1    
    57   28  151 1    
    58   28  152 1    
    59   28  153 1    
    60   29   30 am   BACKBONE|DICT|INTERRES
    61   29  154 1    
    62   30   31 2    
    63   30   32 1    
    64   32   33 1    
    65   32   34 1    
    66   32  155 1    
    67   33  156 1    
    68   33  157 1    
    69   33  158 1    
    70   34   35 am   BACKBONE|DICT|INTERRES
    71   34  159 1    
    72   35   36 2    
    73   35   37 1    
    74   37   38 1    
    75   37   39 1    
    76   37  160 1    
    77   38  161 1    
    78   38  162 1    
    79   38  163 1    
    80   39   40 am   BACKBONE|DICT|INTERRES
    81   39  164 1    
    82   40   41 2    
    83   40   42 1    
    84   42   43 1    
    85   42   44 1    
    86   42  165 1    
    87   43  166 1    
    88   43  167 1    
    89   43  168 1    
    90   44   45 am   BACKBONE|DICT|INTERRES
    91   44  169 1    
    92   45   46 2    
    93   45   47 1    
    94   47   48 1    
    95   47   49 1    
    96   47  170 1    
    97   48  171 1    
    98   48  172 1    
    99   48  173 1    
   100   49   50 am   BACKBONE|DICT|INTERRES
   101   49  174 1    
   102   50   51 2    
   103   50   52 1    
   104   52   53 1    
   105   52   54 1    
   106   52  175 1    
   107   53  176 1    
   108   53  177 1    
   109   53  178 1    
   110   54   55 am   BACKBONE|DICT|INTERRES
   111   54  179 1    
   112   55   56 2    
   113   55   57 1    
   114   57   58 1    
   115   57   59 1    
   116   57  180 1    
   117   58  181 1    
   118   58  182 1    
   119   58  183 1    
   120   59   60 am   BACKBONE|DICT|INTERRES
   121   59  184 1    
   122   60   61 2    
   123   60   62 1    
   124   62   63 1    
   125   62   64 1    
   126   62  185 1    
   127   63  186 1    
   128   63  187 1    
   129   63  188 1    
   130   64   65 am   BACKBONE|DICT|INTERRES
   131   64  189 1    
   132   65   66 2    
   133   67   68 2    
   134   67   69 am   BACKBONE|DICT|INTERRES
   135   69   70 1    
   136   69  190 1    
   137   70   71 1    
   138   70   72 1    
   139   70  191 1    
   140   71  192 1    
   141   71  193 1    
   142   71  194 1    
   143   72   73 2    
   144   72   74 am   BACKBONE|DICT|INTERRES
   145   74   75 1    
   146   74  195 1    
   147   75   76 1    
   148   75   77 1    
   149   75  196 1    
   150   76  197 1    
   151   76  198 1    
   152   76  199 1    
   153   77   78 2    
   154   77   79 am   BACKBONE|DICT|INTERRES
   155   79   80 1    
   156   79  200 1    
   157   80   81 1    
   158   80   82 1    
   159   80  201 1    
   160   81  202 1    
   161   81  203 1    
   162   81  204 1    
   163   82   83 2    
   164   82   84 am   BACKBONE|DICT|INTERRES
   165   84   85 1    
   166   84  205 1    
   167   85   86 1    
   168   85   87 1    
   169   85  206 1    
   170   86  207 1    
   171   86  208 1    
   172   86  209 1    
   173   87   88 2    
   174   87   89 am   BACKBONE|DICT|INTERRES
   175   89   90 1    
   176   89  210 1    
   177   90   91 1    
   178   90   92 1    
   179   90  211 1    
   180   91  212 1    
   181   91  213 1    
   182   91  214 1    
   183   92   93 2    
   184   92   94 am   BACKBONE|DICT|INTERRES
   185   94   95 1    
   186   94  215 1    
   187   95   96 1    
   188   95   97 1    
   189   95  216 1    
   190   96  217 1    
   191   96  218 1    
   192   96  219 1    
   193   97   98 2    
   194   97   99 am   BACKBONE|DICT|INTERRES
   195   99  100 1    
   196   99  220 1    
   197  100  101 1    
   198  100  102 1    
   199  100  221 1    
   200  101  222 1    
   201  101  223 1    
   202  101  224 1    
   203  102  103 2    
   204  102  104 am   BACKBONE|DICT|INTERRES
   205  104  105 1    
   206  104  225 1    
   207  105  106 1    
   208  105  107 1    
   209  105  226 1    
   210  106  227 1    
   211  106  228 1    
   212  106  229 1    
   213  107  108 2    
   214  107  109 am   BACKBONE|DICT|INTERRES
   215  109  110 1    
   216  109  230 1    
   217  110  111 1    
   218  110  112 1    
   219  110  231 1    
   220  111  232 1    
   221  111  233 1    
   222  111  234 1    
   223  112  113 2    
   224  112  114 am   BACKBONE|DICT|INTERRES
   225  114  115 1    
   226  114  235 1    
   227  115  116 1    
   228  115  117 1    
   229  115  236 1    
   230  116  237 1    
   231  116  238 1    
   232  116  239 1    
   233  117  118 2    
   234  117  119 am   BACKBONE|DICT|INTERRES
   235  119  120 1    
   236  119  240 1    
   237  120  121 1    
   238  120  124 1    
   239  120  241 1    
   240  121  122 am   BACKBONE|DICT|INTERRES
   241  121  123 2    
   242  122  242 1    
   243  122  243 1    
   244  124  125 1    
   245  124  244 1    
   246  124  245 1    
   247  125  126 1    
   248  126  246 1    
   249  126  247 1    
@<TRIPOS>SUBSTRUCTURE
     1 UNK         1 GROUP             0       ****    0 ROOT    
