@<TRIPOS>MOLECULE
3R540
247   249    1
SMALL
USER_CHARGES


@<TRIPOS>ATOM
      1 CA          6.8945  -14.6165  -48.3788 C.3       0 UNK        -0.1800 
      2 C           5.3860  -14.7763  -48.2535 C.2       0 UNK         0.5000 
      3 O           4.9211  -15.4891  -47.3635 O.2       0 UNK        -0.5000 
      4 N           4.6291  -14.1196  -49.1435 N.am      1 UNK        -0.5000 
      5 CA          3.1632  -14.1108  -49.2023 C.3       1 UNK         0.1400 
      6 C6          2.6423  -13.3278  -50.4366 C.3       23 UNK        -0.0398 
      7 S7          3.0956  -14.0889  -52.0350 S.3       23 UNK        -0.2404 
      8 C8          1.4624  -14.4408  -52.7734 C.3       23 UNK        -0.0205 
      9 C9          0.9634  -15.8389  -52.4330 C.ar      23 UNK        -0.0193 
     10 C10         0.8474  -16.8093  -53.4346 C.ar      23 UNK        -0.1150 
     11 C11         0.4073  -18.1016  -53.1292 C.ar      23 UNK        -0.0193 
     12 C12         0.1043  -18.4250  -51.8038 C.ar      23 UNK        -0.1150 
     13 C13         0.2050  -17.4620  -50.7982 C.ar      23 UNK        -0.0193 
     14 C14         0.6157  -16.1671  -51.1199 C.ar      23 UNK        -0.1150 
     15 C15        -0.0905  -17.8346  -49.3592 C.3       23 UNK        -0.0205 
     16 S16         1.4057  -18.5112  -48.5855 S.3       23 UNK        -0.2404 
     17 C17         0.7813  -18.9389  -46.9350 C.3       23 UNK        -0.0398 
     18 CA          0.4497  -20.4458  -46.7891 C.3       11 UNK         0.1400 
     19 N           0.6574  -20.9092  -45.4169 N.am      11 UNK        -0.5000 
     20 C           0.5819  -22.1776  -44.9956 C.2       10 UNK         0.5000 
     21 O           0.3488  -23.1318  -45.7352 O.2       10 UNK        -0.5000 
     22 CA          0.7536  -22.4115  -43.4843 C.3       10 UNK         0.1400 
     23 CB          2.2396  -22.4663  -43.0997 C.3       10 UNK        -0.1800 
     24 N           0.0780  -21.3866  -42.6879 N.am      10 UNK        -0.5000 
     25 C          -1.2529  -21.2482  -42.6101 C.2       9 UNK         0.5000 
     26 O          -2.0533  -21.9957  -43.1740 O.2       9 UNK        -0.5000 
     27 CA         -1.7715  -20.0420  -41.8042 C.3       9 UNK         0.1400 
     28 CB         -1.6875  -20.3173  -40.2954 C.3       9 UNK        -0.1800 
     29 N          -1.0534  -18.8039  -42.1116 N.am      9 UNK        -0.5000 
     30 C          -1.0204  -18.2266  -43.3208 C.2       8 UNK         0.5000 
     31 O          -1.6243  -18.6550  -44.3030 O.2       8 UNK        -0.5000 
     32 CA         -0.1171  -16.9932  -43.4821 C.3       8 UNK         0.1400 
     33 CB         -0.8431  -15.7276  -43.0066 C.3       8 UNK        -0.1800 
     34 N           1.1711  -17.1142  -42.7956 N.am      8 UNK        -0.5000 
     35 C           2.0735  -18.0831  -43.0122 C.2       7 UNK         0.5000 
     36 O           1.9034  -19.0133  -43.7950 O.2       7 UNK        -0.5000 
     37 CA          3.3735  -18.0233  -42.2017 C.3       7 UNK         0.1400 
     38 CB          4.3382  -17.0012  -42.8156 C.3       7 UNK        -0.1800 
     39 N           3.1032  -17.6909  -40.8060 N.am      7 UNK        -0.5000 
     40 C           2.6215  -18.5687  -39.9146 C.2       6 UNK         0.5000 
     41 O           2.4305  -19.7607  -40.1597 O.2       6 UNK        -0.5000 
     42 CA          2.2588  -18.0122  -38.5257 C.3       6 UNK         0.1400 
     43 CB          3.4992  -17.9590  -37.6212 C.3       6 UNK        -0.1800 
     44 N           1.6475  -16.6838  -38.5874 N.am      6 UNK        -0.5000 
     45 C           0.4660  -16.4169  -39.1608 C.2       5 UNK         0.5000 
     46 O          -0.2465  -17.2672  -39.6958 O.2       5 UNK        -0.5000 
     47 CA          0.0227  -14.9425  -39.1679 C.3       5 UNK         0.1400 
     48 CB         -0.7236  -14.6028  -37.8692 C.3       5 UNK        -0.1800 
     49 N           1.1095  -13.9767  -39.3669 N.am      5 UNK        -0.5000 
     50 C           1.9440  -13.9434  -40.4153 C.2       4 UNK         0.5000 
     51 O           1.9690  -14.8088  -41.2943 O.2       4 UNK        -0.5000 
     52 CA          2.8775  -12.7198  -40.4874 C.3       4 UNK         0.1400 
     53 CB          3.9203  -12.7165  -39.3500 C.3       4 UNK        -0.1800 
     54 N           3.4837  -12.5700  -41.8158 N.am      4 UNK        -0.5000 
     55 C           4.5141  -13.2320  -42.3583 C.2       3 UNK         0.5000 
     56 O           5.2482  -14.0056  -41.7416 O.2       3 UNK        -0.5000 
     57 CA          4.7343  -12.9962  -43.8702 C.3       3 UNK         0.1400 
     58 CB          6.1089  -13.4932  -44.3520 C.3       3 UNK        -0.1800 
     59 N           3.7003  -13.6357  -44.6883 N.am      3 UNK        -0.5000 
     60 C           2.4208  -13.2484  -44.7844 C.2       2 UNK         0.5000 
     61 O           1.9627  -12.2596  -44.2069 O.2       2 UNK        -0.5000 
     62 CA          1.5195  -14.1100  -45.6952 C.3       2 UNK         0.1400 
     63 CB          0.1058  -13.5223  -45.8880 C.3       2 UNK        -0.1800 
     64 N           2.1293  -14.4099  -46.9957 N.am      2 UNK        -0.5000 
     65 C           2.5615  -13.5248  -47.9066 C.2       1 UNK         0.5000 
     66 O           2.5142  -12.3014  -47.7624 O.2       1 UNK        -0.5000 
     67 C          -0.9724  -20.7675  -47.2917 C.2       11 UNK         0.5000 
     68 O          -1.1254  -21.3194  -48.3815 O.2       11 UNK        -0.5000 
     69 N          -1.9839  -20.4591  -46.4673 N.am      12 UNK        -0.5000 
     70 CA         -3.3909  -20.7598  -46.7275 C.3       12 UNK         0.1400 
     71 CB         -4.2673  -20.1071  -45.6490 C.3       12 UNK        -0.1800 
     72 C          -3.6704  -22.2691  -46.8127 C.2       12 UNK         0.5000 
     73 O          -4.4392  -22.6875  -47.6782 O.2       12 UNK        -0.5000 
     74 N          -3.0200  -23.0581  -45.9453 N.am      13 UNK        -0.5000 
     75 CA         -3.0792  -24.5195  -45.9585 C.3       13 UNK         0.1400 
     76 CB         -2.4448  -25.0796  -44.6767 C.3       13 UNK        -0.1800 
     77 C          -2.4224  -25.1232  -47.2137 C.2       13 UNK         0.5000 
     78 O          -3.0037  -26.0206  -47.8230 O.2       13 UNK        -0.5000 
     79 N          -1.2528  -24.5963  -47.6044 N.am      14 UNK        -0.5000 
     80 CA         -0.5144  -24.9892  -48.8080 C.3       14 UNK         0.1400 
     81 CB          0.8722  -24.3278  -48.8006 C.3       14 UNK        -0.1800 
     82 C          -1.2687  -24.6620  -50.1106 C.2       14 UNK         0.5000 
     83 O          -1.2706  -25.4771  -51.0335 O.2       14 UNK        -0.5000 
     84 N          -1.9283  -23.4962  -50.1459 N.am      15 UNK        -0.5000 
     85 CA         -2.8114  -23.0659  -51.2332 C.3       15 UNK         0.1400 
     86 CB         -3.0038  -21.5437  -51.1341 C.3       15 UNK        -0.1800 
     87 C          -4.1818  -23.7767  -51.2263 C.2       15 UNK         0.5000 
     88 O          -4.9385  -23.6289  -52.1879 O.2       15 UNK        -0.5000 
     89 N          -4.4953  -24.4874  -50.1316 N.am      16 UNK        -0.5000 
     90 CA         -5.7579  -25.1653  -49.8226 C.3       16 UNK         0.1400 
     91 CB         -5.9344  -26.4095  -50.7142 C.3       16 UNK        -0.1800 
     92 C          -6.9620  -24.2011  -49.8530 C.2       16 UNK         0.5000 
     93 O          -8.0005  -24.5162  -50.4347 O.2       16 UNK        -0.5000 
     94 N          -6.7702  -23.0218  -49.2429 N.am      17 UNK        -0.5000 
     95 CA         -7.6748  -21.8674  -49.2336 C.3       17 UNK         0.1400 
     96 CB         -8.9742  -22.1866  -48.4651 C.3       17 UNK        -0.1800 
     97 C          -7.9216  -21.2955  -50.6480 C.2       17 UNK         0.5000 
     98 O          -9.0428  -20.8962  -50.9666 O.2       17 UNK        -0.5000 
     99 N          -6.8514  -21.2667  -51.4582 N.am      18 UNK        -0.5000 
    100 CA        -6.7916  -20.8247  -52.8556 C.3       18 UNK         0.1400 
    101 CB        -7.1009  -19.3169  -52.9728 C.3       18 UNK        -0.1800 
    102 C         -7.6630  -21.7051  -53.7737 C.2       18 UNK         0.5000 
    103 O         -8.5634  -21.2065  -54.4537 O.2       18 UNK        -0.5000 
    104 N         -7.3881  -23.0164  -53.7596 N.am      19 UNK        -0.5000 
    105 CA        -8.0945  -24.0427  -54.5304 C.3       19 UNK         0.1400 
    106 CB        -7.8029  -25.4208  -53.9138 C.3       19 UNK        -0.1800 
    107 C         -7.7319  -23.9935  -56.0289 C.2       19 UNK         0.5000 
    108 O         -6.9861  -24.8473  -56.5128 O.2       19 UNK        -0.5000 
    109 N         -8.2524  -22.9730  -56.7256 N.am      20 UNK        -0.5000 
    110 CA        -8.0303  -22.6570  -58.1436 C.3       20 UNK         0.1400 
    111 CB        -8.6373  -23.7458  -59.0533 C.3       20 UNK        -0.1800 
    112 C         -6.5495  -22.3550  -58.4642 C.2       20 UNK         0.5000 
    113 O         -6.0633  -22.6788  -59.5495 O.2       20 UNK        -0.5000 
    114 N         -5.8626  -21.7349  -57.5010 N.am      21 UNK        -0.5000 
    115 CA        -4.4591  -21.3524  -57.5406 C.3       21 UNK         0.1400 
    116 CB        -3.5857  -22.5479  -57.1201 C.3       21 UNK        -0.1800 
    117 C         -4.2656  -20.1682  -56.5858 C.2       21 UNK         0.5000 
    118 O         -5.0947  -19.9640  -55.6952 O.2       21 UNK        -0.5000 
    119 N         -3.1726  -19.4231  -56.7843 N.am      22 UNK        -0.5000 
    120 CA        -2.7605  -18.2581  -55.9763 C.3       22 UNK         0.1400 
    121 C         -3.6578  -16.9919  -56.1442 C.2       22 UNK         0.5000 
    122 N         -4.5211  -16.9188  -57.1501 N.am      22 UNK        -0.7600 
    123 O         -3.5493  -16.0414  -55.3742 O.2       22 UNK        -0.5000 
    124 C124       -2.5017  -18.6002  -54.4803 C.3       23 UNK        -0.0398 
    125 S125       -1.3417  -19.9930  -54.2413 S.3       23 UNK        -0.2404 
    126 C126        0.2762  -19.1471  -54.2309 C.3       23 UNK        -0.0205 
    127 H127        7.1656  -13.9424  -49.1916 H         1 UNK         0.0600 
    128 H128        7.3582  -15.5840  -48.5704 H         1 UNK         0.0600 
    129 H129        7.3090  -14.2171  -47.4536 H         1 UNK         0.0600 
    130 H130        5.0850  -13.5550  -49.8458 H         1 UNK         0.3000 
    131 H131        2.8337  -15.1479  -49.2935 H         1 UNK         0.0600 
    132 H132        1.5578  -13.2201  -50.3865 H         1 UNK         0.0800 
    133 H133        3.0350  -12.3093  -50.4326 H         1 UNK         0.0800 
    134 H134        0.7269  -13.6978  -52.4628 H         1 UNK         0.0800 
    135 H135        1.5535  -14.3303  -53.8550 H         1 UNK         0.0800 
    136 H136        1.1029  -16.5585  -54.4546 H         1 UNK         0.1150 
    137 H137       -0.2085  -19.4291  -51.5536 H         1 UNK         0.1150 
    138 H138        0.6892  -15.4247  -50.3401 H         1 UNK         0.1150 
    139 H139       -0.4350  -16.9627  -48.8008 H         1 UNK         0.0800 
    140 H140       -0.8954  -18.5703  -49.3242 H         1 UNK         0.0800 
    141 H141       -0.0599  -18.3004  -46.6595 H         1 UNK         0.0800 
    142 H142        1.5888  -18.6670  -46.2570 H         1 UNK         0.0800 
    143 H143        1.1483  -21.0165  -47.4049 H         1 UNK         0.0600 
    144 H144        0.9230  -20.1979  -44.7386 H         1 UNK         0.3000 
    145 H145        0.3059  -23.3780  -43.2439 H         1 UNK         0.0600 
    146 H146        2.3640  -22.6873  -42.0394 H         1 UNK         0.0600 
    147 H147        2.7574  -23.2471  -43.6582 H         1 UNK         0.0600 
    148 H148        2.7481  -21.5241  -43.3054 H         1 UNK         0.0600 
    149 H149        0.6661  -20.7060  -42.2273 H         1 UNK         0.3000 
    150 H150       -2.8209  -19.8939  -42.0675 H         1 UNK         0.0600 
    151 H151       -2.2124  -21.2372  -40.0346 H         1 UNK         0.0600 
    152 H152       -2.1430  -19.5090  -39.7230 H         1 UNK         0.0600 
    153 H153       -0.6539  -20.4196  -39.9615 H         1 UNK         0.0600 
    154 H154       -0.5636  -18.3556  -41.3428 H         1 UNK         0.3000 
    155 H155        0.0951  -16.8840  -44.5465 H         1 UNK         0.0600 
    156 H156       -1.1960  -15.8323  -41.9815 H         1 UNK         0.0600 
    157 H157       -0.1953  -14.8525  -43.0497 H         1 UNK         0.0600 
    158 H158       -1.7137  -15.5230  -43.6306 H         1 UNK         0.0600 
    159 H159        1.4107  -16.3684  -42.1462 H         1 UNK         0.3000 
    160 H160        3.8505  -19.0050  -42.2451 H         1 UNK         0.0600 
    161 H161        3.8796  -16.0162  -42.8863 H         1 UNK         0.0600 
    162 H162        4.6286  -17.2967  -43.8245 H         1 UNK         0.0600 
    163 H163        5.2503  -16.9079  -42.2260 H         1 UNK         0.0600 
    164 H164        3.1718  -16.7157  -40.5492 H         1 UNK         0.3000 
    165 H165        1.5351  -18.6945  -38.0745 H         1 UNK         0.0600 
    166 H166        3.2376  -17.6436  -36.6110 H         1 UNK         0.0600 
    167 H167        3.9672  -18.9413  -37.5429 H         1 UNK         0.0600 
    168 H168        4.2499  -17.2673  -38.0058 H         1 UNK         0.0600 
    169 H169        2.1677  -15.9199  -38.1818 H         1 UNK         0.3000 
    170 H170       -0.6757  -14.8146  -39.9955 H         1 UNK         0.0600 
    171 H171       -0.0677  -14.6632  -36.9998 H         1 UNK         0.0600 
    172 H172       -1.1425  -13.5970  -37.9054 H         1 UNK         0.0600 
    173 H173       -1.5531  -15.2919  -37.7032 H         1 UNK         0.0600 
    174 H174        1.1627  -13.2312  -38.6880 H         1 UNK         0.3000 
    175 H175        2.2485  -11.8375  -40.3610 H         1 UNK         0.0600 
    176 H176        4.6322  -11.8994  -39.4676 H         1 UNK         0.0600 
    177 H177        4.4820  -13.6499  -39.3056 H         1 UNK         0.0600 
    178 H178        3.4396  -12.5871  -38.3800 H         1 UNK         0.0600 
    179 H179        2.9068  -12.0598  -42.4782 H         1 UNK         0.3000 
    180 H180        4.6941  -11.9187  -44.0433 H         1 UNK         0.0600 
    181 H181        6.2000  -14.5767  -44.2645 H         1 UNK         0.0600 
    182 H182        6.9143  -13.0456  -43.7683 H         1 UNK         0.0600 
    183 H183        6.2781  -13.2262  -45.3949 H         1 UNK         0.0600 
    184 H184        3.9949  -14.4418  -45.2228 H         1 UNK         0.3000 
    185 H185        1.4131  -15.0649  -45.1817 H         1 UNK         0.0600 
    186 H186       -0.3893  -13.3594  -44.9305 H         1 UNK         0.0600 
    187 H187        0.1333  -12.5625  -46.4045 H         1 UNK         0.0600 
    188 H188       -0.5247  -14.1970  -46.4671 H         1 UNK         0.0600 
    189 H189        2.2900  -15.3899  -47.1852 H         1 UNK         0.3000 
    190 H190       -1.7822  -19.9681  -45.5987 H         1 UNK         0.3000 
    191 H191       -3.6526  -20.3202  -47.6921 H         1 UNK         0.0600 
    192 H192       -4.1427  -19.0241  -45.6438 H         1 UNK         0.0600 
    193 H193       -5.3240  -20.3127  -45.8249 H         1 UNK         0.0600 
    194 H194       -4.0199  -20.4757  -44.6526 H         1 UNK         0.0600 
    195 H195       -2.4353  -22.6302  -45.2369 H         1 UNK         0.3000 
    196 H196       -4.1321  -24.8094  -45.9647 H         1 UNK         0.0600 
    197 H197       -2.5135  -26.1677  -44.6515 H         1 UNK         0.0600 
    198 H198       -2.9515  -24.7006  -43.7890 H         1 UNK         0.0600 
    199 H199       -1.3905  -24.8161  -44.5963 H         1 UNK         0.0600 
    200 H200       -0.8124  -23.8948  -47.0140 H         1 UNK         0.3000 
    201 H201       -0.3730  -26.0713  -48.7714 H         1 UNK         0.0600 
    202 H202        1.4443  -24.6228  -47.9208 H         1 UNK         0.0600 
    203 H203        0.8001  -23.2398  -48.8022 H         1 UNK         0.0600 
    204 H204        1.4501  -24.6206  -49.6779 H         1 UNK         0.0600 
    205 H205       -1.8094  -22.8460  -49.3731 H         1 UNK         0.3000 
    206 H206       -2.3282  -23.2888  -52.1867 H         1 UNK         0.0600 
    207 H207       -2.0457  -21.0246  -51.1587 H         1 UNK         0.0600 
    208 H208       -3.5943  -21.1654  -51.9691 H         1 UNK         0.0600 
    209 H209       -3.5114  -21.2615  -50.2109 H         1 UNK         0.0600 
    210 H210       -3.8051  -24.5231  -49.3932 H         1 UNK         0.3000 
    211 H211       -5.6769  -25.5104  -48.7909 H         1 UNK         0.0600 
    212 H212       -5.9781  -26.1467  -51.7694 H         1 UNK         0.0600 
    213 H213       -6.8513  -26.9461  -50.4678 H         1 UNK         0.0600 
    214 H214       -5.1058  -27.1048  -50.5799 H         1 UNK         0.0600 
    215 H215       -5.8834  -22.8857  -48.7581 H         1 UNK         0.3000 
    216 H216       -7.1548  -21.0842  -48.6800 H         1 UNK         0.0600 
    217 H217       -9.5792  -21.2890  -48.3326 H         1 UNK         0.0600 
    218 H218       -8.7577  -22.5802  -47.4720 H         1 UNK         0.0600 
    219 H219       -9.5885  -22.9185  -48.9901 H         1 UNK         0.0600 
    220 H220       -6.0031  -21.6867  -51.1082 H         1 UNK         0.3000 
    221 H221       -5.7612  -20.9704  -53.1826 H         1 UNK         0.0600 
    222 H222       -8.1257  -19.0835  -52.6839 H         1 UNK         0.0600 
    223 H223       -6.4316  -18.7286  -52.3454 H         1 UNK         0.0600 
    224 H224       -6.9684  -18.9718  -53.9986 H         1 UNK         0.0600 
    225 H225       -6.6106  -23.3376  -53.1887 H         1 UNK         0.3000 
    226 H226       -9.1684  -23.8647  -54.4438 H         1 UNK         0.0600 
    227 H227       -8.1515  -25.4739  -52.8835 H         1 UNK         0.0600 
    228 H228       -8.3111  -26.2125  -54.4656 H         1 UNK         0.0600 
    229 H229       -6.7359  -25.6454  -53.9237 H         1 UNK         0.0600 
    230 H230       -8.7789  -22.2840  -56.1975 H         1 UNK         0.3000 
    231 H231       -8.5733  -21.7307  -58.3359 H         1 UNK         0.0600 
    232 H232       -8.1015  -24.6916  -58.9686 H         1 UNK         0.0600 
    233 H233       -8.6018  -23.4441  -60.1007 H         1 UNK         0.0600 
    234 H234       -9.6828  -23.9289  -58.8055 H         1 UNK         0.0600 
    235 H235       -6.3401  -21.4473  -56.6558 H         1 UNK         0.3000 
    236 H236       -4.1943  -21.0339  -58.5510 H         1 UNK         0.0600 
    237 H237       -3.7159  -23.3911  -57.7987 H         1 UNK         0.0600 
    238 H238       -2.5274  -22.2847  -57.1278 H         1 UNK         0.0600 
    239 H239       -3.8328  -22.8885  -56.1135 H         1 UNK         0.0600 
    240 H240       -2.5493  -19.6655  -57.5411 H         1 UNK         0.3000 
    241 H241       -1.8006  -17.9544  -56.3948 H         1 UNK         0.0600 
    242 H242       -4.6184  -17.6818  -57.8002 H         1 UNK         0.3800 
    243 H243       -5.0882  -16.0924  -57.2576 H         1 UNK         0.3800 
    244 H244       -2.1218  -17.7278  -53.9479 H         1 UNK         0.0800 
    245 H245       -3.4376  -18.8560  -53.9822 H         1 UNK         0.0800 
    246 H246        0.4409  -18.6988  -55.2118 H         1 UNK         0.0800 
    247 H247        1.0604  -19.8933  -54.0982 H         1 UNK         0.0800 
@<TRIPOS>BOND
     1    1    2 1    
     2    1  127 1    
     3    1  128 1    
     4    1  129 1    
     5    2    3 2    
     6    2    4 am   BACKBONE|DICT|INTERRES
     7    4    5 1    
     8    4  130 1    
     9    5    6 1    
    10    5   65 1    
    11    5  131 1    
    12    6    7 1    
    13    6  132 1    
    14    6  133 1    
    15    7    8 1    
    16    8    9 1    
    17    8  134 1    
    18    8  135 1    
    19    9   10 ar   
    20    9   14 ar   
    21   10   11 ar   
    22   10  136 1    
    23   11   12 ar   
    24   11  126 1    
    25   12   13 ar   
    26   12  137 1    
    27   13   14 ar   
    28   13   15 1    
    29   14  138 1    
    30   15   16 1    
    31   15  139 1    
    32   15  140 1    
    33   16   17 1    
    34   17   18 1    
    35   17  141 1    
    36   17  142 1    
    37   18   19 1    
    38   18   67 1    
    39   18  143 1    
    40   19   20 am   BACKBONE|DICT|INTERRES
    41   19  144 1    
    42   20   21 2    
    43   20   22 1    
    44   22   23 1    
    45   22   24 1    
    46   22  145 1    
    47   23  146 1    
    48   23  147 1    
    49   23  148 1    
    50   24   25 am   BACKBONE|DICT|INTERRES
    51   24  149 1    
    52   25   26 2    
    53   25   27 1    
    54   27   28 1    
    55   27   29 1    
    56   27  150 1    
    57   28  151 1    
    58   28  152 1    
    59   28  153 1    
    60   29   30 am   BACKBONE|DICT|INTERRES
    61   29  154 1    
    62   30   31 2    
    63   30   32 1    
    64   32   33 1    
    65   32   34 1    
    66   32  155 1    
    67   33  156 1    
    68   33  157 1    
    69   33  158 1    
    70   34   35 am   BACKBONE|DICT|INTERRES
    71   34  159 1    
    72   35   36 2    
    73   35   37 1    
    74   37   38 1    
    75   37   39 1    
    76   37  160 1    
    77   38  161 1    
    78   38  162 1    
    79   38  163 1    
    80   39   40 am   BACKBONE|DICT|INTERRES
    81   39  164 1    
    82   40   41 2    
    83   40   42 1    
    84   42   43 1    
    85   42   44 1    
    86   42  165 1    
    87   43  166 1    
    88   43  167 1    
    89   43  168 1    
    90   44   45 am   BACKBONE|DICT|INTERRES
    91   44  169 1    
    92   45   46 2    
    93   45   47 1    
    94   47   48 1    
    95   47   49 1    
    96   47  170 1    
    97   48  171 1    
    98   48  172 1    
    99   48  173 1    
   100   49   50 am   BACKBONE|DICT|INTERRES
   101   49  174 1    
   102   50   51 2    
   103   50   52 1    
   104   52   53 1    
   105   52   54 1    
   106   52  175 1    
   107   53  176 1    
   108   53  177 1    
   109   53  178 1    
   110   54   55 am   BACKBONE|DICT|INTERRES
   111   54  179 1    
   112   55   56 2    
   113   55   57 1    
   114   57   58 1    
   115   57   59 1    
   116   57  180 1    
   117   58  181 1    
   118   58  182 1    
   119   58  183 1    
   120   59   60 am   BACKBONE|DICT|INTERRES
   121   59  184 1    
   122   60   61 2    
   123   60   62 1    
   124   62   63 1    
   125   62   64 1    
   126   62  185 1    
   127   63  186 1    
   128   63  187 1    
   129   63  188 1    
   130   64   65 am   BACKBONE|DICT|INTERRES
   131   64  189 1    
   132   65   66 2    
   133   67   68 2    
   134   67   69 am   BACKBONE|DICT|INTERRES
   135   69   70 1    
   136   69  190 1    
   137   70   71 1    
   138   70   72 1    
   139   70  191 1    
   140   71  192 1    
   141   71  193 1    
   142   71  194 1    
   143   72   73 2    
   144   72   74 am   BACKBONE|DICT|INTERRES
   145   74   75 1    
   146   74  195 1    
   147   75   76 1    
   148   75   77 1    
   149   75  196 1    
   150   76  197 1    
   151   76  198 1    
   152   76  199 1    
   153   77   78 2    
   154   77   79 am   BACKBONE|DICT|INTERRES
   155   79   80 1    
   156   79  200 1    
   157   80   81 1    
   158   80   82 1    
   159   80  201 1    
   160   81  202 1    
   161   81  203 1    
   162   81  204 1    
   163   82   83 2    
   164   82   84 am   BACKBONE|DICT|INTERRES
   165   84   85 1    
   166   84  205 1    
   167   85   86 1    
   168   85   87 1    
   169   85  206 1    
   170   86  207 1    
   171   86  208 1    
   172   86  209 1    
   173   87   88 2    
   174   87   89 am   BACKBONE|DICT|INTERRES
   175   89   90 1    
   176   89  210 1    
   177   90   91 1    
   178   90   92 1    
   179   90  211 1    
   180   91  212 1    
   181   91  213 1    
   182   91  214 1    
   183   92   93 2    
   184   92   94 am   BACKBONE|DICT|INTERRES
   185   94   95 1    
   186   94  215 1    
   187   95   96 1    
   188   95   97 1    
   189   95  216 1    
   190   96  217 1    
   191   96  218 1    
   192   96  219 1    
   193   97   98 2    
   194   97   99 am   BACKBONE|DICT|INTERRES
   195   99  100 1    
   196   99  220 1    
   197  100  101 1    
   198  100  102 1    
   199  100  221 1    
   200  101  222 1    
   201  101  223 1    
   202  101  224 1    
   203  102  103 2    
   204  102  104 am   BACKBONE|DICT|INTERRES
   205  104  105 1    
   206  104  225 1    
   207  105  106 1    
   208  105  107 1    
   209  105  226 1    
   210  106  227 1    
   211  106  228 1    
   212  106  229 1    
   213  107  108 2    
   214  107  109 am   BACKBONE|DICT|INTERRES
   215  109  110 1    
   216  109  230 1    
   217  110  111 1    
   218  110  112 1    
   219  110  231 1    
   220  111  232 1    
   221  111  233 1    
   222  111  234 1    
   223  112  113 2    
   224  112  114 am   BACKBONE|DICT|INTERRES
   225  114  115 1    
   226  114  235 1    
   227  115  116 1    
   228  115  117 1    
   229  115  236 1    
   230  116  237 1    
   231  116  238 1    
   232  116  239 1    
   233  117  118 2    
   234  117  119 am   BACKBONE|DICT|INTERRES
   235  119  120 1    
   236  119  240 1    
   237  120  121 1    
   238  120  124 1    
   239  120  241 1    
   240  121  122 am   BACKBONE|DICT|INTERRES
   241  121  123 2    
   242  122  242 1    
   243  122  243 1    
   244  124  125 1    
   245  124  244 1    
   246  124  245 1    
   247  125  126 1    
   248  126  246 1    
   249  126  247 1    
@<TRIPOS>SUBSTRUCTURE
     1 UNK         1 GROUP             0       ****    0 ROOT    
