@<TRIPOS>MOLECULE
3R540
247   249    1
SMALL
USER_CHARGES


@<TRIPOS>ATOM
      1 CA          0.8320  -15.6623  -49.7652 C.3       0 UNK        -0.1800 
      2 C           0.6158  -14.8980  -48.4682 C.2       0 UNK         0.5000 
      3 O           1.1977  -15.2513  -47.4447 O.2       0 UNK        -0.5000 
      4 N          -0.1944  -13.8320  -48.5054 N.am      1 UNK        -0.5000 
      5 CA         -0.5569  -12.9917  -47.3536 C.3       1 UNK         0.1400 
      6 C6         -1.6591  -11.9661  -47.7175 C.3       23 UNK        -0.0398 
      7 S7         -3.3267  -12.7046  -47.6694 S.3       23 UNK        -0.2404 
      8 C8         -3.7396  -12.9400  -49.4323 C.3       23 UNK        -0.0205 
      9 C9         -3.1934  -14.2201  -50.0657 C.ar      23 UNK        -0.0193 
     10 C10        -2.9046  -14.2271  -51.4334 C.ar      23 UNK        -0.1150 
     11 C11        -2.4720  -15.3943  -52.0699 C.ar      23 UNK        -0.0193 
     12 C12        -2.3026  -16.5634  -51.3226 C.ar      23 UNK        -0.1150 
     13 C13        -2.5729  -16.5714  -49.9516 C.ar      23 UNK        -0.0193 
     14 C14        -3.0341  -15.4044  -49.3344 C.ar      23 UNK        -0.1150 
     15 C15        -2.3594  -17.8337  -49.1316 C.3       23 UNK        -0.0205 
     16 S16        -3.8478  -18.8794  -49.1369 S.3       23 UNK        -0.2404 
     17 C17        -3.9483  -19.4535  -47.4067 C.3       23 UNK        -0.0398 
     18 CA         -3.6525  -20.9638  -47.2744 C.3       11 UNK         0.1400 
     19 N          -2.2563  -21.2961  -47.5835 N.am      11 UNK        -0.5000 
     20 C          -1.7573  -22.5394  -47.6427 C.2       10 UNK         0.5000 
     21 O          -2.4562  -23.5493  -47.5721 O.2       10 UNK        -0.5000 
     22 CA         -0.2258  -22.6946  -47.7425 C.3       10 UNK         0.1400 
     23 CB          0.1979  -23.0625  -49.1704 C.3       10 UNK        -0.1800 
     24 N           0.5264  -21.5150  -47.3070 N.am      10 UNK        -0.5000 
     25 C           0.4896  -20.9821  -46.0790 C.2       9 UNK         0.5000 
     26 O          -0.1597  -21.4593  -45.1439 O.2       9 UNK        -0.5000 
     27 CA          1.2026  -19.6317  -45.9274 C.3       9 UNK         0.1400 
     28 CB          0.3680  -18.5451  -46.6232 C.3       9 UNK        -0.1800 
     29 N           1.3720  -19.2762  -44.5209 N.am      9 UNK        -0.5000 
     30 C           2.4105  -19.6536  -43.7622 C.2       8 UNK         0.5000 
     31 O           3.3572  -20.3128  -44.1949 O.2       8 UNK        -0.5000 
     32 CA          2.4099  -19.2269  -42.2797 C.3       8 UNK         0.1400 
     33 CB          3.7009  -18.4797  -41.9028 C.3       8 UNK        -0.1800 
     34 N           1.2646  -18.3761  -41.9553 N.am      8 UNK        -0.5000 
     35 C           0.1917  -18.7749  -41.2596 C.2       7 UNK         0.5000 
     36 O           0.0833  -19.8894  -40.7475 O.2       7 UNK        -0.5000 
     37 CA         -0.9672  -17.7704  -41.1152 C.3       7 UNK         0.1400 
     38 CB         -0.9053  -17.0784  -39.7460 C.3       7 UNK        -0.1800 
     39 N          -1.0079  -16.7636  -42.1810 N.am      7 UNK        -0.5000 
     40 C          -1.3232  -17.0384  -43.4562 C.2       6 UNK         0.5000 
     41 O          -1.5662  -18.1795  -43.8493 O.2       6 UNK        -0.5000 
     42 CA         -1.3367  -15.8910  -44.4861 C.3       6 UNK         0.1400 
     43 CB         -2.6434  -15.8836  -45.3048 C.3       6 UNK        -0.1800 
     44 N          -1.0257  -14.5702  -43.9349 N.am      6 UNK        -0.5000 
     45 C          -1.7877  -13.7711  -43.1750 C.2       5 UNK         0.5000 
     46 O          -2.9472  -14.0230  -42.8457 O.2       5 UNK        -0.5000 
     47 CA         -1.0945  -12.4823  -42.6789 C.3       5 UNK         0.1400 
     48 CB         -1.8175  -11.8273  -41.4827 C.3       5 UNK        -0.1800 
     49 N           0.3322  -12.6934  -42.3834 N.am      5 UNK        -0.5000 
     50 C           0.8298  -13.5424  -41.4711 C.2       4 UNK         0.5000 
     51 O           0.1249  -14.2396  -40.7421 O.2       4 UNK        -0.5000 
     52 CA          2.3653  -13.6612  -41.4014 C.3       4 UNK         0.1400 
     53 CB          2.8340  -14.7287  -40.3886 C.3       4 UNK        -0.1800 
     54 N           2.9833  -13.9042  -42.7095 N.am      4 UNK        -0.5000 
     55 C           2.7667  -14.9379  -43.5351 C.2       3 UNK         0.5000 
     56 O           1.9036  -15.8009  -43.3545 O.2       3 UNK        -0.5000 
     57 CA          3.6751  -14.9887  -44.7782 C.3       3 UNK         0.1400 
     58 CB          3.6868  -16.3688  -45.4560 C.3       3 UNK        -0.1800 
     59 N           3.2685  -13.9776  -45.7515 N.am      3 UNK        -0.5000 
     60 C           3.6274  -12.6855  -45.7082 C.2       2 UNK         0.5000 
     61 O           4.3665  -12.2205  -44.8389 O.2       2 UNK        -0.5000 
     62 CA          3.0609  -11.7458  -46.7949 C.3       2 UNK         0.1400 
     63 CB          4.0739  -11.5754  -47.9369 C.3       2 UNK        -0.1800 
     64 N           1.7862  -12.1977  -47.3549 N.am      2 UNK        -0.5000 
     65 C           0.6444  -12.3063  -46.6620 C.2       1 UNK         0.5000 
     66 O           0.5283  -11.9318  -45.4949 O.2       1 UNK        -0.5000 
     67 C          -4.0893  -21.4863  -45.8887 C.2       11 UNK         0.5000 
     68 O          -5.2274  -21.9344  -45.7485 O.2       11 UNK        -0.5000 
     69 N          -3.1745  -21.4555  -44.9109 N.am      12 UNK        -0.5000 
     70 CA         -3.3815  -22.0112  -43.5777 C.3       12 UNK         0.1400 
     71 CB         -2.7102  -21.0980  -42.5406 C.3       12 UNK        -0.1800 
     72 C          -2.8230  -23.4397  -43.4871 C.2       12 UNK         0.5000 
     73 O          -3.5163  -24.3334  -43.0013 O.2       12 UNK        -0.5000 
     74 N          -1.5796  -23.6298  -43.9500 N.am      13 UNK        -0.5000 
     75 CA         -0.8066  -24.8588  -43.7588 C.3       13 UNK         0.1400 
     76 CB          0.6790  -24.5570  -44.0107 C.3       13 UNK        -0.1800 
     77 C          -1.2694  -26.0541  -44.6137 C.2       13 UNK         0.5000 
     78 O          -1.0305  -27.1953  -44.2162 O.2       13 UNK        -0.5000 
     79 N          -1.9027  -25.7874  -45.7625 N.am      14 UNK        -0.5000 
     80 CA         -2.3405  -26.7966  -46.7304 C.3       14 UNK         0.1400 
     81 CB         -1.3414  -26.8282  -47.9012 C.3       14 UNK        -0.1800 
     82 C          -3.7797  -26.5426  -47.2151 C.2       14 UNK         0.5000 
     83 O          -4.1638  -27.0617  -48.2639 O.2       14 UNK        -0.5000 
     84 N          -4.5448  -25.7255  -46.4729 N.am      15 UNK        -0.5000 
     85 CA         -5.9362  -25.3320  -46.7420 C.3       15 UNK         0.1400 
     86 CB         -6.8812  -26.5246  -46.4881 C.3       15 UNK        -0.1800 
     87 C          -6.1513  -24.6917  -48.1345 C.2       15 UNK         0.5000 
     88 O          -7.2200  -24.8467  -48.7270 O.2       15 UNK        -0.5000 
     89 N          -5.1133  -24.0064  -48.6349 N.am      16 UNK        -0.5000 
     90 CA         -4.9956  -23.3415  -49.9363 C.3       16 UNK         0.1400 
     91 CB         -6.1155  -22.3047  -50.1618 C.3       16 UNK        -0.1800 
     92 C          -4.8347  -24.2894  -51.1401 C.2       16 UNK         0.5000 
     93 O          -4.6945  -23.7974  -52.2617 O.2       16 UNK        -0.5000 
     94 N          -4.7866  -25.6109  -50.9132 N.am      17 UNK        -0.5000 
     95 CA         -4.6268  -26.6186  -51.9662 C.3       17 UNK         0.1400 
     96 CB         -4.8688  -28.0192  -51.3847 C.3       17 UNK        -0.1800 
     97 C          -3.2516  -26.5436  -52.6540 C.2       17 UNK         0.5000 
     98 O          -3.1698  -26.7031  -53.8721 O.2       17 UNK        -0.5000 
     99 N          -2.2072  -26.2631  -51.8627 N.am      18 UNK        -0.5000 
    100 CA        -0.8449  -26.0343  -52.3476 C.3       18 UNK         0.1400 
    101 CB         0.1551  -26.5228  -51.2875 C.3       18 UNK        -0.1800 
    102 C         -0.5839  -24.5580  -52.7099 C.2       18 UNK         0.5000 
    103 O          0.4165  -24.2769  -53.3706 O.2       18 UNK        -0.5000 
    104 N         -1.4638  -23.6417  -52.2740 N.am      19 UNK        -0.5000 
    105 CA        -1.3769  -22.2124  -52.5830 C.3       19 UNK         0.1400 
    106 CB        -2.2042  -21.3871  -51.5810 C.3       19 UNK        -0.1800 
    107 C         -1.8418  -21.9247  -54.0177 C.2       19 UNK         0.5000 
    108 O         -1.1470  -21.2129  -54.7421 O.2       19 UNK        -0.5000 
    109 N         -2.9997  -22.4958  -54.3893 N.am      20 UNK        -0.5000 
    110 CA        -3.7087  -22.3279  -55.6605 C.3       20 UNK         0.1400 
    111 CB        -2.9169  -22.9582  -56.8273 C.3       20 UNK        -0.1800 
    112 C         -4.1013  -20.8553  -55.8987 C.2       20 UNK         0.5000 
    113 O         -5.1526  -20.4271  -55.4204 O.2       20 UNK        -0.5000 
    114 N         -3.2478  -20.1062  -56.6021 N.am      21 UNK        -0.5000 
    115 CA        -3.3479  -18.6696  -56.8194 C.3       21 UNK         0.1400 
    116 CB        -4.1984  -18.3872  -58.0697 C.3       21 UNK        -0.1800 
    117 C         -1.9277  -18.1061  -56.9707 C.2       21 UNK         0.5000 
    118 O         -1.0253  -18.8283  -57.4037 O.2       21 UNK        -0.5000 
    119 N         -1.7612  -16.8240  -56.6300 N.am      22 UNK        -0.5000 
    120 CA        -0.4823  -16.0949  -56.7124 C.3       22 UNK         0.1400 
    121 C         -0.1100  -15.6136  -58.1478 C.2       22 UNK         0.5000 
    122 N         -0.9827  -15.7265  -59.1421 N.am      22 UNK        -0.7600 
    123 O          0.9997  -15.1352  -58.3667 O.2       22 UNK        -0.5000 
    124 C124       -0.4332  -14.9157  -55.7050 C.3       23 UNK        -0.0398 
    125 S125       -0.4450  -15.4487  -53.9572 S.3       23 UNK        -0.2404 
    126 C126       -2.2214  -15.3957  -53.5696 C.3       23 UNK        -0.0205 
    127 H127        0.2778  -15.2199  -50.5933 H         1 UNK         0.0600 
    128 H128        0.5069  -16.6957  -49.6494 H         1 UNK         0.0600 
    129 H129        1.8899  -15.6647  -50.0266 H         1 UNK         0.0600 
    130 H130       -0.6570  -13.6032  -49.3735 H         1 UNK         0.3000 
    131 H131       -0.9567  -13.6656  -46.5966 H         1 UNK         0.0600 
    132 H132       -1.6819  -11.1419  -47.0016 H         1 UNK         0.0800 
    133 H133       -1.4670  -11.5067  -48.6881 H         1 UNK         0.0800 
    134 H134       -3.4138  -12.0634  -49.9942 H         1 UNK         0.0800 
    135 H135       -4.8262  -12.9680  -49.5205 H         1 UNK         0.0800 
    136 H136       -3.0434  -13.3248  -52.0126 H         1 UNK         0.1150 
    137 H137       -1.9612  -17.4663  -51.8093 H         1 UNK         0.1150 
    138 H138       -3.2704  -15.4255  -48.2811 H         1 UNK         0.1150 
    139 H139       -1.5215  -18.4058  -49.5323 H         1 UNK         0.0800 
    140 H140       -2.0802  -17.5538  -48.1164 H         1 UNK         0.0800 
    141 H141       -4.9623  -19.2330  -47.0669 H         1 UNK         0.0800 
    142 H142       -3.2866  -18.8772  -46.7608 H         1 UNK         0.0800 
    143 H143       -4.2760  -21.4783  -48.0009 H         1 UNK         0.0600 
    144 H144       -1.6194  -20.5210  -47.6750 H         1 UNK         0.3000 
    145 H145        0.0423  -23.5267  -47.0903 H         1 UNK         0.0600 
    146 H146       -0.4525  -23.8303  -49.5877 H         1 UNK         0.0600 
    147 H147        1.2148  -23.4548  -49.1878 H         1 UNK         0.0600 
    148 H148        0.1647  -22.2029  -49.8392 H         1 UNK         0.0600 
    149 H149        1.0807  -21.0580  -48.0167 H         1 UNK         0.3000 
    150 H150        2.1805  -19.6864  -46.4106 H         1 UNK         0.0600 
    151 H151        0.3682  -18.6788  -47.7052 H         1 UNK         0.0600 
    152 H152        0.7690  -17.5556  -46.4274 H         1 UNK         0.0600 
    153 H153       -0.6698  -18.5527  -46.2907 H         1 UNK         0.0600 
    154 H154        0.5832  -18.8274  -44.0745 H         1 UNK         0.3000 
    155 H155        2.3803  -20.1477  -41.6942 H         1 UNK         0.0600 
    156 H156        3.8099  -17.5504  -42.4592 H         1 UNK         0.0600 
    157 H157        4.5830  -19.0888  -42.1034 H         1 UNK         0.0600 
    158 H158        3.7138  -18.2332  -40.8410 H         1 UNK         0.0600 
    159 H159        1.2811  -17.4393  -42.3499 H         1 UNK         0.3000 
    160 H160       -1.8993  -18.3372  -41.1605 H         1 UNK         0.0600 
    161 H161        0.0516  -16.5792  -39.5912 H         1 UNK         0.0600 
    162 H162       -1.0259  -17.8031  -38.9400 H         1 UNK         0.0600 
    163 H163       -1.6960  -16.3357  -39.6382 H         1 UNK         0.0600 
    164 H164       -0.7707  -15.8140  -41.9181 H         1 UNK         0.3000 
    165 H165       -0.5212  -16.0997  -45.1778 H         1 UNK         0.0600 
    166 H166       -2.6778  -15.0487  -46.0000 H         1 UNK         0.0600 
    167 H167       -3.5243  -15.8219  -44.6656 H         1 UNK         0.0600 
    168 H168       -2.7374  -16.7955  -45.8915 H         1 UNK         0.0600 
    169 H169       -0.0707  -14.2720  -44.0802 H         1 UNK         0.3000 
    170 H170       -1.1419  -11.7745  -43.5067 H         1 UNK         0.0600 
    171 H171       -2.8340  -11.5389  -41.7528 H         1 UNK         0.0600 
    172 H172       -1.8876  -12.5013  -40.6285 H         1 UNK         0.0600 
    173 H173       -1.3014  -10.9244  -41.1566 H         1 UNK         0.0600 
    174 H174        0.9765  -12.1920  -42.9806 H         1 UNK         0.3000 
    175 H175        2.7331  -12.6939  -41.0565 H         1 UNK         0.0600 
    176 H176        2.4741  -15.7243  -40.6510 H         1 UNK         0.0600 
    177 H177        3.9218  -14.7705  -40.3343 H         1 UNK         0.0600 
    178 H178        2.4680  -14.5038  -39.3862 H         1 UNK         0.0600 
    179 H179        3.6674  -13.2174  -43.0056 H         1 UNK         0.3000 
    180 H180        4.6972  -14.7839  -44.4524 H         1 UNK         0.0600 
    181 H181        2.6904  -16.6733  -45.7665 H         1 UNK         0.0600 
    182 H182        4.0667  -17.1350  -44.7808 H         1 UNK         0.0600 
    183 H183        4.3256  -16.3699  -46.3390 H         1 UNK         0.0600 
    184 H184        2.6080  -14.2876  -46.4587 H         1 UNK         0.3000 
    185 H185        2.8983  -10.7702  -46.3321 H         1 UNK         0.0600 
    186 H186        5.0309  -11.2123  -47.5595 H         1 UNK         0.0600 
    187 H187        4.2607  -12.5184  -48.4525 H         1 UNK         0.0600 
    188 H188        3.7215  -10.8529  -48.6732 H         1 UNK         0.0600 
    189 H189        1.8024  -12.5429  -48.3032 H         1 UNK         0.3000 
    190 H190       -2.2425  -21.1114  -45.1096 H         1 UNK         0.3000 
    191 H191       -4.4475  -22.0506  -43.3437 H         1 UNK         0.0600 
    192 H192       -2.8145  -21.5011  -41.5326 H         1 UNK         0.0600 
    193 H193       -3.1629  -20.1065  -42.5434 H         1 UNK         0.0600 
    194 H194       -1.6444  -20.9755  -42.7381 H         1 UNK         0.0600 
    195 H195       -1.0735  -22.8360  -44.3367 H         1 UNK         0.3000 
    196 H196       -0.9103  -25.1559  -42.7129 H         1 UNK         0.0600 
    197 H197        0.8613  -24.2485  -45.0394 H         1 UNK         0.0600 
    198 H198        1.0360  -23.7611  -43.3565 H         1 UNK         0.0600 
    199 H199        1.2953  -25.4361  -43.8184 H         1 UNK         0.0600 
    200 H200       -2.0591  -24.8243  -46.0375 H         1 UNK         0.3000 
    201 H201       -2.3552  -27.7850  -46.2674 H         1 UNK         0.0600 
    202 H202       -1.3352  -25.8812  -48.4396 H         1 UNK         0.0600 
    203 H203       -1.5903  -27.6139  -48.6155 H         1 UNK         0.0600 
    204 H204       -0.3274  -27.0211  -47.5507 H         1 UNK         0.0600 
    205 H205       -4.1396  -25.3474  -45.6283 H         1 UNK         0.3000 
    206 H206       -6.1802  -24.5569  -46.0143 H         1 UNK         0.0600 
    207 H207       -6.7261  -26.9456  -45.4947 H         1 UNK         0.0600 
    208 H208       -7.9262  -26.2186  -46.5484 H         1 UNK         0.0600 
    209 H209       -6.7301  -27.3212  -47.2174 H         1 UNK         0.0600 
    210 H210       -4.2649  -23.9806  -48.0749 H         1 UNK         0.3000 
    211 H211       -4.0562  -22.7943  -49.8814 H         1 UNK         0.0600 
    212 H212       -5.8903  -21.6708  -51.0202 H         1 UNK         0.0600 
    213 H213       -6.2366  -21.6485  -49.3004 H         1 UNK         0.0600 
    214 H214       -7.0764  -22.7810  -50.3569 H         1 UNK         0.0600 
    215 H215       -4.8590  -25.9544  -49.9618 H         1 UNK         0.3000 
    216 H216       -5.3893  -26.4311  -52.7253 H         1 UNK         0.0600 
    217 H217       -4.1129  -28.2865  -50.6456 H         1 UNK         0.0600 
    218 H218       -4.8398  -28.7761  -52.1694 H         1 UNK         0.0600 
    219 H219       -5.8452  -28.0848  -50.9043 H         1 UNK         0.0600 
    220 H220       -2.3657  -26.1735  -50.8698 H         1 UNK         0.3000 
    221 H221       -0.6790  -26.6231  -53.2523 H         1 UNK         0.0600 
    222 H222       -0.0068  -27.5738  -51.0472 H         1 UNK         0.0600 
    223 H223        0.0821  -25.9530  -50.3631 H         1 UNK         0.0600 
    224 H224        1.1806  -26.4280  -51.6469 H         1 UNK         0.0600 
    225 H225       -2.2922  -23.9614  -51.7980 H         1 UNK         0.3000 
    226 H226       -0.3338  -21.9015  -52.4902 H         1 UNK         0.0600 
    227 H227       -3.2759  -21.5220  -51.7243 H         1 UNK         0.0600 
    228 H228       -1.9704  -21.6423  -50.5499 H         1 UNK         0.0600 
    229 H229       -2.0012  -20.3224  -51.7024 H         1 UNK         0.0600 
    230 H230       -3.5082  -23.0275  -53.6889 H         1 UNK         0.3000 
    231 H231       -4.6422  -22.8847  -55.5644 H         1 UNK         0.0600 
    232 H232       -1.9294  -22.5145  -56.9544 H         1 UNK         0.0600 
    233 H233       -3.4537  -22.8414  -57.7695 H         1 UNK         0.0600 
    234 H234       -2.7770  -24.0272  -56.6659 H         1 UNK         0.0600 
    235 H235       -2.3559  -20.5028  -56.8750 H         1 UNK         0.3000 
    236 H236       -3.8118  -18.2027  -55.9477 H         1 UNK         0.0600 
    237 H237       -5.2085  -18.7814  -57.9572 H         1 UNK         0.0600 
    238 H238       -4.2876  -17.3155  -58.2501 H         1 UNK         0.0600 
    239 H239       -3.7612  -18.8375  -58.9618 H         1 UNK         0.0600 
    240 H240       -2.5575  -16.2881  -56.3196 H         1 UNK         0.3000 
    241 H241        0.3121  -16.7890  -56.4306 H         1 UNK         0.0600 
    242 H242       -1.8945  -16.1232  -58.9841 H         1 UNK         0.3800 
    243 H243       -0.7245  -15.4157  -60.0658 H         1 UNK         0.3800 
    244 H244        0.4849  -14.3408  -55.8395 H         1 UNK         0.0800 
    245 H245       -1.2483  -14.2147  -55.8900 H         1 UNK         0.0800 
    246 H246       -2.6717  -14.5122  -54.0246 H         1 UNK         0.0800 
    247 H247       -2.7159  -16.2600  -54.0139 H         1 UNK         0.0800 
@<TRIPOS>BOND
     1    1    2 1    
     2    1  127 1    
     3    1  128 1    
     4    1  129 1    
     5    2    3 2    
     6    2    4 am   BACKBONE|DICT|INTERRES
     7    4    5 1    
     8    4  130 1    
     9    5    6 1    
    10    5   65 1    
    11    5  131 1    
    12    6    7 1    
    13    6  132 1    
    14    6  133 1    
    15    7    8 1    
    16    8    9 1    
    17    8  134 1    
    18    8  135 1    
    19    9   10 ar   
    20    9   14 ar   
    21   10   11 ar   
    22   10  136 1    
    23   11   12 ar   
    24   11  126 1    
    25   12   13 ar   
    26   12  137 1    
    27   13   14 ar   
    28   13   15 1    
    29   14  138 1    
    30   15   16 1    
    31   15  139 1    
    32   15  140 1    
    33   16   17 1    
    34   17   18 1    
    35   17  141 1    
    36   17  142 1    
    37   18   19 1    
    38   18   67 1    
    39   18  143 1    
    40   19   20 am   BACKBONE|DICT|INTERRES
    41   19  144 1    
    42   20   21 2    
    43   20   22 1    
    44   22   23 1    
    45   22   24 1    
    46   22  145 1    
    47   23  146 1    
    48   23  147 1    
    49   23  148 1    
    50   24   25 am   BACKBONE|DICT|INTERRES
    51   24  149 1    
    52   25   26 2    
    53   25   27 1    
    54   27   28 1    
    55   27   29 1    
    56   27  150 1    
    57   28  151 1    
    58   28  152 1    
    59   28  153 1    
    60   29   30 am   BACKBONE|DICT|INTERRES
    61   29  154 1    
    62   30   31 2    
    63   30   32 1    
    64   32   33 1    
    65   32   34 1    
    66   32  155 1    
    67   33  156 1    
    68   33  157 1    
    69   33  158 1    
    70   34   35 am   BACKBONE|DICT|INTERRES
    71   34  159 1    
    72   35   36 2    
    73   35   37 1    
    74   37   38 1    
    75   37   39 1    
    76   37  160 1    
    77   38  161 1    
    78   38  162 1    
    79   38  163 1    
    80   39   40 am   BACKBONE|DICT|INTERRES
    81   39  164 1    
    82   40   41 2    
    83   40   42 1    
    84   42   43 1    
    85   42   44 1    
    86   42  165 1    
    87   43  166 1    
    88   43  167 1    
    89   43  168 1    
    90   44   45 am   BACKBONE|DICT|INTERRES
    91   44  169 1    
    92   45   46 2    
    93   45   47 1    
    94   47   48 1    
    95   47   49 1    
    96   47  170 1    
    97   48  171 1    
    98   48  172 1    
    99   48  173 1    
   100   49   50 am   BACKBONE|DICT|INTERRES
   101   49  174 1    
   102   50   51 2    
   103   50   52 1    
   104   52   53 1    
   105   52   54 1    
   106   52  175 1    
   107   53  176 1    
   108   53  177 1    
   109   53  178 1    
   110   54   55 am   BACKBONE|DICT|INTERRES
   111   54  179 1    
   112   55   56 2    
   113   55   57 1    
   114   57   58 1    
   115   57   59 1    
   116   57  180 1    
   117   58  181 1    
   118   58  182 1    
   119   58  183 1    
   120   59   60 am   BACKBONE|DICT|INTERRES
   121   59  184 1    
   122   60   61 2    
   123   60   62 1    
   124   62   63 1    
   125   62   64 1    
   126   62  185 1    
   127   63  186 1    
   128   63  187 1    
   129   63  188 1    
   130   64   65 am   BACKBONE|DICT|INTERRES
   131   64  189 1    
   132   65   66 2    
   133   67   68 2    
   134   67   69 am   BACKBONE|DICT|INTERRES
   135   69   70 1    
   136   69  190 1    
   137   70   71 1    
   138   70   72 1    
   139   70  191 1    
   140   71  192 1    
   141   71  193 1    
   142   71  194 1    
   143   72   73 2    
   144   72   74 am   BACKBONE|DICT|INTERRES
   145   74   75 1    
   146   74  195 1    
   147   75   76 1    
   148   75   77 1    
   149   75  196 1    
   150   76  197 1    
   151   76  198 1    
   152   76  199 1    
   153   77   78 2    
   154   77   79 am   BACKBONE|DICT|INTERRES
   155   79   80 1    
   156   79  200 1    
   157   80   81 1    
   158   80   82 1    
   159   80  201 1    
   160   81  202 1    
   161   81  203 1    
   162   81  204 1    
   163   82   83 2    
   164   82   84 am   BACKBONE|DICT|INTERRES
   165   84   85 1    
   166   84  205 1    
   167   85   86 1    
   168   85   87 1    
   169   85  206 1    
   170   86  207 1    
   171   86  208 1    
   172   86  209 1    
   173   87   88 2    
   174   87   89 am   BACKBONE|DICT|INTERRES
   175   89   90 1    
   176   89  210 1    
   177   90   91 1    
   178   90   92 1    
   179   90  211 1    
   180   91  212 1    
   181   91  213 1    
   182   91  214 1    
   183   92   93 2    
   184   92   94 am   BACKBONE|DICT|INTERRES
   185   94   95 1    
   186   94  215 1    
   187   95   96 1    
   188   95   97 1    
   189   95  216 1    
   190   96  217 1    
   191   96  218 1    
   192   96  219 1    
   193   97   98 2    
   194   97   99 am   BACKBONE|DICT|INTERRES
   195   99  100 1    
   196   99  220 1    
   197  100  101 1    
   198  100  102 1    
   199  100  221 1    
   200  101  222 1    
   201  101  223 1    
   202  101  224 1    
   203  102  103 2    
   204  102  104 am   BACKBONE|DICT|INTERRES
   205  104  105 1    
   206  104  225 1    
   207  105  106 1    
   208  105  107 1    
   209  105  226 1    
   210  106  227 1    
   211  106  228 1    
   212  106  229 1    
   213  107  108 2    
   214  107  109 am   BACKBONE|DICT|INTERRES
   215  109  110 1    
   216  109  230 1    
   217  110  111 1    
   218  110  112 1    
   219  110  231 1    
   220  111  232 1    
   221  111  233 1    
   222  111  234 1    
   223  112  113 2    
   224  112  114 am   BACKBONE|DICT|INTERRES
   225  114  115 1    
   226  114  235 1    
   227  115  116 1    
   228  115  117 1    
   229  115  236 1    
   230  116  237 1    
   231  116  238 1    
   232  116  239 1    
   233  117  118 2    
   234  117  119 am   BACKBONE|DICT|INTERRES
   235  119  120 1    
   236  119  240 1    
   237  120  121 1    
   238  120  124 1    
   239  120  241 1    
   240  121  122 am   BACKBONE|DICT|INTERRES
   241  121  123 2    
   242  122  242 1    
   243  122  243 1    
   244  124  125 1    
   245  124  244 1    
   246  124  245 1    
   247  125  126 1    
   248  126  246 1    
   249  126  247 1    
@<TRIPOS>SUBSTRUCTURE
     1 UNK         1 GROUP             0       ****    0 ROOT    
