@<TRIPOS>MOLECULE
3R540
247   249    1
SMALL
USER_CHARGES


@<TRIPOS>ATOM
      1 CA          5.4458  -16.4869  -48.1875 C.3       0 UNK        -0.1800 
      2 C           4.8159  -15.5971  -47.1259 C.2       0 UNK         0.5000 
      3 O           5.1419  -15.7247  -45.9467 O.2       0 UNK        -0.5000 
      4 N           3.9270  -14.6878  -47.5427 N.am      1 UNK        -0.5000 
      5 CA          3.1875  -13.7602  -46.6772 C.3       1 UNK         0.1400 
      6 C6          1.7023  -13.6223  -47.0955 C.3       23 UNK        -0.0398 
      7 S7          1.4492  -13.1368  -48.8378 S.3       23 UNK        -0.2404 
      8 C8         -0.1588  -13.9308  -49.1819 C.3       23 UNK        -0.0205 
      9 C9         -0.0843  -15.3627  -49.7182 C.ar      23 UNK        -0.0193 
     10 C10        -1.1196  -15.8187  -50.5417 C.ar      23 UNK        -0.1150 
     11 C11        -1.1075  -17.1165  -51.0699 C.ar      23 UNK        -0.0193 
     12 C12        -0.0329  -17.9556  -50.7674 C.ar      23 UNK        -0.1150 
     13 C13         1.0063  -17.5256  -49.9404 C.ar      23 UNK        -0.0193 
     14 C14         0.9691  -16.2341  -49.4098 C.ar      23 UNK        -0.1150 
     15 C15         2.1832  -18.4466  -49.6484 C.3       23 UNK        -0.0205 
     16 S16         1.9186  -19.4616  -48.1613 S.3       23 UNK        -0.2404 
     17 C17         0.5770  -20.5662  -48.7157 C.3       23 UNK        -0.0398 
     18 CA          0.4780  -21.8759  -47.8982 C.3       11 UNK         0.1400 
     19 N           0.2811  -21.6503  -46.4618 N.am      11 UNK        -0.5000 
     20 C           0.2819  -22.6165  -45.5313 C.2       10 UNK         0.5000 
     21 O           0.5263  -23.7978  -45.7736 O.2       10 UNK        -0.5000 
     22 CA         -0.1216  -22.2116  -44.1033 C.3       10 UNK         0.1400 
     23 CB          1.0808  -21.6738  -43.3127 C.3       10 UNK        -0.1800 
     24 N          -1.2047  -21.2282  -44.1101 N.am      10 UNK        -0.5000 
     25 C          -2.4723  -21.5133  -44.4428 C.2       9 UNK         0.5000 
     26 O          -2.8657  -22.6479  -44.7110 O.2       9 UNK        -0.5000 
     27 CA         -3.4552  -20.3316  -44.5359 C.3       9 UNK         0.1400 
     28 CB         -4.0736  -20.0307  -43.1632 C.3       9 UNK        -0.1800 
     29 N          -2.8281  -19.1213  -45.0672 N.am      9 UNK        -0.5000 
     30 C          -2.3867  -18.9970  -46.3286 C.2       8 UNK         0.5000 
     31 O          -2.5028  -19.8796  -47.1771 O.2       8 UNK        -0.5000 
     32 CA         -1.6336  -17.7001  -46.6865 C.3       8 UNK         0.1400 
     33 CB         -2.6198  -16.6463  -47.2044 C.3       8 UNK        -0.1800 
     34 N          -0.8669  -17.1435  -45.5684 N.am      8 UNK        -0.5000 
     35 C           0.0967  -17.8021  -44.9038 C.2       7 UNK         0.5000 
     36 O           0.4661  -18.9362  -45.2015 O.2       7 UNK        -0.5000 
     37 CA          0.7139  -17.1239  -43.6649 C.3       7 UNK         0.1400 
     38 CB          2.0678  -16.5041  -44.0248 C.3       7 UNK        -0.1800 
     39 N          -0.1381  -16.0953  -43.0666 N.am      7 UNK        -0.5000 
     40 C          -1.3563  -16.3088  -42.5465 C.2       6 UNK         0.5000 
     41 O          -1.8763  -17.4224  -42.4698 O.2       6 UNK        -0.5000 
     42 CA         -2.1495  -15.0720  -42.0792 C.3       6 UNK         0.1400 
     43 CB         -2.0502  -14.9193  -40.5540 C.3       6 UNK        -0.1800 
     44 N          -1.7350  -13.8141  -42.7079 N.am      6 UNK        -0.5000 
     45 C          -1.7471  -13.5459  -44.0224 C.2       5 UNK         0.5000 
     46 O          -2.1066  -14.3502  -44.8821 O.2       5 UNK        -0.5000 
     47 CA         -1.2305  -12.1585  -44.4488 C.3       5 UNK         0.1400 
     48 CB         -2.4028  -11.1812  -44.6194 C.3       5 UNK        -0.1800 
     49 N          -0.2541  -11.5799  -43.5184 N.am      5 UNK        -0.5000 
     50 C           0.9592  -12.0864  -43.2612 C.2       4 UNK         0.5000 
     51 O           1.3943  -13.1261  -43.7638 O.2       4 UNK        -0.5000 
     52 CA          1.8080  -11.3304  -42.2323 C.3       4 UNK         0.1400 
     53 CB          1.5625  -11.8877  -40.8180 C.3       4 UNK        -0.1800 
     54 N           3.2131  -11.4704  -42.5961 N.am      4 UNK        -0.5000 
     55 C           4.2084  -10.6735  -42.1864 C.2       3 UNK         0.5000 
     56 O           4.0574   -9.7272  -41.4130 O.2       3 UNK        -0.5000 
     57 CA          5.5975  -10.9593  -42.7729 C.3       3 UNK         0.1400 
     58 CB          6.1996  -12.2432  -42.1693 C.3       3 UNK        -0.1800 
     59 N           5.4913  -11.0581  -44.2252 N.am      3 UNK        -0.5000 
     60 C           6.4916  -11.0451  -45.1110 C.2       2 UNK         0.5000 
     61 O           7.6785  -10.9432  -44.7950 O.2       2 UNK        -0.5000 
     62 CA          6.0844  -11.1879  -46.5981 C.3       2 UNK         0.1400 
     63 CB          7.2969  -11.3154  -47.5378 C.3       2 UNK        -0.1800 
     64 N           5.1964  -12.3330  -46.8246 N.am      2 UNK        -0.5000 
     65 C           3.8991  -12.4023  -46.4954 C.2       1 UNK         0.5000 
     66 O           3.2873  -11.4516  -46.0045 O.2       1 UNK        -0.5000 
     67 C          -0.6248  -22.7855  -48.4802 C.2       11 UNK         0.5000 
     68 O          -0.3098  -23.7419  -49.1878 O.2       11 UNK        -0.5000 
     69 N          -1.8897  -22.5016  -48.1357 N.am      12 UNK        -0.5000 
     70 CA         -3.0546  -23.2994  -48.5198 C.3       12 UNK         0.1400 
     71 CB         -4.3419  -22.5678  -48.1126 C.3       12 UNK        -0.1800 
     72 C          -3.0267  -24.7212  -47.9304 C.2       12 UNK         0.5000 
     73 O          -3.3679  -25.6727  -48.6312 O.2       12 UNK        -0.5000 
     74 N          -2.5869  -24.8540  -46.6706 N.am      13 UNK        -0.5000 
     75 CA         -2.3912  -26.1405  -46.0000 C.3       13 UNK         0.1400 
     76 CB         -2.1125  -25.9159  -44.5066 C.3       13 UNK        -0.1800 
     77 C          -1.2756  -26.9826  -46.6468 C.2       13 UNK         0.5000 
     78 O          -1.4545  -28.1885  -46.8170 O.2       13 UNK        -0.5000 
     79 N          -0.1659  -26.3326  -47.0267 N.am      14 UNK        -0.5000 
     80 CA          0.9568  -26.9459  -47.7395 C.3       14 UNK         0.1400 
     81 CB          2.1484  -25.9763  -47.7567 C.3       14 UNK        -0.1800 
     82 C           0.5852  -27.3860  -49.1681 C.2       14 UNK         0.5000 
     83 O           0.9880  -28.4696  -49.5931 O.2       14 UNK        -0.5000 
     84 N          -0.1977  -26.5554  -49.8712 N.am      15 UNK        -0.5000 
     85 CA         -0.7584  -26.8544  -51.1918 C.3       15 UNK         0.1400 
     86 CB         -1.3005  -25.5557  -51.8102 C.3       15 UNK        -0.1800 
     87 C          -1.8675  -27.9254  -51.1533 C.2       15 UNK         0.5000 
     88 O          -2.1136  -28.5755  -52.1698 O.2       15 UNK        -0.5000 
     89 N          -2.5176  -28.0681  -49.9893 N.am      16 UNK        -0.5000 
     90 CA         -3.6801  -28.9095  -49.6929 C.3       16 UNK         0.1400 
     91 CB         -3.3376  -30.4060  -49.8450 C.3       16 UNK        -0.1800 
     92 C          -4.9373  -28.4853  -50.4826 C.2       16 UNK         0.5000 
     93 O          -5.7739  -29.3284  -50.8121 O.2       16 UNK        -0.5000 
     94 N          -5.0488  -27.1828  -50.7686 N.am      17 UNK        -0.5000 
     95 CA         -6.1048  -26.5538  -51.5539 C.3       17 UNK         0.1400 
     96 CB         -5.9900  -26.9659  -53.0355 C.3       17 UNK        -0.1800 
     97 C          -5.9744  -25.0313  -51.4239 C.2       17 UNK         0.5000 
     98 O          -4.8899  -24.5298  -51.1168 O.2       17 UNK        -0.5000 
     99 N          -7.0638  -24.3110  -51.7156 N.am      18 UNK        -0.5000 
    100 CA        -7.1137  -22.8484  -51.7802 C.3       18 UNK         0.1400 
    101 CB        -8.5752  -22.3908  -51.6292 C.3       18 UNK        -0.1800 
    102 C         -6.4587  -22.3239  -53.0759 C.2       18 UNK         0.5000 
    103 O         -7.1403  -21.7699  -53.9417 O.2       18 UNK        -0.5000 
    104 N         -5.1433  -22.5452  -53.1956 N.am      19 UNK        -0.5000 
    105 CA        -4.2909  -22.1303  -54.3086 C.3       19 UNK         0.1400 
    106 CB        -2.8512  -22.5883  -54.0295 C.3       19 UNK        -0.1800 
    107 C         -4.3509  -20.6088  -54.5230 C.2       19 UNK         0.5000 
    108 O         -4.1154  -19.8599  -53.5734 O.2       19 UNK        -0.5000 
    109 N         -4.7234  -20.1917  -55.7417 N.am      20 UNK        -0.5000 
    110 CA        -4.9617  -18.8022  -56.1586 C.3       20 UNK         0.1400 
    111 CB        -3.6316  -18.0218  -56.2135 C.3       20 UNK        -0.1800 
    112 C         -6.0463  -18.0809  -55.3221 C.2       20 UNK         0.5000 
    113 O         -5.9896  -16.8615  -55.1632 O.2       20 UNK        -0.5000 
    114 N         -6.9958  -18.8572  -54.7766 N.am      21 UNK        -0.5000 
    115 CA        -8.0781  -18.4991  -53.8503 C.3       21 UNK         0.1400 
    116 CB        -8.9762  -17.3800  -54.4121 C.3       21 UNK        -0.1800 
    117 C         -7.6118  -18.1848  -52.4135 C.2       21 UNK         0.5000 
    118 O         -8.3746  -18.4285  -51.4777 O.2       21 UNK        -0.5000 
    119 N         -6.3876  -17.6717  -52.2470 N.am      22 UNK        -0.5000 
    120 CA        -5.7417  -17.4284  -50.9489 C.3       22 UNK         0.1400 
    121 C         -5.3126  -18.7178  -50.1935 C.2       22 UNK         0.5000 
    122 N         -4.9519  -19.7976  -50.8750 N.am      22 UNK        -0.7600 
    123 O         -5.3254  -18.7401  -48.9670 O.2       22 UNK        -0.5000 
    124 C124       -4.5866  -16.3900  -51.0343 C.3       23 UNK        -0.0398 
    125 S125       -3.5120  -16.5143  -52.5100 S.3       23 UNK        -0.2404 
    126 C126       -2.2078  -17.6751  -51.9739 C.3       23 UNK        -0.0205 
    127 H127        5.0973  -16.2330  -49.1889 H         1 UNK         0.0600 
    128 H128        5.1979  -17.5308  -47.9948 H         1 UNK         0.0600 
    129 H129        6.5307  -16.3838  -48.1690 H         1 UNK         0.0600 
    130 H130        3.7261  -14.6000  -48.5294 H         1 UNK         0.3000 
    131 H131        3.1797  -14.1685  -45.6672 H         1 UNK         0.0600 
    132 H132        1.1867  -12.9019  -46.4618 H         1 UNK         0.0800 
    133 H133        1.1974  -14.5720  -46.9146 H         1 UNK         0.0800 
    134 H134       -0.7771  -13.9117  -48.2839 H         1 UNK         0.0800 
    135 H135       -0.6715  -13.3041  -49.9132 H         1 UNK         0.0800 
    136 H136       -1.9329  -15.1462  -50.7691 H         1 UNK         0.1150 
    137 H137       -0.0052  -18.9527  -51.1835 H         1 UNK         0.1150 
    138 H138        1.7743  -15.9153  -48.7678 H         1 UNK         0.1150 
    139 H139        2.3805  -19.0938  -50.5043 H         1 UNK         0.0800 
    140 H140        3.0868  -17.8527  -49.5086 H         1 UNK         0.0800 
    141 H141        0.7478  -20.8060  -49.7666 H         1 UNK         0.0800 
    142 H142       -0.3602  -20.0110  -48.6776 H         1 UNK         0.0800 
    143 H143        1.4250  -22.4083  -48.0097 H         1 UNK         0.0600 
    144 H144        0.1405  -20.6897  -46.1656 H         1 UNK         0.3000 
    145 H145       -0.4803  -23.1065  -43.5908 H         1 UNK         0.0600 
    146 H146        0.7923  -21.3859  -42.3017 H         1 UNK         0.0600 
    147 H147        1.8553  -22.4367  -43.2248 H         1 UNK         0.0600 
    148 H148        1.5348  -20.8074  -43.7924 H         1 UNK         0.0600 
    149 H149       -0.9401  -20.2619  -43.9781 H         1 UNK         0.3000 
    150 H150       -4.2600  -20.6201  -45.2155 H         1 UNK         0.0600 
    151 H151       -4.5951  -20.9050  -42.7717 H         1 UNK         0.0600 
    152 H152       -4.7993  -19.2197  -43.2256 H         1 UNK         0.0600 
    153 H153       -3.3154  -19.7474  -42.4324 H         1 UNK         0.0600 
    154 H154       -2.6549  -18.3715  -44.4096 H         1 UNK         0.3000 
    155 H155       -0.9285  -17.9322  -47.4868 H         1 UNK         0.0600 
    156 H156       -2.1032  -15.7448  -47.5295 H         1 UNK         0.0600 
    157 H157       -3.1778  -17.0307  -48.0577 H         1 UNK         0.0600 
    158 H158       -3.3432  -16.3611  -46.4397 H         1 UNK         0.0600 
    159 H159       -1.1399  -16.2198  -45.2520 H         1 UNK         0.3000 
    160 H160        0.8781  -17.8991  -42.9138 H         1 UNK         0.0600 
    161 H161        1.9443  -15.7393  -44.7877 H         1 UNK         0.0600 
    162 H162        2.7544  -17.2544  -44.4196 H         1 UNK         0.0600 
    163 H163        2.5439  -16.0453  -43.1581 H         1 UNK         0.0600 
    164 H164        0.2065  -15.1453  -43.1121 H         1 UNK         0.3000 
    165 H165       -3.1957  -15.2419  -42.3414 H         1 UNK         0.0600 
    166 H166       -2.6834  -14.1074  -40.1958 H         1 UNK         0.0600 
    167 H167       -2.3746  -15.8294  -40.0474 H         1 UNK         0.0600 
    168 H168       -1.0269  -14.7136  -40.2368 H         1 UNK         0.0600 
    169 H169       -1.4149  -13.0879  -42.0849 H         1 UNK         0.3000 
    170 H170       -0.7469  -12.2749  -45.4192 H         1 UNK         0.0600 
    171 H171       -3.1371  -11.5716  -45.3255 H         1 UNK         0.0600 
    172 H172       -2.9185  -11.0013  -43.6753 H         1 UNK         0.0600 
    173 H173       -2.0626  -10.2203  -45.0059 H         1 UNK         0.0600 
    174 H174       -0.5346  -10.7281  -43.0537 H         1 UNK         0.3000 
    175 H175        1.5362  -10.2731  -42.2626 H         1 UNK         0.0600 
    176 H176        0.5107  -11.8071  -40.5412 H         1 UNK         0.0600 
    177 H177        1.8415  -12.9399  -40.7486 H         1 UNK         0.0600 
    178 H178        2.1350  -11.3404  -40.0692 H         1 UNK         0.0600 
    179 H179        3.3959  -12.2313  -43.2374 H         1 UNK         0.3000 
    180 H180        6.2458  -10.1152  -42.5287 H         1 UNK         0.0600 
    181 H181        5.6295  -13.1286  -42.4529 H         1 UNK         0.0600 
    182 H182        6.2110  -12.1934  -41.0798 H         1 UNK         0.0600 
    183 H183        7.2291  -12.3921  -42.4944 H         1 UNK         0.0600 
    184 H184        4.5470  -11.0885  -44.6009 H         1 UNK         0.3000 
    185 H185        5.5497  -10.2756  -46.8704 H         1 UNK         0.0600 
    186 H186        7.9584  -10.4531  -47.4445 H         1 UNK         0.0600 
    187 H187        7.8846  -12.2075  -47.3177 H         1 UNK         0.0600 
    188 H188        6.9836  -11.3688  -48.5806 H         1 UNK         0.0600 
    189 H189        5.6321  -13.1716  -47.1794 H         1 UNK         0.3000 
    190 H190       -2.0755  -21.6577  -47.5985 H         1 UNK         0.3000 
    191 H191       -3.0427  -23.3884  -49.6073 H         1 UNK         0.0600 
    192 H192       -4.4243  -22.4701  -47.0300 H         1 UNK         0.0600 
    193 H193       -5.2224  -23.1074  -48.4639 H         1 UNK         0.0600 
    194 H194       -4.3808  -21.5658  -48.5387 H         1 UNK         0.0600 
    195 H195       -2.3887  -24.0200  -46.1282 H         1 UNK         0.3000 
    196 H196       -3.3226  -26.7040  -46.0862 H         1 UNK         0.0600 
    197 H197       -2.0013  -26.8666  -43.9839 H         1 UNK         0.0600 
    198 H198       -2.9309  -25.3766  -44.0294 H         1 UNK         0.0600 
    199 H199       -1.1976  -25.3460  -44.3475 H         1 UNK         0.0600 
    200 H200       -0.0726  -25.3477  -46.7948 H         1 UNK         0.3000 
    201 H201        1.2566  -27.8380  -47.1858 H         1 UNK         0.0600 
    202 H202        2.4640  -25.7231  -46.7445 H         1 UNK         0.0600 
    203 H203        1.9059  -25.0469  -48.2723 H         1 UNK         0.0600 
    204 H204        3.0059  -26.4200  -48.2641 H         1 UNK         0.0600 
    205 H205       -0.4191  -25.6438  -49.4791 H         1 UNK         0.3000 
    206 H206        0.0443  -27.2297  -51.8296 H         1 UNK         0.0600 
    207 H207       -0.5156  -24.8056  -51.9075 H         1 UNK         0.0600 
    208 H208       -1.7054  -25.7355  -52.8067 H         1 UNK         0.0600 
    209 H209       -2.0997  -25.1262  -51.2050 H         1 UNK         0.0600 
    210 H210       -2.2715  -27.4206  -49.2507 H         1 UNK         0.3000 
    211 H211       -3.9129  -28.7323  -48.6420 H         1 UNK         0.0600 
    212 H212       -3.1659  -30.6804  -50.8861 H         1 UNK         0.0600 
    213 H213       -4.1492  -31.0319  -49.4726 H         1 UNK         0.0600 
    214 H214       -2.4435  -30.6637  -49.2770 H         1 UNK         0.0600 
    215 H215       -4.3572  -26.5340  -50.4021 H         1 UNK         0.3000 
    216 H216       -7.0737  -26.8594  -51.1544 H         1 UNK         0.0600 
    217 H217       -5.0107  -26.7125  -53.4442 H         1 UNK         0.0600 
    218 H218       -6.7407  -26.4620  -53.6455 H         1 UNK         0.0600 
    219 H219       -6.1392  -28.0371  -53.1688 H         1 UNK         0.0600 
    220 H220       -7.9051  -24.7941  -51.9961 H         1 UNK         0.3000 
    221 H221       -6.5511  -22.4366  -50.9394 H         1 UNK         0.0600 
    222 H222       -8.9959  -22.7238  -50.6803 H         1 UNK         0.0600 
    223 H223       -9.2058  -22.7773  -52.4307 H         1 UNK         0.0600 
    224 H224       -8.6461  -21.3026  -51.6495 H         1 UNK         0.0600 
    225 H225       -4.6921  -23.0594  -52.4462 H         1 UNK         0.3000 
    226 H226       -4.6478  -22.6359  -55.2079 H         1 UNK         0.0600 
    227 H227       -2.7958  -23.6721  -53.9268 H         1 UNK         0.0600 
    228 H228       -2.1850  -22.3035  -54.8447 H         1 UNK         0.0600 
    229 H229       -2.4585  -22.1451  -53.1131 H         1 UNK         0.0600 
    230 H230       -4.9205  -20.8904  -56.4449 H         1 UNK         0.3000 
    231 H231       -5.3551  -18.8511  -57.1748 H         1 UNK         0.0600 
    232 H232       -3.1947  -17.8970  -55.2228 H         1 UNK         0.0600 
    233 H233       -3.7755  -17.0263  -56.6349 H         1 UNK         0.0600 
    234 H234       -2.9004  -18.5339  -56.8387 H         1 UNK         0.0600 
    235 H235       -6.9051  -19.8573  -54.9176 H         1 UNK         0.3000 
    236 H236       -8.6937  -19.3970  -53.7765 H         1 UNK         0.0600 
    237 H237       -9.8589  -17.2439  -53.7861 H         1 UNK         0.0600 
    238 H238       -8.4602  -16.4206  -54.4519 H         1 UNK         0.0600 
    239 H239       -9.3242  -17.6188  -55.4170 H         1 UNK         0.0600 
    240 H240       -5.8233  -17.4836  -53.0662 H         1 UNK         0.3000 
    241 H241       -6.5026  -16.9741  -50.3106 H         1 UNK         0.0600 
    242 H242       -4.6623  -20.6128  -50.3643 H         1 UNK         0.3800 
    243 H243       -4.8180  -19.7545  -51.8837 H         1 UNK         0.3800 
    244 H244       -3.9746  -16.3981  -50.1324 H         1 UNK         0.0800 
    245 H245       -5.0260  -15.3923  -51.0655 H         1 UNK         0.0800 
    246 H246       -1.7401  -18.0685  -52.8777 H         1 UNK         0.0800 
    247 H247       -2.6642  -18.5312  -51.4802 H         1 UNK         0.0800 
@<TRIPOS>BOND
     1    1    2 1    
     2    1  127 1    
     3    1  128 1    
     4    1  129 1    
     5    2    3 2    
     6    2    4 am   BACKBONE|DICT|INTERRES
     7    4    5 1    
     8    4  130 1    
     9    5    6 1    
    10    5   65 1    
    11    5  131 1    
    12    6    7 1    
    13    6  132 1    
    14    6  133 1    
    15    7    8 1    
    16    8    9 1    
    17    8  134 1    
    18    8  135 1    
    19    9   10 ar   
    20    9   14 ar   
    21   10   11 ar   
    22   10  136 1    
    23   11   12 ar   
    24   11  126 1    
    25   12   13 ar   
    26   12  137 1    
    27   13   14 ar   
    28   13   15 1    
    29   14  138 1    
    30   15   16 1    
    31   15  139 1    
    32   15  140 1    
    33   16   17 1    
    34   17   18 1    
    35   17  141 1    
    36   17  142 1    
    37   18   19 1    
    38   18   67 1    
    39   18  143 1    
    40   19   20 am   BACKBONE|DICT|INTERRES
    41   19  144 1    
    42   20   21 2    
    43   20   22 1    
    44   22   23 1    
    45   22   24 1    
    46   22  145 1    
    47   23  146 1    
    48   23  147 1    
    49   23  148 1    
    50   24   25 am   BACKBONE|DICT|INTERRES
    51   24  149 1    
    52   25   26 2    
    53   25   27 1    
    54   27   28 1    
    55   27   29 1    
    56   27  150 1    
    57   28  151 1    
    58   28  152 1    
    59   28  153 1    
    60   29   30 am   BACKBONE|DICT|INTERRES
    61   29  154 1    
    62   30   31 2    
    63   30   32 1    
    64   32   33 1    
    65   32   34 1    
    66   32  155 1    
    67   33  156 1    
    68   33  157 1    
    69   33  158 1    
    70   34   35 am   BACKBONE|DICT|INTERRES
    71   34  159 1    
    72   35   36 2    
    73   35   37 1    
    74   37   38 1    
    75   37   39 1    
    76   37  160 1    
    77   38  161 1    
    78   38  162 1    
    79   38  163 1    
    80   39   40 am   BACKBONE|DICT|INTERRES
    81   39  164 1    
    82   40   41 2    
    83   40   42 1    
    84   42   43 1    
    85   42   44 1    
    86   42  165 1    
    87   43  166 1    
    88   43  167 1    
    89   43  168 1    
    90   44   45 am   BACKBONE|DICT|INTERRES
    91   44  169 1    
    92   45   46 2    
    93   45   47 1    
    94   47   48 1    
    95   47   49 1    
    96   47  170 1    
    97   48  171 1    
    98   48  172 1    
    99   48  173 1    
   100   49   50 am   BACKBONE|DICT|INTERRES
   101   49  174 1    
   102   50   51 2    
   103   50   52 1    
   104   52   53 1    
   105   52   54 1    
   106   52  175 1    
   107   53  176 1    
   108   53  177 1    
   109   53  178 1    
   110   54   55 am   BACKBONE|DICT|INTERRES
   111   54  179 1    
   112   55   56 2    
   113   55   57 1    
   114   57   58 1    
   115   57   59 1    
   116   57  180 1    
   117   58  181 1    
   118   58  182 1    
   119   58  183 1    
   120   59   60 am   BACKBONE|DICT|INTERRES
   121   59  184 1    
   122   60   61 2    
   123   60   62 1    
   124   62   63 1    
   125   62   64 1    
   126   62  185 1    
   127   63  186 1    
   128   63  187 1    
   129   63  188 1    
   130   64   65 am   BACKBONE|DICT|INTERRES
   131   64  189 1    
   132   65   66 2    
   133   67   68 2    
   134   67   69 am   BACKBONE|DICT|INTERRES
   135   69   70 1    
   136   69  190 1    
   137   70   71 1    
   138   70   72 1    
   139   70  191 1    
   140   71  192 1    
   141   71  193 1    
   142   71  194 1    
   143   72   73 2    
   144   72   74 am   BACKBONE|DICT|INTERRES
   145   74   75 1    
   146   74  195 1    
   147   75   76 1    
   148   75   77 1    
   149   75  196 1    
   150   76  197 1    
   151   76  198 1    
   152   76  199 1    
   153   77   78 2    
   154   77   79 am   BACKBONE|DICT|INTERRES
   155   79   80 1    
   156   79  200 1    
   157   80   81 1    
   158   80   82 1    
   159   80  201 1    
   160   81  202 1    
   161   81  203 1    
   162   81  204 1    
   163   82   83 2    
   164   82   84 am   BACKBONE|DICT|INTERRES
   165   84   85 1    
   166   84  205 1    
   167   85   86 1    
   168   85   87 1    
   169   85  206 1    
   170   86  207 1    
   171   86  208 1    
   172   86  209 1    
   173   87   88 2    
   174   87   89 am   BACKBONE|DICT|INTERRES
   175   89   90 1    
   176   89  210 1    
   177   90   91 1    
   178   90   92 1    
   179   90  211 1    
   180   91  212 1    
   181   91  213 1    
   182   91  214 1    
   183   92   93 2    
   184   92   94 am   BACKBONE|DICT|INTERRES
   185   94   95 1    
   186   94  215 1    
   187   95   96 1    
   188   95   97 1    
   189   95  216 1    
   190   96  217 1    
   191   96  218 1    
   192   96  219 1    
   193   97   98 2    
   194   97   99 am   BACKBONE|DICT|INTERRES
   195   99  100 1    
   196   99  220 1    
   197  100  101 1    
   198  100  102 1    
   199  100  221 1    
   200  101  222 1    
   201  101  223 1    
   202  101  224 1    
   203  102  103 2    
   204  102  104 am   BACKBONE|DICT|INTERRES
   205  104  105 1    
   206  104  225 1    
   207  105  106 1    
   208  105  107 1    
   209  105  226 1    
   210  106  227 1    
   211  106  228 1    
   212  106  229 1    
   213  107  108 2    
   214  107  109 am   BACKBONE|DICT|INTERRES
   215  109  110 1    
   216  109  230 1    
   217  110  111 1    
   218  110  112 1    
   219  110  231 1    
   220  111  232 1    
   221  111  233 1    
   222  111  234 1    
   223  112  113 2    
   224  112  114 am   BACKBONE|DICT|INTERRES
   225  114  115 1    
   226  114  235 1    
   227  115  116 1    
   228  115  117 1    
   229  115  236 1    
   230  116  237 1    
   231  116  238 1    
   232  116  239 1    
   233  117  118 2    
   234  117  119 am   BACKBONE|DICT|INTERRES
   235  119  120 1    
   236  119  240 1    
   237  120  121 1    
   238  120  124 1    
   239  120  241 1    
   240  121  122 am   BACKBONE|DICT|INTERRES
   241  121  123 2    
   242  122  242 1    
   243  122  243 1    
   244  124  125 1    
   245  124  244 1    
   246  124  245 1    
   247  125  126 1    
   248  126  246 1    
   249  126  247 1    
@<TRIPOS>SUBSTRUCTURE
     1 UNK         1 GROUP             0       ****    0 ROOT    
