@<TRIPOS>MOLECULE
3R540
247   249    1
SMALL
USER_CHARGES


@<TRIPOS>ATOM
      1 CA          1.2391  -11.5343  -47.7648 C.3       0 UNK        -0.1800 
      2 C           1.9167  -12.7432  -48.3930 C.2       0 UNK         0.5000 
      3 O           3.0532  -13.0604  -48.0407 O.2       0 UNK        -0.5000 
      4 N           1.2142  -13.4304  -49.3051 N.am      1 UNK        -0.5000 
      5 CA          1.6910  -14.5920  -50.0751 C.3       1 UNK         0.1400 
      6 C6          0.6597  -15.0668  -51.1310 C.3       23 UNK        -0.0398 
      7 S7         -0.0033  -13.7507  -52.2163 S.3       23 UNK        -0.2404 
      8 C8         -1.5887  -13.2913  -51.4294 C.3       23 UNK        -0.0205 
      9 C9         -2.5356  -14.4715  -51.2579 C.ar      23 UNK        -0.0193 
     10 C10        -3.2959  -14.9392  -52.3347 C.ar      23 UNK        -0.1150 
     11 C11        -4.1450  -16.0421  -52.1836 C.ar      23 UNK        -0.0193 
     12 C12        -4.2131  -16.6824  -50.9403 C.ar      23 UNK        -0.1150 
     13 C13        -3.4641  -16.2196  -49.8568 C.ar      23 UNK        -0.0193 
     14 C14        -2.6433  -15.1024  -50.0157 C.ar      23 UNK        -0.1150 
     15 C15        -3.5116  -16.9417  -48.5224 C.3       23 UNK        -0.0205 
     16 S16        -2.1212  -18.1015  -48.3877 S.3       23 UNK        -0.2404 
     17 C17        -2.3501  -18.7114  -46.6888 C.3       23 UNK        -0.0398 
     18 CA         -1.6111  -20.0543  -46.4638 C.3       11 UNK         0.1400 
     19 N          -0.9489  -20.1358  -45.1586 N.am      11 UNK        -0.5000 
     20 C          -0.0292  -21.0632  -44.8536 C.2       10 UNK         0.5000 
     21 O           0.3360  -21.9385  -45.6363 O.2       10 UNK        -0.5000 
     22 CA          0.5490  -21.0510  -43.4303 C.3       10 UNK         0.1400 
     23 CB          1.6319  -19.9754  -43.2798 C.3       10 UNK        -0.1800 
     24 N          -0.4657  -20.8726  -42.3952 N.am      10 UNK        -0.5000 
     25 C          -1.4680  -21.7283  -42.1532 C.2       9 UNK         0.5000 
     26 O          -1.6780  -22.7464  -42.8138 O.2       9 UNK        -0.5000 
     27 CA         -2.4035  -21.3685  -40.9889 C.3       9 UNK         0.1400 
     28 CB         -1.7443  -21.6873  -39.6380 C.3       9 UNK        -0.1800 
     29 N          -2.7777  -19.9569  -41.0274 N.am      9 UNK        -0.5000 
     30 C          -3.6965  -19.4468  -41.8580 C.2       8 UNK         0.5000 
     31 O          -4.3616  -20.1220  -42.6439 O.2       8 UNK        -0.5000 
     32 CA         -3.8804  -17.9178  -41.8253 C.3       8 UNK         0.1400 
     33 CB         -4.8463  -17.5115  -40.7021 C.3       8 UNK        -0.1800 
     34 N          -2.6211  -17.1851  -41.6706 N.am      8 UNK        -0.5000 
     35 C          -1.6184  -17.2140  -42.5588 C.2       7 UNK         0.5000 
     36 O          -1.6341  -17.8886  -43.5856 O.2       7 UNK        -0.5000 
     37 CA         -0.3689  -16.3841  -42.2291 C.3       7 UNK         0.1400 
     38 CB         -0.5738  -14.9158  -42.6295 C.3       7 UNK        -0.1800 
     39 N           0.0524  -16.4534  -40.8305 N.am      7 UNK        -0.5000 
     40 C           0.3425  -17.5675  -40.1454 C.2       6 UNK         0.5000 
     41 O           0.1258  -18.7059  -40.5662 O.2       6 UNK        -0.5000 
     42 CA          1.0362  -17.3578  -38.7832 C.3       6 UNK         0.1400 
     43 CB          1.4294  -18.6858  -38.1115 C.3       6 UNK        -0.1800 
     44 N           2.2375  -16.5331  -38.9396 N.am      6 UNK        -0.5000 
     45 C           2.2615  -15.1943  -39.0062 C.2       5 UNK         0.5000 
     46 O           1.2619  -14.4896  -38.8621 O.2       5 UNK        -0.5000 
     47 CA          3.6125  -14.5405  -39.3552 C.3       5 UNK         0.1400 
     48 CB          4.4327  -14.2809  -38.0826 C.3       5 UNK        -0.1800 
     49 N           4.4079  -15.3412  -40.2913 N.am      5 UNK        -0.5000 
     50 C           4.0779  -15.5693  -41.5704 C.2       4 UNK         0.5000 
     51 O           3.0707  -15.1086  -42.1131 O.2       4 UNK        -0.5000 
     52 CA          5.0105  -16.5174  -42.3465 C.3       4 UNK         0.1400 
     53 CB          4.6385  -17.9772  -42.0476 C.3       4 UNK        -0.1800 
     54 N           4.9417  -16.3104  -43.7918 N.am      4 UNK        -0.5000 
     55 C           5.4188  -15.2522  -44.4550 C.2       3 UNK         0.5000 
     56 O           6.0242  -14.3278  -43.9101 O.2       3 UNK        -0.5000 
     57 CA          5.2009  -15.2124  -45.9833 C.3       3 UNK         0.1400 
     58 CB          6.2904  -16.0159  -46.7179 C.3       3 UNK        -0.1800 
     59 N           3.8588  -15.5977  -46.4431 N.am      3 UNK        -0.5000 
     60 C           3.2376  -16.7864  -46.3699 C.2       2 UNK         0.5000 
     61 O           3.7250  -17.7883  -45.8458 O.2       2 UNK        -0.5000 
     62 CA          1.8130  -16.8691  -46.9538 C.3       2 UNK         0.1400 
     63 CB          0.7849  -16.7012  -45.8270 C.3       2 UNK        -0.1800 
     64 N           1.5364  -15.8591  -47.9741 N.am      2 UNK        -0.5000 
     65 C           2.0991  -15.7928  -49.1891 C.2       1 UNK         0.5000 
     66 O           2.9037  -16.6205  -49.6170 O.2       1 UNK        -0.5000 
     67 C          -2.5439  -21.2534  -46.7178 C.2       11 UNK         0.5000 
     68 O          -2.6155  -21.7294  -47.8501 O.2       11 UNK        -0.5000 
     69 N          -3.2131  -21.7428  -45.6633 N.am      12 UNK        -0.5000 
     70 CA         -4.0542  -22.9386  -45.7135 C.3       12 UNK         0.1400 
     71 CB         -4.8676  -23.0633  -44.4166 C.3       12 UNK        -0.1800 
     72 C          -3.2264  -24.2077  -45.9792 C.2       12 UNK         0.5000 
     73 O          -3.5850  -24.9918  -46.8584 O.2       12 UNK        -0.5000 
     74 N          -2.1039  -24.3537  -45.2597 N.am      13 UNK        -0.5000 
     75 CA         -1.1351  -25.4384  -45.4355 C.3       13 UNK         0.1400 
     76 CB         -0.0799  -25.3621  -44.3217 C.3       13 UNK        -0.1800 
     77 C          -0.4649  -25.4298  -46.8236 C.2       13 UNK         0.5000 
     78 O          -0.2469  -26.4948  -47.4015 O.2       13 UNK        -0.5000 
     79 N          -0.1833  -24.2287  -47.3448 N.am      14 UNK        -0.5000 
     80 CA          0.3957  -23.9964  -48.6679 C.3       14 UNK         0.1400 
     81 CB          1.1239  -22.6424  -48.6596 C.3       14 UNK        -0.1800 
     82 C          -0.6275  -24.0540  -49.8212 C.2       14 UNK         0.5000 
     83 O          -0.2291  -23.8398  -50.9648 O.2       14 UNK        -0.5000 
     84 N          -1.9112  -24.3110  -49.5265 N.am      15 UNK        -0.5000 
     85 CA         -3.0314  -24.3981  -50.4717 C.3       15 UNK         0.1400 
     86 CB         -2.8773  -25.6272  -51.3919 C.3       15 UNK        -0.1800 
     87 C          -3.2464  -23.0868  -51.2557 C.2       15 UNK         0.5000 
     88 O          -3.2527  -23.0865  -52.4893 O.2       15 UNK        -0.5000 
     89 N          -3.3942  -21.9856  -50.5065 N.am      16 UNK        -0.5000 
     90 CA         -3.5401  -20.6042  -50.9744 C.3       16 UNK         0.1400 
     91 CB         -4.8138  -20.4377  -51.8282 C.3       16 UNK        -0.1800 
     92 C          -2.2683  -20.1086  -51.6858 C.2       16 UNK         0.5000 
     93 O          -2.3566  -19.4979  -52.7493 O.2       16 UNK        -0.5000 
     94 N          -1.1027  -20.4321  -51.1048 N.am      17 UNK        -0.5000 
     95 CA          0.2386  -20.1635  -51.6389 C.3       17 UNK         0.1400 
     96 CB          0.5408  -18.6514  -51.6044 C.3       17 UNK        -0.1800 
     97 C           0.4437  -20.8020  -53.0315 C.2       17 UNK         0.5000 
     98 O           0.9195  -20.1475  -53.9603 O.2       17 UNK        -0.5000 
     99 N           0.0325  -22.0734  -53.1385 N.am      18 UNK        -0.5000 
    100 CA         0.0165  -22.9430  -54.3172 C.3       18 UNK         0.1400 
    101 CB         1.4429  -23.1615  -54.8627 C.3       18 UNK        -0.1800 
    102 C         -0.9778  -22.5267  -55.4229 C.2       18 UNK         0.5000 
    103 O         -0.9538  -23.1271  -56.4989 O.2       18 UNK        -0.5000 
    104 N         -1.8467  -21.5388  -55.1621 N.am      19 UNK        -0.5000 
    105 CA        -2.8427  -21.0570  -56.1219 C.3       19 UNK         0.1400 
    106 CB        -3.2242  -19.6099  -55.7819 C.3       19 UNK        -0.1800 
    107 C         -4.1029  -21.9407  -56.1960 C.2       19 UNK         0.5000 
    108 O         -4.8555  -21.8006  -57.1593 O.2       19 UNK        -0.5000 
    109 N         -4.3140  -22.8138  -55.1960 N.am      20 UNK        -0.5000 
    110 CA        -5.4488  -23.7289  -55.0302 C.3       20 UNK         0.1400 
    111 CB        -5.5128  -24.7599  -56.1760 C.3       20 UNK        -0.1800 
    112 C         -6.7661  -22.9533  -54.8426 C.2       20 UNK         0.5000 
    113 O         -7.5293  -22.7708  -55.7935 O.2       20 UNK        -0.5000 
    114 N         -6.9687  -22.4547  -53.6135 N.am      21 UNK        -0.5000 
    115 CA        -8.1029  -21.6276  -53.1691 C.3       21 UNK         0.1400 
    116 CB        -9.4106  -22.4467  -53.1807 C.3       21 UNK        -0.1800 
    117 C         -8.2272  -20.2910  -53.9366 C.2       21 UNK         0.5000 
    118 O         -9.3307  -19.7640  -54.0877 O.2       21 UNK        -0.5000 
    119 N         -7.0841  -19.7840  -54.4176 N.am      22 UNK        -0.5000 
    120 CA        -6.9404  -18.6040  -55.2868 C.3       22 UNK         0.1400 
    121 C         -7.5253  -18.7881  -56.7225 C.2       22 UNK         0.5000 
    122 N         -7.8047  -20.0037  -57.1802 N.am      22 UNK        -0.7600 
    123 O         -7.7038  -17.8158  -57.4512 O.2       22 UNK        -0.5000 
    124 C124       -7.3888  -17.2685  -54.6238 C.3       23 UNK        -0.0398 
    125 S125       -6.6745  -16.9633  -52.9695 S.3       23 UNK        -0.2404 
    126 C126       -4.9423  -16.5576  -53.3792 C.3       23 UNK        -0.0205 
    127 H127        1.8238  -10.6351  -47.9584 H         1 UNK         0.0600 
    128 H128        1.1622  -11.6665  -46.6856 H         1 UNK         0.0600 
    129 H129        0.2354  -11.3794  -48.1614 H         1 UNK         0.0600 
    130 H130        0.2944  -13.1022  -49.5572 H         1 UNK         0.3000 
    131 H131        2.5893  -14.2685  -50.6048 H         1 UNK         0.0600 
    132 H132       -0.1569  -15.6095  -50.6587 H         1 UNK         0.0800 
    133 H133        1.1358  -15.7941  -51.7905 H         1 UNK         0.0800 
    134 H134       -2.0729  -12.5307  -52.0436 H         1 UNK         0.0800 
    135 H135       -1.3959  -12.8157  -50.4674 H         1 UNK         0.0800 
    136 H136       -3.2123  -14.4502  -53.2952 H         1 UNK         0.1150 
    137 H137       -4.8477  -17.5461  -50.8121 H         1 UNK         0.1150 
    138 H138       -2.0576  -14.7498  -49.1784 H         1 UNK         0.1150 
    139 H139       -3.4673  -16.2191  -47.7060 H         1 UNK         0.0800 
    140 H140       -4.4530  -17.4824  -48.4132 H         1 UNK         0.0800 
    141 H141       -3.4133  -18.7810  -46.4498 H         1 UNK         0.0800 
    142 H142       -1.9611  -17.9370  -46.0344 H         1 UNK         0.0800 
    143 H143       -0.8071  -20.1267  -47.1997 H         1 UNK         0.0600 
    144 H144       -1.2009  -19.4285  -44.4703 H         1 UNK         0.3000 
    145 H145        1.0190  -22.0225  -43.2639 H         1 UNK         0.0600 
    146 H146        2.1401  -20.0724  -42.3205 H         1 UNK         0.0600 
    147 H147        2.3881  -20.0600  -44.0617 H         1 UNK         0.0600 
    148 H148        1.2118  -18.9723  -43.3327 H         1 UNK         0.0600 
    149 H149       -0.3552  -20.0641  -41.7882 H         1 UNK         0.3000 
    150 H150       -3.3050  -21.9787  -41.0786 H         1 UNK         0.0600 
    151 H151       -1.4658  -22.7402  -39.5798 H         1 UNK         0.0600 
    152 H152       -2.4250  -21.4851  -38.8110 H         1 UNK         0.0600 
    153 H153       -0.8397  -21.0993  -39.4782 H         1 UNK         0.0600 
    154 H154       -2.2277  -19.3238  -40.4641 H         1 UNK         0.3000 
    155 H155       -4.3224  -17.6205  -42.7786 H         1 UNK         0.0600 
    156 H156       -4.4440  -17.7523  -39.7173 H         1 UNK         0.0600 
    157 H157       -5.8012  -18.0293  -40.8024 H         1 UNK         0.0600 
    158 H158       -5.0541  -16.4417  -40.7282 H         1 UNK         0.0600 
    159 H159       -2.5165  -16.6179  -40.8422 H         1 UNK         0.3000 
    160 H160        0.4544  -16.7800  -42.8251 H         1 UNK         0.0600 
    161 H161       -1.3405  -14.4350  -42.0210 H         1 UNK         0.0600 
    162 H162       -0.8812  -14.8332  -43.6729 H         1 UNK         0.0600 
    163 H163        0.3491  -14.3461  -42.5185 H         1 UNK         0.0600 
    164 H164        0.2791  -15.5706  -40.3877 H         1 UNK         0.3000 
    165 H165        0.3267  -16.8476  -38.1286 H         1 UNK         0.0600 
    166 H166        1.8956  -18.5137  -37.1413 H         1 UNK         0.0600 
    167 H167        0.5533  -19.3133  -37.9425 H         1 UNK         0.0600 
    168 H168        2.1291  -19.2561  -38.7239 H         1 UNK         0.0600 
    169 H169        3.0993  -17.0300  -39.1084 H         1 UNK         0.3000 
    170 H170        3.4019  -13.5785  -39.8275 H         1 UNK         0.0600 
    171 H171        3.8722  -13.6677  -37.3757 H         1 UNK         0.0600 
    172 H172        4.6957  -15.2097  -37.5748 H         1 UNK         0.0600 
    173 H173        5.3565  -13.7488  -38.3105 H         1 UNK         0.0600 
    174 H174        5.2511  -15.7565  -39.9215 H         1 UNK         0.3000 
    175 H175        6.0388  -16.3408  -42.0246 H         1 UNK         0.0600 
    176 H176        3.6069  -18.1843  -42.3304 H         1 UNK         0.0600 
    177 H177        5.2816  -18.6706  -42.5900 H         1 UNK         0.0600 
    178 H178        4.7398  -18.2031  -40.9855 H         1 UNK         0.0600 
    179 H179        4.4510  -17.0139  -44.3372 H         1 UNK         0.3000 
    180 H180        5.3140  -14.1688  -46.2817 H         1 UNK         0.0600 
    181 H181        6.2548  -17.0764  -46.4673 H         1 UNK         0.0600 
    182 H182        7.2847  -15.6531  -46.4548 H         1 UNK         0.0600 
    183 H183        6.1857  -15.9231  -47.7990 H         1 UNK         0.0600 
    184 H184        3.3533  -14.8453  -46.8979 H         1 UNK         0.3000 
    185 H185        1.6815  -17.8537  -47.4077 H         1 UNK         0.0600 
    186 H186        0.7819  -17.5736  -45.1747 H         1 UNK         0.0600 
    187 H187        0.9986  -15.8262  -45.2116 H         1 UNK         0.0600 
    188 H188       -0.2217  -16.5830  -46.2229 H         1 UNK         0.0600 
    189 H189        0.8891  -15.1288  -47.7176 H         1 UNK         0.3000 
    190 H190       -3.0901  -21.3101  -44.7584 H         1 UNK         0.3000 
    191 H191       -4.7574  -22.8212  -46.5408 H         1 UNK         0.0600 
    192 H192       -4.2264  -23.1522  -43.5396 H         1 UNK         0.0600 
    193 H193       -5.5112  -23.9434  -44.4432 H         1 UNK         0.0600 
    194 H194       -5.5105  -22.1950  -44.2716 H         1 UNK         0.0600 
    195 H195       -1.8966  -23.6747  -44.5325 H         1 UNK         0.3000 
    196 H196       -1.6717  -26.3837  -45.3326 H         1 UNK         0.0600 
    197 H197        0.6434  -26.1734  -44.4113 H         1 UNK         0.0600 
    198 H198       -0.5403  -25.4430  -43.3368 H         1 UNK         0.0600 
    199 H199        0.4729  -24.4226  -44.3548 H         1 UNK         0.0600 
    200 H200       -0.3239  -23.4051  -46.7670 H         1 UNK         0.3000 
    201 H201        1.1383  -24.7726  -48.8629 H         1 UNK         0.0600 
    202 H202        1.8628  -22.5973  -47.8593 H         1 UNK         0.0600 
    203 H203        0.4296  -21.8133  -48.5217 H         1 UNK         0.0600 
    204 H204        1.6587  -22.4788  -49.5955 H         1 UNK         0.0600 
    205 H205       -2.1548  -24.4390  -48.5524 H         1 UNK         0.3000 
    206 H206       -3.9291  -24.5483  -49.8703 H         1 UNK         0.0600 
    207 H207       -3.7580  -25.7540  -52.0226 H         1 UNK         0.0600 
    208 H208       -2.7599  -26.5415  -50.8103 H         1 UNK         0.0600 
    209 H209       -2.0148  -25.5373  -52.0530 H         1 UNK         0.0600 
    210 H210       -3.2781  -22.0779  -49.4980 H         1 UNK         0.3000 
    211 H211       -3.6595  -19.9871  -50.0839 H         1 UNK         0.0600 
    212 H212       -5.6940  -20.7865  -51.2898 H         1 UNK         0.0600 
    213 H213       -4.7428  -20.9826  -52.7679 H         1 UNK         0.0600 
    214 H214       -4.9824  -19.3935  -52.0847 H         1 UNK         0.0600 
    215 H215       -1.1426  -20.9582  -50.2442 H         1 UNK         0.3000 
    216 H216        0.9464  -20.6526  -50.9700 H         1 UNK         0.0600 
    217 H217        1.5739  -18.4526  -51.8915 H         1 UNK         0.0600 
    218 H218        0.3995  -18.2471  -50.6019 H         1 UNK         0.0600 
    219 H219       -0.1025  -18.0917  -52.2841 H         1 UNK         0.0600 
    220 H220       -0.3000  -22.5339  -52.2940 H         1 UNK         0.3000 
    221 H221       -0.3424  -23.9069  -53.9535 H         1 UNK         0.0600 
    222 H222        1.8478  -22.2563  -55.3155 H         1 UNK         0.0600 
    223 H223        2.1234  -23.4761  -54.0714 H         1 UNK         0.0600 
    224 H224        1.4556  -23.9399  -55.6264 H         1 UNK         0.0600 
    225 H225       -1.8181  -21.0761  -54.2615 H         1 UNK         0.3000 
    226 H226       -2.3901  -21.0503  -57.1157 H         1 UNK         0.0600 
    227 H227       -2.3414  -18.9823  -55.6575 H         1 UNK         0.0600 
    228 H228       -3.8255  -19.1713  -56.5789 H         1 UNK         0.0600 
    229 H229       -3.8071  -19.5582  -54.8632 H         1 UNK         0.0600 
    230 H230       -3.6542  -22.8191  -54.4229 H         1 UNK         0.3000 
    231 H231       -5.2647  -24.2853  -54.1098 H         1 UNK         0.0600 
    232 H232       -4.5769  -25.3123  -56.2591 H         1 UNK         0.0600 
    233 H233       -5.7134  -24.2953  -57.1416 H         1 UNK         0.0600 
    234 H234       -6.3056  -25.4868  -55.9965 H         1 UNK         0.0600 
    235 H235       -6.2721  -22.6479  -52.9077 H         1 UNK         0.3000 
    236 H236       -7.8995  -21.3579  -52.1322 H         1 UNK         0.0600 
    237 H237      -10.2251  -21.8914  -52.7143 H         1 UNK         0.0600 
    238 H238       -9.7244  -22.6951  -54.1949 H         1 UNK         0.0600 
    239 H239       -9.2973  -23.3784  -52.6267 H         1 UNK         0.0600 
    240 H240       -6.2386  -20.3057  -54.2493 H         1 UNK         0.3000 
    241 H241       -5.8701  -18.5127  -55.4585 H         1 UNK         0.0600 
    242 H242       -8.1669  -20.1052  -58.1146 H         1 UNK         0.3800 
    243 H243       -7.6412  -20.8322  -56.6193 H         1 UNK         0.3800 
    244 H244       -7.1310  -16.4210  -55.2609 H         1 UNK         0.0800 
    245 H245       -8.4749  -17.2454  -54.5266 H         1 UNK         0.0800 
    246 H246       -4.9355  -15.8201  -54.1832 H         1 UNK         0.0800 
    247 H247       -4.4439  -17.4476  -53.7642 H         1 UNK         0.0800 
@<TRIPOS>BOND
     1    1    2 1    
     2    1  127 1    
     3    1  128 1    
     4    1  129 1    
     5    2    3 2    
     6    2    4 am   BACKBONE|DICT|INTERRES
     7    4    5 1    
     8    4  130 1    
     9    5    6 1    
    10    5   65 1    
    11    5  131 1    
    12    6    7 1    
    13    6  132 1    
    14    6  133 1    
    15    7    8 1    
    16    8    9 1    
    17    8  134 1    
    18    8  135 1    
    19    9   10 ar   
    20    9   14 ar   
    21   10   11 ar   
    22   10  136 1    
    23   11   12 ar   
    24   11  126 1    
    25   12   13 ar   
    26   12  137 1    
    27   13   14 ar   
    28   13   15 1    
    29   14  138 1    
    30   15   16 1    
    31   15  139 1    
    32   15  140 1    
    33   16   17 1    
    34   17   18 1    
    35   17  141 1    
    36   17  142 1    
    37   18   19 1    
    38   18   67 1    
    39   18  143 1    
    40   19   20 am   BACKBONE|DICT|INTERRES
    41   19  144 1    
    42   20   21 2    
    43   20   22 1    
    44   22   23 1    
    45   22   24 1    
    46   22  145 1    
    47   23  146 1    
    48   23  147 1    
    49   23  148 1    
    50   24   25 am   BACKBONE|DICT|INTERRES
    51   24  149 1    
    52   25   26 2    
    53   25   27 1    
    54   27   28 1    
    55   27   29 1    
    56   27  150 1    
    57   28  151 1    
    58   28  152 1    
    59   28  153 1    
    60   29   30 am   BACKBONE|DICT|INTERRES
    61   29  154 1    
    62   30   31 2    
    63   30   32 1    
    64   32   33 1    
    65   32   34 1    
    66   32  155 1    
    67   33  156 1    
    68   33  157 1    
    69   33  158 1    
    70   34   35 am   BACKBONE|DICT|INTERRES
    71   34  159 1    
    72   35   36 2    
    73   35   37 1    
    74   37   38 1    
    75   37   39 1    
    76   37  160 1    
    77   38  161 1    
    78   38  162 1    
    79   38  163 1    
    80   39   40 am   BACKBONE|DICT|INTERRES
    81   39  164 1    
    82   40   41 2    
    83   40   42 1    
    84   42   43 1    
    85   42   44 1    
    86   42  165 1    
    87   43  166 1    
    88   43  167 1    
    89   43  168 1    
    90   44   45 am   BACKBONE|DICT|INTERRES
    91   44  169 1    
    92   45   46 2    
    93   45   47 1    
    94   47   48 1    
    95   47   49 1    
    96   47  170 1    
    97   48  171 1    
    98   48  172 1    
    99   48  173 1    
   100   49   50 am   BACKBONE|DICT|INTERRES
   101   49  174 1    
   102   50   51 2    
   103   50   52 1    
   104   52   53 1    
   105   52   54 1    
   106   52  175 1    
   107   53  176 1    
   108   53  177 1    
   109   53  178 1    
   110   54   55 am   BACKBONE|DICT|INTERRES
   111   54  179 1    
   112   55   56 2    
   113   55   57 1    
   114   57   58 1    
   115   57   59 1    
   116   57  180 1    
   117   58  181 1    
   118   58  182 1    
   119   58  183 1    
   120   59   60 am   BACKBONE|DICT|INTERRES
   121   59  184 1    
   122   60   61 2    
   123   60   62 1    
   124   62   63 1    
   125   62   64 1    
   126   62  185 1    
   127   63  186 1    
   128   63  187 1    
   129   63  188 1    
   130   64   65 am   BACKBONE|DICT|INTERRES
   131   64  189 1    
   132   65   66 2    
   133   67   68 2    
   134   67   69 am   BACKBONE|DICT|INTERRES
   135   69   70 1    
   136   69  190 1    
   137   70   71 1    
   138   70   72 1    
   139   70  191 1    
   140   71  192 1    
   141   71  193 1    
   142   71  194 1    
   143   72   73 2    
   144   72   74 am   BACKBONE|DICT|INTERRES
   145   74   75 1    
   146   74  195 1    
   147   75   76 1    
   148   75   77 1    
   149   75  196 1    
   150   76  197 1    
   151   76  198 1    
   152   76  199 1    
   153   77   78 2    
   154   77   79 am   BACKBONE|DICT|INTERRES
   155   79   80 1    
   156   79  200 1    
   157   80   81 1    
   158   80   82 1    
   159   80  201 1    
   160   81  202 1    
   161   81  203 1    
   162   81  204 1    
   163   82   83 2    
   164   82   84 am   BACKBONE|DICT|INTERRES
   165   84   85 1    
   166   84  205 1    
   167   85   86 1    
   168   85   87 1    
   169   85  206 1    
   170   86  207 1    
   171   86  208 1    
   172   86  209 1    
   173   87   88 2    
   174   87   89 am   BACKBONE|DICT|INTERRES
   175   89   90 1    
   176   89  210 1    
   177   90   91 1    
   178   90   92 1    
   179   90  211 1    
   180   91  212 1    
   181   91  213 1    
   182   91  214 1    
   183   92   93 2    
   184   92   94 am   BACKBONE|DICT|INTERRES
   185   94   95 1    
   186   94  215 1    
   187   95   96 1    
   188   95   97 1    
   189   95  216 1    
   190   96  217 1    
   191   96  218 1    
   192   96  219 1    
   193   97   98 2    
   194   97   99 am   BACKBONE|DICT|INTERRES
   195   99  100 1    
   196   99  220 1    
   197  100  101 1    
   198  100  102 1    
   199  100  221 1    
   200  101  222 1    
   201  101  223 1    
   202  101  224 1    
   203  102  103 2    
   204  102  104 am   BACKBONE|DICT|INTERRES
   205  104  105 1    
   206  104  225 1    
   207  105  106 1    
   208  105  107 1    
   209  105  226 1    
   210  106  227 1    
   211  106  228 1    
   212  106  229 1    
   213  107  108 2    
   214  107  109 am   BACKBONE|DICT|INTERRES
   215  109  110 1    
   216  109  230 1    
   217  110  111 1    
   218  110  112 1    
   219  110  231 1    
   220  111  232 1    
   221  111  233 1    
   222  111  234 1    
   223  112  113 2    
   224  112  114 am   BACKBONE|DICT|INTERRES
   225  114  115 1    
   226  114  235 1    
   227  115  116 1    
   228  115  117 1    
   229  115  236 1    
   230  116  237 1    
   231  116  238 1    
   232  116  239 1    
   233  117  118 2    
   234  117  119 am   BACKBONE|DICT|INTERRES
   235  119  120 1    
   236  119  240 1    
   237  120  121 1    
   238  120  124 1    
   239  120  241 1    
   240  121  122 am   BACKBONE|DICT|INTERRES
   241  121  123 2    
   242  122  242 1    
   243  122  243 1    
   244  124  125 1    
   245  124  244 1    
   246  124  245 1    
   247  125  126 1    
   248  126  246 1    
   249  126  247 1    
@<TRIPOS>SUBSTRUCTURE
     1 UNK         1 GROUP             0       ****    0 ROOT    
