@<TRIPOS>MOLECULE
3R540
247   249    1
SMALL
USER_CHARGES


@<TRIPOS>ATOM
      1 CA          7.0515  -11.9993  -49.6222 C.3       0 UNK        -0.1800 
      2 C           5.8948  -12.4698  -50.4928 C.2       0 UNK         0.5000 
      3 O           5.5618  -11.8060  -51.4745 O.2       0 UNK        -0.5000 
      4 N           5.2872  -13.6084  -50.1317 N.am      1 UNK        -0.5000 
      5 CA          4.1577  -14.2529  -50.8186 C.3       1 UNK         0.1400 
      6 C6          4.5192  -14.8160  -52.2222 C.3       23 UNK        -0.0398 
      7 S7          5.6999  -16.2044  -52.0990 S.3       23 UNK        -0.2404 
      8 C8          4.5961  -17.6512  -52.2517 C.3       23 UNK        -0.0205 
      9 C9          3.4938  -17.6498  -51.2010 C.ar      23 UNK        -0.0193 
     10 C10         2.1841  -17.3128  -51.5555 C.ar      23 UNK        -0.1150 
     11 C11         1.1732  -17.2626  -50.5912 C.ar      23 UNK        -0.0193 
     12 C12         1.4874  -17.5430  -49.2576 C.ar      23 UNK        -0.1150 
     13 C13         2.7929  -17.8843  -48.8891 C.ar      23 UNK        -0.0193 
     14 C14         3.7890  -17.9471  -49.8678 C.ar      23 UNK        -0.1150 
     15 C15         3.1443  -18.1356  -47.4297 C.3       23 UNK        -0.0205 
     16 S16         3.3548  -19.9056  -47.0582 S.3       23 UNK        -0.2404 
     17 C17         1.6268  -20.4760  -47.1061 C.3       23 UNK        -0.0398 
     18 CA          1.4778  -21.9717  -46.7410 C.3       11 UNK         0.1400 
     19 N           1.9582  -22.2700  -45.3902 N.am      11 UNK        -0.5000 
     20 C           2.2396  -23.4990  -44.9365 C.2       10 UNK         0.5000 
     21 O           2.1233  -24.5226  -45.6113 O.2       10 UNK        -0.5000 
     22 CA          2.7097  -23.5979  -43.4733 C.3       10 UNK         0.1400 
     23 CB          4.2372  -23.4627  -43.3875 C.3       10 UNK        -0.1800 
     24 N           2.0910  -22.5890  -42.6118 N.am      10 UNK        -0.5000 
     25 C           0.7912  -22.5397  -42.2986 C.2       9 UNK         0.5000 
     26 O          -0.0317  -23.3678  -42.6875 O.2       9 UNK        -0.5000 
     27 CA          0.3172  -21.3524  -41.4443 C.3       9 UNK         0.1400 
     28 CB          0.6043  -21.5790  -39.9487 C.3       9 UNK        -0.1800 
     29 N           0.8139  -20.0500  -41.9003 N.am      9 UNK        -0.5000 
     30 C           2.0521  -19.5360  -41.8671 C.2       8 UNK         0.5000 
     31 O           3.0471  -20.1536  -41.4866 O.2       8 UNK        -0.5000 
     32 CA          2.1960  -18.0764  -42.3442 C.3       8 UNK         0.1400 
     33 CB          2.5066  -18.0303  -43.8466 C.3       8 UNK        -0.1800 
     34 N           0.9956  -17.2801  -42.0758 N.am      8 UNK        -0.5000 
     35 C           0.5751  -16.9324  -40.8498 C.2       7 UNK         0.5000 
     36 O           1.2200  -17.1328  -39.8200 O.2       7 UNK        -0.5000 
     37 CA         -0.8201  -16.2918  -40.7576 C.3       7 UNK         0.1400 
     38 CB         -0.7406  -14.7705  -40.9574 C.3       7 UNK        -0.1800 
     39 N          -1.7426  -16.8767  -41.7338 N.am      7 UNK        -0.5000 
     40 C          -2.3398  -18.0691  -41.5818 C.2       6 UNK         0.5000 
     41 O          -2.2145  -18.7717  -40.5792 O.2       6 UNK        -0.5000 
     42 CA         -3.2100  -18.5768  -42.7478 C.3       6 UNK         0.1400 
     43 CB         -4.6676  -18.1300  -42.5587 C.3       6 UNK        -0.1800 
     44 N          -2.7360  -18.1259  -44.0566 N.am      6 UNK        -0.5000 
     45 C          -1.6039  -18.5336  -44.6476 C.2       5 UNK         0.5000 
     46 O          -0.8612  -19.3978  -44.1842 O.2       5 UNK        -0.5000 
     47 CA         -1.2149  -17.8250  -45.9589 C.3       5 UNK         0.1400 
     48 CB         -1.7387  -18.6104  -47.1678 C.3       5 UNK        -0.1800 
     49 N          -1.7058  -16.4488  -46.0427 N.am      5 UNK        -0.5000 
     50 C          -1.3708  -15.4461  -45.2228 C.2       4 UNK         0.5000 
     51 O          -0.5935  -15.5903  -44.2769 O.2       4 UNK        -0.5000 
     52 CA         -2.0494  -14.0803  -45.4854 C.3       4 UNK         0.1400 
     53 CB         -1.5110  -12.9704  -44.5654 C.3       4 UNK        -0.1800 
     54 N          -1.9389  -13.6266  -46.8745 N.am      4 UNK        -0.5000 
     55 C          -2.5626  -14.1421  -47.9432 C.2       3 UNK         0.5000 
     56 O          -3.3450  -15.0910  -47.8771 O.2       3 UNK        -0.5000 
     57 CA         -2.2574  -13.5139  -49.3195 C.3       3 UNK         0.1400 
     58 CB         -3.4514  -12.6736  -49.7973 C.3       3 UNK        -0.1800 
     59 N          -1.0430  -12.6892  -49.3735 N.am      3 UNK        -0.5000 
     60 C           0.2039  -13.1356  -49.1716 C.2       2 UNK         0.5000 
     61 O           0.4686  -14.2883  -48.8260 O.2       2 UNK        -0.5000 
     62 CA          1.3388  -12.1073  -49.3415 C.3       2 UNK         0.1400 
     63 CB          1.5120  -11.2824  -48.0564 C.3       2 UNK        -0.1800 
     64 N           2.6043  -12.7727  -49.6467 N.am      2 UNK        -0.5000 
     65 C           2.8843  -13.3779  -50.8093 C.2       1 UNK         0.5000 
     66 O           2.1808  -13.2750  -51.8164 O.2       1 UNK        -0.5000 
     67 C           0.0142  -22.4024  -46.9482 C.2       11 UNK         0.5000 
     68 O          -0.3542  -22.7020  -48.0809 O.2       11 UNK        -0.5000 
     69 N          -0.7962  -22.4058  -45.8772 N.am      12 UNK        -0.5000 
     70 CA         -2.2527  -22.5750  -45.9148 C.3       12 UNK         0.1400 
     71 CB         -2.8209  -22.4934  -44.4918 C.3       12 UNK        -0.1800 
     72 C          -2.7406  -23.8562  -46.6139 C.2       12 UNK         0.5000 
     73 O          -3.7507  -23.8075  -47.3177 O.2       12 UNK        -0.5000 
     74 N          -2.0059  -24.9609  -46.4301 N.am      13 UNK        -0.5000 
     75 CA         -2.2833  -26.2525  -47.0578 C.3       13 UNK         0.1400 
     76 CB         -1.4285  -27.3401  -46.3892 C.3       13 UNK        -0.1800 
     77 C          -2.0502  -26.2239  -48.5788 C.2       13 UNK         0.5000 
     78 O          -2.9282  -26.6342  -49.3387 O.2       13 UNK        -0.5000 
     79 N          -0.8882  -25.6997  -48.9943 N.am      14 UNK        -0.5000 
     80 CA         -0.4997  -25.5314  -50.3985 C.3       14 UNK         0.1400 
     81 CB          0.9858  -25.1457  -50.4670 C.3       14 UNK        -0.1800 
     82 C          -1.3648  -24.4874  -51.1285 C.2       14 UNK         0.5000 
     83 O          -1.6601  -24.6476  -52.3123 O.2       14 UNK        -0.5000 
     84 N          -1.7845  -23.4590  -50.3842 N.am      15 UNK        -0.5000 
     85 CA         -2.6808  -22.3888  -50.8052 C.3       15 UNK         0.1400 
     86 CB         -2.5121  -21.2217  -49.8291 C.3       15 UNK        -0.1800 
     87 C          -4.1639  -22.8017  -50.9000 C.2       15 UNK         0.5000 
     88 O          -4.9780  -21.9543  -51.2647 O.2       15 UNK        -0.5000 
     89 N          -4.4857  -24.0678  -50.5925 N.am      16 UNK        -0.5000 
     90 CA         -5.8090  -24.6937  -50.6623 C.3       16 UNK         0.1400 
     91 CB         -6.3373  -24.7141  -52.1127 C.3       16 UNK        -0.1800 
     92 C          -6.7993  -24.0706  -49.6604 C.2       16 UNK         0.5000 
     93 O          -7.8248  -23.5157  -50.0574 O.2       16 UNK        -0.5000 
     94 N          -6.4496  -24.1838  -48.3714 N.am      17 UNK        -0.5000 
     95 CA         -7.1449  -23.6285  -47.2045 C.3       17 UNK         0.1400 
     96 CB         -8.5978  -24.1395  -47.0945 C.3       17 UNK        -0.1800 
     97 C          -7.0139  -22.0941  -47.1349 C.2       17 UNK         0.5000 
     98 O          -7.9768  -21.4022  -46.7999 O.2       17 UNK        -0.5000 
     99 N          -5.7910  -21.6260  -47.4225 N.am      18 UNK        -0.5000 
    100 CA        -5.3017  -20.2462  -47.4420 C.3       18 UNK         0.1400 
    101 CB        -5.5022  -19.5474  -46.0838 C.3       18 UNK        -0.1800 
    102 C         -5.8390  -19.3915  -48.6069 C.2       18 UNK         0.5000 
    103 O         -7.0217  -19.4515  -48.9442 O.2       18 UNK        -0.5000 
    104 N         -4.9352  -18.5802  -49.1777 N.am      19 UNK        -0.5000 
    105 CA        -5.1058  -17.5609  -50.2237 C.3       19 UNK         0.1400 
    106 CB        -6.0437  -16.4378  -49.7429 C.3       19 UNK        -0.1800 
    107 C         -5.5456  -18.0681  -51.6129 C.2       19 UNK         0.5000 
    108 O         -5.0480  -17.5557  -52.6158 O.2       19 UNK        -0.5000 
    109 N         -6.4777  -19.0265  -51.6521 N.am      20 UNK        -0.5000 
    110 CA        -7.2231  -19.4821  -52.8260 C.3       20 UNK         0.1400 
    111 CB        -8.1626  -20.6266  -52.4150 C.3       20 UNK        -0.1800 
    112 C         -6.3610  -19.8868  -54.0340 C.2       20 UNK         0.5000 
    113 O         -6.6070  -19.3974  -55.1379 O.2       20 UNK        -0.5000 
    114 N         -5.3752  -20.7635  -53.8092 N.am      21 UNK        -0.5000 
    115 CA        -4.4898  -21.2605  -54.8627 C.3       21 UNK         0.1400 
    116 CB        -4.1429  -22.7336  -54.5989 C.3       21 UNK        -0.1800 
    117 C         -3.2092  -20.4227  -55.0177 C.2       21 UNK         0.5000 
    118 O         -2.6474  -20.4117  -56.1143 O.2       21 UNK        -0.5000 
    119 N         -2.7509  -19.7605  -53.9440 N.am      22 UNK        -0.5000 
    120 CA        -1.5029  -18.9751  -53.9563 C.3       22 UNK         0.1400 
    121 C         -1.6636  -17.4969  -54.4130 C.2       22 UNK         0.5000 
    122 N         -2.8542  -16.9117  -54.3789 N.am      22 UNK        -0.7600 
    123 O         -0.6888  -16.8754  -54.8265 O.2       22 UNK        -0.5000 
    124 C124       -0.6922  -19.1197  -52.6427 C.3       23 UNK        -0.0398 
    125 S125       -1.3790  -18.2579  -51.1842 S.3       23 UNK        -0.2404 
    126 C126       -0.2409  -16.8485  -50.9840 C.3       23 UNK        -0.0205 
    127 H127        7.2398  -12.6815  -48.7929 H         1 UNK         0.0600 
    128 H128        6.8337  -11.0143  -49.2093 H         1 UNK         0.0600 
    129 H129        7.9626  -11.9274  -50.2162 H         1 UNK         0.0600 
    130 H130        5.6278  -14.1013  -49.3182 H         1 UNK         0.3000 
    131 H131        3.8907  -15.1003  -50.1874 H         1 UNK         0.0600 
    132 H132        3.6337  -15.1658  -52.7540 H         1 UNK         0.0800 
    133 H133        4.9519  -14.0388  -52.8528 H         1 UNK         0.0800 
    134 H134        4.1711  -17.6733  -53.2565 H         1 UNK         0.0800 
    135 H135        5.1889  -18.5615  -52.1518 H         1 UNK         0.0800 
    136 H136        1.9537  -17.0679  -52.5829 H         1 UNK         0.1150 
    137 H137        0.7194  -17.4689  -48.5029 H         1 UNK         0.1150 
    138 H138        4.8025  -18.1973  -49.5865 H         1 UNK         0.1150 
    139 H139        4.0739  -17.6168  -47.1918 H         1 UNK         0.0800 
    140 H140        2.3854  -17.7078  -46.7737 H         1 UNK         0.0800 
    141 H141        1.2413  -20.2875  -48.1105 H         1 UNK         0.0800 
    142 H142        1.0399  -19.8594  -46.4250 H         1 UNK         0.0800 
    143 H143        2.0799  -22.5491  -47.4464 H         1 UNK         0.0600 
    144 H144        2.0984  -21.4840  -44.7736 H         1 UNK         0.3000 
    145 H145        2.4288  -24.5844  -43.0987 H         1 UNK         0.0600 
    146 H146        4.5881  -23.6016  -42.3648 H         1 UNK         0.0600 
    147 H147        4.7315  -24.2136  -44.0054 H         1 UNK         0.0600 
    148 H148        4.5742  -22.4825  -43.7274 H         1 UNK         0.0600 
    149 H149        2.6896  -21.8551  -42.2420 H         1 UNK         0.3000 
    150 H150       -0.7667  -21.3007  -41.5608 H         1 UNK         0.0600 
    151 H151        0.1347  -22.4991  -39.5990 H         1 UNK         0.0600 
    152 H152        0.2075  -20.7616  -39.3462 H         1 UNK         0.0600 
    153 H153        1.6719  -21.6606  -39.7431 H         1 UNK         0.0600 
    154 H154        0.1094  -19.4839  -42.3584 H         1 UNK         0.3000 
    155 H155        3.0333  -17.6284  -41.8053 H         1 UNK         0.0600 
    156 H156        1.7087  -18.4815  -44.4353 H         1 UNK         0.0600 
    157 H157        3.4263  -18.5718  -44.0721 H         1 UNK         0.0600 
    158 H158        2.6397  -17.0048  -44.1918 H         1 UNK         0.0600 
    159 H159        0.4279  -17.0165  -42.8714 H         1 UNK         0.3000 
    160 H160       -1.2103  -16.4770  -39.7543 H         1 UNK         0.0600 
    161 H161       -0.2795  -14.5079  -41.9092 H         1 UNK         0.0600 
    162 H162       -0.1422  -14.3094  -40.1708 H         1 UNK         0.0600 
    163 H163       -1.7297  -14.3136  -40.9234 H         1 UNK         0.0600 
    164 H164       -1.8442  -16.3807  -42.6085 H         1 UNK         0.3000 
    165 H165       -3.1828  -19.6677  -42.7293 H         1 UNK         0.0600 
    166 H166       -5.3155  -18.5507  -43.3268 H         1 UNK         0.0600 
    167 H167       -5.0551  -18.4617  -41.5944 H         1 UNK         0.0600 
    168 H168       -4.7647  -17.0442  -42.5949 H         1 UNK         0.0600 
    169 H169       -3.2806  -17.4098  -44.5132 H         1 UNK         0.3000 
    170 H170       -0.1255  -17.7914  -46.0073 H         1 UNK         0.0600 
    171 H171       -1.4010  -19.6466  -47.1504 H         1 UNK         0.0600 
    172 H172       -2.8255  -18.6116  -47.1821 H         1 UNK         0.0600 
    173 H173       -1.4007  -18.1721  -48.1056 H         1 UNK         0.0600 
    174 H174       -2.3513  -16.2274  -46.7970 H         1 UNK         0.3000 
    175 H175       -3.1097  -14.2099  -45.2597 H         1 UNK         0.0600 
    176 H176       -0.4434  -12.8055  -44.7166 H         1 UNK         0.0600 
    177 H177       -2.0254  -12.0256  -44.7422 H         1 UNK         0.0600 
    178 H178       -1.6608  -13.2239  -43.5155 H         1 UNK         0.0600 
    179 H179       -1.2876  -12.8747  -47.0415 H         1 UNK         0.3000 
    180 H180       -2.1273  -14.3389  -50.0221 H         1 UNK         0.0600 
    181 H181       -3.6218  -11.8127  -49.1497 H         1 UNK         0.0600 
    182 H182       -4.3684  -13.2648  -49.8059 H         1 UNK         0.0600 
    183 H183       -3.2960  -12.3069  -50.8122 H         1 UNK         0.0600 
    184 H184       -1.1767  -11.7216  -49.6307 H         1 UNK         0.3000 
    185 H185        1.0879  -11.4351  -50.1648 H         1 UNK         0.0600 
    186 H186        0.5999  -10.7358  -47.8140 H         1 UNK         0.0600 
    187 H187        1.7528  -11.9149  -47.2007 H         1 UNK         0.0600 
    188 H188        2.3095  -10.5469  -48.1647 H         1 UNK         0.0600 
    189 H189        3.2286  -12.9244  -48.8687 H         1 UNK         0.3000 
    190 H190       -0.3988  -22.1829  -44.9758 H         1 UNK         0.3000 
    191 H191       -2.6503  -21.7289  -46.4743 H         1 UNK         0.0600 
    192 H192       -2.5182  -21.5721  -43.9967 H         1 UNK         0.0600 
    193 H193       -3.9116  -22.5127  -44.5050 H         1 UNK         0.0600 
    194 H194       -2.4850  -23.3285  -43.8763 H         1 UNK         0.0600 
    195 H195       -1.1852  -24.8991  -45.8447 H         1 UNK         0.3000 
    196 H196       -3.3344  -26.4951  -46.8865 H         1 UNK         0.0600 
    197 H197       -1.6165  -28.3160  -46.8388 H         1 UNK         0.0600 
    198 H198       -1.6591  -27.4230  -45.3269 H         1 UNK         0.0600 
    199 H199       -0.3616  -27.1338  -46.4844 H         1 UNK         0.0600 
    200 H200       -0.2495  -25.3337  -48.3033 H         1 UNK         0.3000 
    201 H201       -0.6317  -26.4890  -50.9065 H         1 UNK         0.0600 
    202 H202        1.6135  -25.9105  -50.0094 H         1 UNK         0.0600 
    203 H203        1.1808  -24.2015  -49.9567 H         1 UNK         0.0600 
    204 H204        1.3125  -25.0335  -51.5016 H         1 UNK         0.0600 
    205 H205       -1.4115  -23.3750  -49.4412 H         1 UNK         0.3000 
    206 H206       -2.3711  -22.0501  -51.7952 H         1 UNK         0.0600 
    207 H207       -1.4796  -20.8732  -49.8065 H         1 UNK         0.0600 
    208 H208       -3.1368  -20.3781  -50.1165 H         1 UNK         0.0600 
    209 H209       -2.7820  -21.5179  -48.8186 H         1 UNK         0.0600 
    210 H210       -3.7403  -24.6745  -50.2759 H         1 UNK         0.3000 
    211 H211       -5.6705  -25.7318  -50.3561 H         1 UNK         0.0600 
    212 H212       -6.5373  -23.7119  -52.4919 H         1 UNK         0.0600 
    213 H213       -7.2693  -25.2764  -52.1774 H         1 UNK         0.0600 
    214 H214       -5.6230  -25.1906  -52.7841 H         1 UNK         0.0600 
    215 H215       -5.5393  -24.5804  -48.1667 H         1 UNK         0.3000 
    216 H216       -6.6080  -24.0099  -46.3346 H         1 UNK         0.0600 
    217 H217       -9.0344  -23.8591  -46.1354 H         1 UNK         0.0600 
    218 H218       -8.6409  -25.2263  -47.1647 H         1 UNK         0.0600 
    219 H219       -9.2386  -23.7254  -47.8730 H         1 UNK         0.0600 
    220 H220       -5.1027  -22.3283  -47.6712 H         1 UNK         0.3000 
    221 H221       -4.2294  -20.3457  -47.5861 H         1 UNK         0.0600 
    222 H222       -6.5570  -19.4081  -45.8468 H         1 UNK         0.0600 
    223 H223       -5.0473  -20.1208  -45.2760 H         1 UNK         0.0600 
    224 H224       -5.0423  -18.5589  -46.0806 H         1 UNK         0.0600 
    225 H225       -3.9877  -18.6354  -48.8368 H         1 UNK         0.3000 
    226 H226       -4.1181  -17.1168  -50.3575 H         1 UNK         0.0600 
    227 H227       -5.7097  -16.0231  -48.7922 H         1 UNK         0.0600 
    228 H228       -6.0705  -15.6187  -50.4626 H         1 UNK         0.0600 
    229 H229       -7.0669  -16.7910  -49.6117 H         1 UNK         0.0600 
    230 H230       -6.8019  -19.3765  -50.7533 H         1 UNK         0.3000 
    231 H231       -7.8439  -18.6426  -53.1445 H         1 UNK         0.0600 
    232 H232       -7.6091  -21.4733  -52.0078 H         1 UNK         0.0600 
    233 H233       -8.7396  -20.9887  -53.2667 H         1 UNK         0.0600 
    234 H234       -8.8728  -20.3001  -51.6552 H         1 UNK         0.0600 
    235 H235       -5.2529  -21.1373  -52.8690 H         1 UNK         0.3000 
    236 H236       -5.0133  -21.2273  -55.8207 H         1 UNK         0.0600 
    237 H237       -5.0429  -23.3392  -54.4976 H         1 UNK         0.0600 
    238 H238       -3.5659  -23.1492  -55.4259 H         1 UNK         0.0600 
    239 H239       -3.5461  -22.8593  -53.6979 H         1 UNK         0.0600 
    240 H240       -3.2909  -19.7529  -53.0920 H         1 UNK         0.3000 
    241 H241       -0.8562  -19.4172  -54.7171 H         1 UNK         0.0600 
    242 H242       -3.6519  -17.3633  -53.9413 H         1 UNK         0.3800 
    243 H243       -2.9404  -15.9586  -54.6912 H         1 UNK         0.3800 
    244 H244       -0.6005  -20.1760  -52.3875 H         1 UNK         0.0800 
    245 H245        0.3289  -18.7870  -52.8175 H         1 UNK         0.0800 
    246 H246       -0.6472  -16.1984  -50.2105 H         1 UNK         0.0800 
    247 H247       -0.2276  -16.2561  -51.9002 H         1 UNK         0.0800 
@<TRIPOS>BOND
     1    1    2 1    
     2    1  127 1    
     3    1  128 1    
     4    1  129 1    
     5    2    3 2    
     6    2    4 am   BACKBONE|DICT|INTERRES
     7    4    5 1    
     8    4  130 1    
     9    5    6 1    
    10    5   65 1    
    11    5  131 1    
    12    6    7 1    
    13    6  132 1    
    14    6  133 1    
    15    7    8 1    
    16    8    9 1    
    17    8  134 1    
    18    8  135 1    
    19    9   10 ar   
    20    9   14 ar   
    21   10   11 ar   
    22   10  136 1    
    23   11   12 ar   
    24   11  126 1    
    25   12   13 ar   
    26   12  137 1    
    27   13   14 ar   
    28   13   15 1    
    29   14  138 1    
    30   15   16 1    
    31   15  139 1    
    32   15  140 1    
    33   16   17 1    
    34   17   18 1    
    35   17  141 1    
    36   17  142 1    
    37   18   19 1    
    38   18   67 1    
    39   18  143 1    
    40   19   20 am   BACKBONE|DICT|INTERRES
    41   19  144 1    
    42   20   21 2    
    43   20   22 1    
    44   22   23 1    
    45   22   24 1    
    46   22  145 1    
    47   23  146 1    
    48   23  147 1    
    49   23  148 1    
    50   24   25 am   BACKBONE|DICT|INTERRES
    51   24  149 1    
    52   25   26 2    
    53   25   27 1    
    54   27   28 1    
    55   27   29 1    
    56   27  150 1    
    57   28  151 1    
    58   28  152 1    
    59   28  153 1    
    60   29   30 am   BACKBONE|DICT|INTERRES
    61   29  154 1    
    62   30   31 2    
    63   30   32 1    
    64   32   33 1    
    65   32   34 1    
    66   32  155 1    
    67   33  156 1    
    68   33  157 1    
    69   33  158 1    
    70   34   35 am   BACKBONE|DICT|INTERRES
    71   34  159 1    
    72   35   36 2    
    73   35   37 1    
    74   37   38 1    
    75   37   39 1    
    76   37  160 1    
    77   38  161 1    
    78   38  162 1    
    79   38  163 1    
    80   39   40 am   BACKBONE|DICT|INTERRES
    81   39  164 1    
    82   40   41 2    
    83   40   42 1    
    84   42   43 1    
    85   42   44 1    
    86   42  165 1    
    87   43  166 1    
    88   43  167 1    
    89   43  168 1    
    90   44   45 am   BACKBONE|DICT|INTERRES
    91   44  169 1    
    92   45   46 2    
    93   45   47 1    
    94   47   48 1    
    95   47   49 1    
    96   47  170 1    
    97   48  171 1    
    98   48  172 1    
    99   48  173 1    
   100   49   50 am   BACKBONE|DICT|INTERRES
   101   49  174 1    
   102   50   51 2    
   103   50   52 1    
   104   52   53 1    
   105   52   54 1    
   106   52  175 1    
   107   53  176 1    
   108   53  177 1    
   109   53  178 1    
   110   54   55 am   BACKBONE|DICT|INTERRES
   111   54  179 1    
   112   55   56 2    
   113   55   57 1    
   114   57   58 1    
   115   57   59 1    
   116   57  180 1    
   117   58  181 1    
   118   58  182 1    
   119   58  183 1    
   120   59   60 am   BACKBONE|DICT|INTERRES
   121   59  184 1    
   122   60   61 2    
   123   60   62 1    
   124   62   63 1    
   125   62   64 1    
   126   62  185 1    
   127   63  186 1    
   128   63  187 1    
   129   63  188 1    
   130   64   65 am   BACKBONE|DICT|INTERRES
   131   64  189 1    
   132   65   66 2    
   133   67   68 2    
   134   67   69 am   BACKBONE|DICT|INTERRES
   135   69   70 1    
   136   69  190 1    
   137   70   71 1    
   138   70   72 1    
   139   70  191 1    
   140   71  192 1    
   141   71  193 1    
   142   71  194 1    
   143   72   73 2    
   144   72   74 am   BACKBONE|DICT|INTERRES
   145   74   75 1    
   146   74  195 1    
   147   75   76 1    
   148   75   77 1    
   149   75  196 1    
   150   76  197 1    
   151   76  198 1    
   152   76  199 1    
   153   77   78 2    
   154   77   79 am   BACKBONE|DICT|INTERRES
   155   79   80 1    
   156   79  200 1    
   157   80   81 1    
   158   80   82 1    
   159   80  201 1    
   160   81  202 1    
   161   81  203 1    
   162   81  204 1    
   163   82   83 2    
   164   82   84 am   BACKBONE|DICT|INTERRES
   165   84   85 1    
   166   84  205 1    
   167   85   86 1    
   168   85   87 1    
   169   85  206 1    
   170   86  207 1    
   171   86  208 1    
   172   86  209 1    
   173   87   88 2    
   174   87   89 am   BACKBONE|DICT|INTERRES
   175   89   90 1    
   176   89  210 1    
   177   90   91 1    
   178   90   92 1    
   179   90  211 1    
   180   91  212 1    
   181   91  213 1    
   182   91  214 1    
   183   92   93 2    
   184   92   94 am   BACKBONE|DICT|INTERRES
   185   94   95 1    
   186   94  215 1    
   187   95   96 1    
   188   95   97 1    
   189   95  216 1    
   190   96  217 1    
   191   96  218 1    
   192   96  219 1    
   193   97   98 2    
   194   97   99 am   BACKBONE|DICT|INTERRES
   195   99  100 1    
   196   99  220 1    
   197  100  101 1    
   198  100  102 1    
   199  100  221 1    
   200  101  222 1    
   201  101  223 1    
   202  101  224 1    
   203  102  103 2    
   204  102  104 am   BACKBONE|DICT|INTERRES
   205  104  105 1    
   206  104  225 1    
   207  105  106 1    
   208  105  107 1    
   209  105  226 1    
   210  106  227 1    
   211  106  228 1    
   212  106  229 1    
   213  107  108 2    
   214  107  109 am   BACKBONE|DICT|INTERRES
   215  109  110 1    
   216  109  230 1    
   217  110  111 1    
   218  110  112 1    
   219  110  231 1    
   220  111  232 1    
   221  111  233 1    
   222  111  234 1    
   223  112  113 2    
   224  112  114 am   BACKBONE|DICT|INTERRES
   225  114  115 1    
   226  114  235 1    
   227  115  116 1    
   228  115  117 1    
   229  115  236 1    
   230  116  237 1    
   231  116  238 1    
   232  116  239 1    
   233  117  118 2    
   234  117  119 am   BACKBONE|DICT|INTERRES
   235  119  120 1    
   236  119  240 1    
   237  120  121 1    
   238  120  124 1    
   239  120  241 1    
   240  121  122 am   BACKBONE|DICT|INTERRES
   241  121  123 2    
   242  122  242 1    
   243  122  243 1    
   244  124  125 1    
   245  124  244 1    
   246  124  245 1    
   247  125  126 1    
   248  126  246 1    
   249  126  247 1    
@<TRIPOS>SUBSTRUCTURE
     1 UNK         1 GROUP             0       ****    0 ROOT    
