@<TRIPOS>MOLECULE
3R540
247   249    1
SMALL
USER_CHARGES


@<TRIPOS>ATOM
      1 CA         -1.5599  -14.9474  -47.5648 C.3       0 UNK        -0.1800 
      2 C          -0.4447  -14.1645  -48.2372 C.2       0 UNK         0.5000 
      3 O          -0.5506  -12.9479  -48.3820 O.2       0 UNK        -0.5000 
      4 N           0.6090  -14.8710  -48.6667 N.am      1 UNK        -0.5000 
      5 CA          1.7129  -14.3348  -49.4685 C.3       1 UNK         0.1400 
      6 C6          2.5633  -15.4723  -50.0958 C.3       23 UNK        -0.0398 
      7 S7          3.1096  -15.0824  -51.7895 S.3       23 UNK        -0.2404 
      8 C8          4.0570  -16.5800  -52.2156 C.3       23 UNK        -0.0205 
      9 C9          3.2057  -17.8426  -52.1779 C.ar      23 UNK        -0.0193 
     10 C10         2.2599  -18.0882  -53.1772 C.ar      23 UNK        -0.1150 
     11 C11         1.4766  -19.2460  -53.1452 C.ar      23 UNK        -0.0193 
     12 C12         1.6491  -20.1669  -52.1056 C.ar      23 UNK        -0.1150 
     13 C13         2.6045  -19.9409  -51.1101 C.ar      23 UNK        -0.0193 
     14 C14         3.3752  -18.7751  -51.1503 C.ar      23 UNK        -0.1150 
     15 C15         2.8395  -20.9635  -50.0078 C.3       23 UNK        -0.0205 
     16 S16         2.0618  -20.4636  -48.4404 S.3       23 UNK        -0.2404 
     17 C17         0.4466  -21.3146  -48.5129 C.3       23 UNK        -0.0398 
     18 CA          0.3642  -22.4671  -47.4889 C.3       11 UNK         0.1400 
     19 N           0.4646  -21.9881  -46.1102 N.am      11 UNK        -0.5000 
     20 C           0.8532  -22.7545  -45.0849 C.2       10 UNK         0.5000 
     21 O           1.1689  -23.9383  -45.2030 O.2       10 UNK        -0.5000 
     22 CA          0.8519  -22.1002  -43.6924 C.3       10 UNK         0.1400 
     23 CB          2.0914  -21.2123  -43.5107 C.3       10 UNK        -0.1800 
     24 N          -0.3611  -21.3213  -43.4312 N.am      10 UNK        -0.5000 
     25 C          -1.5947  -21.8451  -43.3777 C.2       9 UNK         0.5000 
     26 O          -1.8340  -23.0422  -43.5418 O.2       9 UNK        -0.5000 
     27 CA         -2.7600  -20.8695  -43.1287 C.3       9 UNK         0.1400 
     28 CB         -2.8548  -20.5038  -41.6400 C.3       9 UNK        -0.1800 
     29 N          -2.6671  -19.6458  -43.9244 N.am      9 UNK        -0.5000 
     30 C          -2.7108  -19.5957  -45.2639 C.2       8 UNK         0.5000 
     31 O          -2.8450  -20.5787  -45.9893 O.2       8 UNK        -0.5000 
     32 CA         -2.4840  -18.2187  -45.9066 C.3       8 UNK         0.1400 
     33 CB         -3.7226  -17.3212  -45.7558 C.3       8 UNK        -0.1800 
     34 N          -1.3000  -17.5604  -45.3525 N.am      8 UNK        -0.5000 
     35 C          -0.0566  -18.0583  -45.4354 C.2       7 UNK         0.5000 
     36 O           0.2271  -19.0885  -46.0421 O.2       7 UNK        -0.5000 
     37 CA          1.0460  -17.3107  -44.6712 C.3       7 UNK         0.1400 
     38 CB          1.7010  -16.2446  -45.5565 C.3       7 UNK        -0.1800 
     39 N           0.5401  -16.7029  -43.4403 N.am      7 UNK        -0.5000 
     40 C           0.2346  -17.4174  -42.3470 C.2       6 UNK         0.5000 
     41 O           0.3490  -18.6417  -42.2774 O.2       6 UNK        -0.5000 
     42 CA         -0.3350  -16.6432  -41.1478 C.3       6 UNK         0.1400 
     43 CB          0.7814  -15.9161  -40.3838 C.3       6 UNK        -0.1800 
     44 N          -1.3750  -15.6860  -41.5261 N.am      6 UNK        -0.5000 
     45 C          -2.5686  -16.0277  -42.0312 C.2       5 UNK         0.5000 
     46 O          -2.8907  -17.1817  -42.3138 O.2       5 UNK        -0.5000 
     47 CA         -3.5424  -14.8771  -42.3012 C.3       5 UNK         0.1400 
     48 CB         -3.9454  -14.1553  -41.0004 C.3       5 UNK        -0.1800 
     49 N          -2.9247  -13.9588  -43.2498 N.am      5 UNK        -0.5000 
     50 C          -3.5505  -13.0306  -43.9756 C.2       4 UNK         0.5000 
     51 O          -4.7525  -12.7841  -43.8621 O.2       4 UNK        -0.5000 
     52 CA         -2.6973  -12.2649  -45.0165 C.3       4 UNK         0.1400 
     53 CB         -3.3918  -10.9855  -45.5177 C.3       4 UNK        -0.1800 
     54 N          -1.3342  -11.9145  -44.5937 N.am      4 UNK        -0.5000 
     55 C          -0.3049  -12.7475  -44.3986 C.2       3 UNK         0.5000 
     56 O          -0.3971  -13.9784  -44.3879 O.2       3 UNK        -0.5000 
     57 CA          1.0685  -12.1097  -44.1822 C.3       3 UNK         0.1400 
     58 CB          1.5915  -12.3976  -42.7639 C.3       3 UNK        -0.1800 
     59 N           1.9653  -12.6760  -45.1821 N.am      3 UNK        -0.5000 
     60 C           3.1347  -12.1557  -45.5711 C.2       2 UNK         0.5000 
     61 O           3.5980  -11.1075  -45.1202 O.2       2 UNK        -0.5000 
     62 CA          3.9270  -12.9312  -46.6400 C.3       2 UNK         0.1400 
     63 CB          4.9716  -13.8420  -45.9753 C.3       2 UNK        -0.1800 
     64 N           3.0669  -13.7434  -47.5071 N.am      2 UNK        -0.5000 
     65 C           2.5800  -13.3259  -48.6849 C.2       1 UNK         0.5000 
     66 O           2.7816  -12.2032  -49.1505 O.2       1 UNK        -0.5000 
     67 C          -0.8824  -23.3554  -47.6965 C.2       11 UNK         0.5000 
     68 O          -0.8375  -24.2557  -48.5335 O.2       11 UNK        -0.5000 
     69 N          -1.9552  -23.1526  -46.9145 N.am      12 UNK        -0.5000 
     70 CA         -3.1325  -24.0291  -46.8950 C.3       12 UNK         0.1400 
     71 CB         -4.2862  -23.3799  -46.1175 C.3       12 UNK        -0.1800 
     72 C          -2.8168  -25.4239  -46.3322 C.2       12 UNK         0.5000 
     73 O          -3.3223  -26.4126  -46.8618 O.2       12 UNK        -0.5000 
     74 N          -1.9328  -25.4946  -45.3265 N.am      13 UNK        -0.5000 
     75 CA         -1.3857  -26.7485  -44.7976 C.3       13 UNK         0.1400 
     76 CB         -0.6138  -26.4657  -43.5003 C.3       13 UNK        -0.1800 
     77 C          -0.5028  -27.5004  -45.8184 C.2       13 UNK         0.5000 
     78 O          -0.4030  -28.7253  -45.7464 O.2       13 UNK        -0.5000 
     79 N           0.0787  -26.7625  -46.7747 N.am      14 UNK        -0.5000 
     80 CA          0.8025  -27.2858  -47.9360 C.3       14 UNK         0.1400 
     81 CB          1.9270  -26.3019  -48.3032 C.3       14 UNK        -0.1800 
     82 C          -0.1204  -27.5585  -49.1474 C.2       14 UNK         0.5000 
     83 O           0.3823  -27.9363  -50.2064 O.2       14 UNK        -0.5000 
     84 N          -1.4394  -27.3712  -48.9778 N.am      15 UNK        -0.5000 
     85 CA         -2.5152  -27.5756  -49.9539 C.3       15 UNK         0.1400 
     86 CB         -2.6046  -29.0574  -50.3769 C.3       15 UNK        -0.1800 
     87 C          -2.4718  -26.6020  -51.1516 C.2       15 UNK         0.5000 
     88 O          -2.8778  -26.9714  -52.2552 O.2       15 UNK        -0.5000 
     89 N          -2.0085  -25.3683  -50.9173 N.am      16 UNK        -0.5000 
     90 CA         -1.9073  -24.3077  -51.9177 C.3       16 UNK         0.1400 
     91 CB         -0.5227  -24.3712  -52.5921 C.3       16 UNK        -0.1800 
     92 C          -2.1945  -22.9503  -51.2559 C.2       16 UNK         0.5000 
     93 O          -1.3595  -22.0516  -51.3349 O.2       16 UNK        -0.5000 
     94 N          -3.3537  -22.8548  -50.5819 N.am      17 UNK        -0.5000 
     95 CA         -3.8359  -21.7414  -49.7494 C.3       17 UNK         0.1400 
     96 CB         -5.3266  -21.9654  -49.4462 C.3       17 UNK        -0.1800 
     97 C          -3.6024  -20.3456  -50.3553 C.2       17 UNK         0.5000 
     98 O          -4.3547  -19.9291  -51.2401 O.2       17 UNK        -0.5000 
     99 N          -2.5329  -19.6799  -49.9009 N.am      18 UNK        -0.5000 
    100 CA        -2.0304  -18.4295  -50.4621 C.3       18 UNK         0.1400 
    101 CB        -0.6794  -18.0734  -49.8295 C.3       18 UNK        -0.1800 
    102 C         -3.0324  -17.2766  -50.3226 C.2       18 UNK         0.5000 
    103 O         -3.7003  -17.1698  -49.2925 O.2       18 UNK        -0.5000 
    104 N         -3.1390  -16.4664  -51.3837 N.am      19 UNK        -0.5000 
    105 CA        -4.0857  -15.3637  -51.6064 C.3       19 UNK         0.1400 
    106 CB        -3.9529  -14.2729  -50.5263 C.3       19 UNK        -0.1800 
    107 C         -5.5545  -15.8107  -51.7720 C.2       19 UNK         0.5000 
    108 O         -6.2718  -15.2221  -52.5814 O.2       19 UNK        -0.5000 
    109 N         -5.9733  -16.8416  -51.0278 N.am      20 UNK        -0.5000 
    110 CA        -7.3019  -17.4467  -51.0764 C.3       20 UNK         0.1400 
    111 CB        -7.4664  -18.3930  -49.8772 C.3       20 UNK        -0.1800 
    112 C         -7.5743  -18.1900  -52.3965 C.2       20 UNK         0.5000 
    113 O         -8.6784  -18.0789  -52.9319 O.2       20 UNK        -0.5000 
    114 N         -6.5720  -18.9232  -52.8991 N.am      21 UNK        -0.5000 
    115 CA        -6.6617  -19.6949  -54.1401 C.3       21 UNK         0.1400 
    116 CB        -7.3635  -21.0394  -53.8733 C.3       21 UNK        -0.1800 
    117 C         -5.2914  -19.9267  -54.7956 C.2       21 UNK         0.5000 
    118 O         -5.2085  -19.9403  -56.0239 O.2       21 UNK        -0.5000 
    119 N         -4.2486  -20.1235  -53.9782 N.am      22 UNK        -0.5000 
    120 CA        -2.8764  -20.4823  -54.3775 C.3       22 UNK         0.1400 
    121 C         -2.7215  -21.9011  -55.0112 C.2       22 UNK         0.5000 
    122 N         -3.7061  -22.7861  -54.9071 N.am      22 UNK        -0.7600 
    123 O         -1.6795  -22.2262  -55.5723 O.2       22 UNK        -0.5000 
    124 C124       -2.1542  -19.3533  -55.1810 C.3       23 UNK        -0.0398 
    125 S125       -0.9830  -18.4286  -54.1353 S.3       23 UNK        -0.2404 
    126 C126        0.4701  -19.5183  -54.2521 C.3       23 UNK        -0.0205 
    127 H127       -1.5533  -15.9922  -47.8686 H         1 UNK         0.0600 
    128 H128       -2.5310  -14.5314  -47.8306 H         1 UNK         0.0600 
    129 H129       -1.4573  -14.9106  -46.4839 H         1 UNK         0.0600 
    130 H130        0.6310  -15.8656  -48.5014 H         1 UNK         0.3000 
    131 H131        1.2386  -13.7782  -50.2805 H         1 UNK         0.0600 
    132 H132        3.4284  -15.7333  -49.4832 H         1 UNK         0.0800 
    133 H133        1.9714  -16.3851  -50.1660 H         1 UNK         0.0800 
    134 H134        4.4743  -16.4597  -53.2162 H         1 UNK         0.0800 
    135 H135        4.9093  -16.6680  -51.5399 H         1 UNK         0.0800 
    136 H136        2.1294  -17.3745  -53.9787 H         1 UNK         0.1150 
    137 H137        1.0494  -21.0663  -52.0781 H         1 UNK         0.1150 
    138 H138        4.1117  -18.5981  -50.3790 H         1 UNK         0.1150 
    139 H139        2.4903  -21.9523  -50.3095 H         1 UNK         0.0800 
    140 H140        3.9129  -21.0654  -49.8420 H         1 UNK         0.0800 
    141 H141        0.2935  -21.6847  -49.5248 H         1 UNK         0.0800 
    142 H142       -0.3378  -20.5836  -48.3210 H         1 UNK         0.0800 
    143 H143        1.2242  -23.1138  -47.6766 H         1 UNK         0.0600 
    144 H144        0.2686  -21.0016  -45.9574 H         1 UNK         0.3000 
    145 H145        0.8972  -22.9005  -42.9509 H         1 UNK         0.0600 
    146 H146        2.1331  -20.7918  -42.5059 H         1 UNK         0.0600 
    147 H147        3.0070  -21.7855  -43.6618 H         1 UNK         0.0600 
    148 H148        2.1012  -20.3868  -44.2221 H         1 UNK         0.0600 
    149 H149       -0.2368  -20.3320  -43.2420 H         1 UNK         0.3000 
    150 H150       -3.6839  -21.3779  -43.4110 H         1 UNK         0.0600 
    151 H151       -2.9375  -21.3981  -41.0211 H         1 UNK         0.0600 
    152 H152       -3.7322  -19.8879  -41.4417 H         1 UNK         0.0600 
    153 H153       -1.9772  -19.9498  -41.3045 H         1 UNK         0.0600 
    154 H154       -2.5709  -18.7777  -43.4054 H         1 UNK         0.3000 
    155 H155       -2.3136  -18.3748  -46.9734 H         1 UNK         0.0600 
    156 H156       -3.9614  -17.1197  -44.7126 H         1 UNK         0.0600 
    157 H157       -3.5878  -16.3649  -46.2586 H         1 UNK         0.0600 
    158 H158       -4.5963  -17.7953  -46.2047 H         1 UNK         0.0600 
    159 H159       -1.4491  -16.7297  -44.8007 H         1 UNK         0.3000 
    160 H160        1.8180  -18.0347  -44.4038 H         1 UNK         0.0600 
    161 H161        2.4687  -15.7037  -45.0048 H         1 UNK         0.0600 
    162 H162        0.9717  -15.5247  -45.9209 H         1 UNK         0.0600 
    163 H163        2.1772  -16.7041  -46.4237 H         1 UNK         0.0600 
    164 H164        0.3680  -15.7046  -43.4564 H         1 UNK         0.3000 
    165 H165       -0.7852  -17.3730  -40.4712 H         1 UNK         0.0600 
    166 H166        0.3964  -15.4407  -39.4815 H         1 UNK         0.0600 
    167 H167        1.5604  -16.6142  -40.0745 H         1 UNK         0.0600 
    168 H168        1.2547  -15.1461  -40.9927 H         1 UNK         0.0600 
    169 H169       -1.1905  -14.7144  -41.3249 H         1 UNK         0.3000 
    170 H170       -4.4381  -15.3029  -42.7584 H         1 UNK         0.0600 
    171 H171       -4.7353  -13.4263  -41.1803 H         1 UNK         0.0600 
    172 H172       -3.1043  -13.6273  -40.5501 H         1 UNK         0.0600 
    173 H173       -4.3245  -14.8635  -40.2626 H         1 UNK         0.0600 
    174 H174       -1.9431  -14.1206  -43.4641 H         1 UNK         0.3000 
    175 H175       -2.6084  -12.9308  -45.8745 H         1 UNK         0.0600 
    176 H176       -2.8109  -10.5039  -46.3046 H         1 UNK         0.0600 
    177 H177       -3.5318  -10.2639  -44.7120 H         1 UNK         0.0600 
    178 H178       -4.3739  -11.2059  -45.9383 H         1 UNK         0.0600 
    179 H179       -1.1528  -10.9231  -44.5327 H         1 UNK         0.3000 
    180 H180        0.9946  -11.0303  -44.3307 H         1 UNK         0.0600 
    181 H181        1.7550  -13.4641  -42.6081 H         1 UNK         0.0600 
    182 H182        0.8846  -12.0555  -42.0071 H         1 UNK         0.0600 
    183 H183        2.5365  -11.8868  -42.5791 H         1 UNK         0.0600 
    184 H184        1.6240  -13.5163  -45.6244 H         1 UNK         0.3000 
    185 H185        4.4679  -12.1974  -47.2417 H         1 UNK         0.0600 
    186 H186        4.5115  -14.5896  -45.3297 H         1 UNK         0.0600 
    187 H187        5.5700  -14.3650  -46.7216 H         1 UNK         0.0600 
    188 H188        5.6592  -13.2599  -45.3602 H         1 UNK         0.0600 
    189 H189        2.8665  -14.6823  -47.1994 H         1 UNK         0.3000 
    190 H190       -1.9749  -22.3558  -46.2860 H         1 UNK         0.3000 
    191 H191       -3.4636  -24.1680  -47.9257 H         1 UNK         0.0600 
    192 H192       -4.5947  -22.4404  -46.5740 H         1 UNK         0.0600 
    193 H193       -5.1612  -24.0309  -46.1033 H         1 UNK         0.0600 
    194 H194       -4.0137  -23.1774  -45.0826 H         1 UNK         0.0600 
    195 H195       -1.6038  -24.6336  -44.9022 H         1 UNK         0.3000 
    196 H196       -2.2268  -27.4003  -44.5522 H         1 UNK         0.0600 
    197 H197       -0.2624  -27.3932  -43.0469 H         1 UNK         0.0600 
    198 H198       -1.2450  -25.9632  -42.7670 H         1 UNK         0.0600 
    199 H199        0.2589  -25.8378  -43.6759 H         1 UNK         0.0600 
    200 H200       -0.0513  -25.7606  -46.7477 H         1 UNK         0.3000 
    201 H201        1.2676  -28.2363  -47.6674 H         1 UNK         0.0600 
    202 H202        2.5558  -26.0790  -47.4410 H         1 UNK         0.0600 
    203 H203        1.5349  -25.3600  -48.6850 H         1 UNK         0.0600 
    204 H204        2.5733  -26.7199  -49.0758 H         1 UNK         0.0600 
    205 H205       -1.7558  -27.0467  -48.0721 H         1 UNK         0.3000 
    206 H206       -3.4398  -27.3407  -49.4256 H         1 UNK         0.0600 
    207 H207       -2.6491  -29.7134  -49.5076 H         1 UNK         0.0600 
    208 H208       -3.5034  -29.2425  -50.9663 H         1 UNK         0.0600 
    209 H209       -1.7504  -29.3596  -50.9832 H         1 UNK         0.0600 
    210 H210       -1.6651  -25.1262  -49.9894 H         1 UNK         0.3000 
    211 H211       -2.6708  -24.4435  -52.6861 H         1 UNK         0.0600 
    212 H212        0.2809  -24.2413  -51.8659 H         1 UNK         0.0600 
    213 H213       -0.4168  -23.5911  -53.3469 H         1 UNK         0.0600 
    214 H214       -0.3710  -25.3281  -53.0915 H         1 UNK         0.0600 
    215 H215       -3.9597  -23.6612  -50.6093 H         1 UNK         0.3000 
    216 H216       -3.2980  -21.7818  -48.8033 H         1 UNK         0.0600 
    217 H217       -5.7110  -21.1855  -48.7877 H         1 UNK         0.0600 
    218 H218       -5.4933  -22.9195  -48.9465 H         1 UNK         0.0600 
    219 H219       -5.9296  -21.9558  -50.3554 H         1 UNK         0.0600 
    220 H220       -1.9800  -20.0940  -49.1694 H         1 UNK         0.3000 
    221 H221       -1.8661  -18.6121  -51.5221 H         1 UNK         0.0600 
    222 H222       -0.7347  -18.0182  -48.7429 H         1 UNK         0.0600 
    223 H223        0.0762  -18.8129  -50.0889 H         1 UNK         0.0600 
    224 H224       -0.3225  -17.1131  -50.2010 H         1 UNK         0.0600 
    225 H225       -2.5512  -16.6703  -52.1806 H         1 UNK         0.3000 
    226 H226       -3.7904  -14.9164  -52.5568 H         1 UNK         0.0600 
    227 H227       -2.9193  -13.9428  -50.4218 H         1 UNK         0.0600 
    228 H228       -4.5490  -13.3975  -50.7863 H         1 UNK         0.0600 
    229 H229       -4.2977  -14.6185  -49.5517 H         1 UNK         0.0600 
    230 H230       -5.3146  -17.2288  -50.3592 H         1 UNK         0.3000 
    231 H231       -8.0400  -16.6474  -50.9840 H         1 UNK         0.0600 
    232 H232       -6.7345  -19.2006  -49.9001 H         1 UNK         0.0600 
    233 H233       -8.4578  -18.8477  -49.8707 H         1 UNK         0.0600 
    234 H234       -7.3462  -17.8596  -48.9341 H         1 UNK         0.0600 
    235 H235       -5.7040  -18.9837  -52.3775 H         1 UNK         0.3000 
    236 H236       -7.2573  -19.1307  -54.8612 H         1 UNK         0.0600 
    237 H237       -8.3885  -20.8914  -53.5334 H         1 UNK         0.0600 
    238 H238       -7.4091  -21.6459  -54.7788 H         1 UNK         0.0600 
    239 H239       -6.8403  -21.6192  -53.1118 H         1 UNK         0.0600 
    240 H240       -4.3988  -20.1091  -52.9712 H         1 UNK         0.3000 
    241 H241       -2.3586  -20.6023  -53.4258 H         1 UNK         0.0600 
    242 H242       -4.5736  -22.5423  -54.4594 H         1 UNK         0.3800 
    243 H243       -3.5945  -23.6966  -55.3242 H         1 UNK         0.3800 
    244 H244       -1.6127  -19.7309  -56.0496 H         1 UNK         0.0800 
    245 H245       -2.8679  -18.6377  -55.5894 H         1 UNK         0.0800 
    246 H246        0.9466  -19.3821  -55.2239 H         1 UNK         0.0800 
    247 H247        0.1487  -20.5603  -54.2109 H         1 UNK         0.0800 
@<TRIPOS>BOND
     1    1    2 1    
     2    1  127 1    
     3    1  128 1    
     4    1  129 1    
     5    2    3 2    
     6    2    4 am   BACKBONE|DICT|INTERRES
     7    4    5 1    
     8    4  130 1    
     9    5    6 1    
    10    5   65 1    
    11    5  131 1    
    12    6    7 1    
    13    6  132 1    
    14    6  133 1    
    15    7    8 1    
    16    8    9 1    
    17    8  134 1    
    18    8  135 1    
    19    9   10 ar   
    20    9   14 ar   
    21   10   11 ar   
    22   10  136 1    
    23   11   12 ar   
    24   11  126 1    
    25   12   13 ar   
    26   12  137 1    
    27   13   14 ar   
    28   13   15 1    
    29   14  138 1    
    30   15   16 1    
    31   15  139 1    
    32   15  140 1    
    33   16   17 1    
    34   17   18 1    
    35   17  141 1    
    36   17  142 1    
    37   18   19 1    
    38   18   67 1    
    39   18  143 1    
    40   19   20 am   BACKBONE|DICT|INTERRES
    41   19  144 1    
    42   20   21 2    
    43   20   22 1    
    44   22   23 1    
    45   22   24 1    
    46   22  145 1    
    47   23  146 1    
    48   23  147 1    
    49   23  148 1    
    50   24   25 am   BACKBONE|DICT|INTERRES
    51   24  149 1    
    52   25   26 2    
    53   25   27 1    
    54   27   28 1    
    55   27   29 1    
    56   27  150 1    
    57   28  151 1    
    58   28  152 1    
    59   28  153 1    
    60   29   30 am   BACKBONE|DICT|INTERRES
    61   29  154 1    
    62   30   31 2    
    63   30   32 1    
    64   32   33 1    
    65   32   34 1    
    66   32  155 1    
    67   33  156 1    
    68   33  157 1    
    69   33  158 1    
    70   34   35 am   BACKBONE|DICT|INTERRES
    71   34  159 1    
    72   35   36 2    
    73   35   37 1    
    74   37   38 1    
    75   37   39 1    
    76   37  160 1    
    77   38  161 1    
    78   38  162 1    
    79   38  163 1    
    80   39   40 am   BACKBONE|DICT|INTERRES
    81   39  164 1    
    82   40   41 2    
    83   40   42 1    
    84   42   43 1    
    85   42   44 1    
    86   42  165 1    
    87   43  166 1    
    88   43  167 1    
    89   43  168 1    
    90   44   45 am   BACKBONE|DICT|INTERRES
    91   44  169 1    
    92   45   46 2    
    93   45   47 1    
    94   47   48 1    
    95   47   49 1    
    96   47  170 1    
    97   48  171 1    
    98   48  172 1    
    99   48  173 1    
   100   49   50 am   BACKBONE|DICT|INTERRES
   101   49  174 1    
   102   50   51 2    
   103   50   52 1    
   104   52   53 1    
   105   52   54 1    
   106   52  175 1    
   107   53  176 1    
   108   53  177 1    
   109   53  178 1    
   110   54   55 am   BACKBONE|DICT|INTERRES
   111   54  179 1    
   112   55   56 2    
   113   55   57 1    
   114   57   58 1    
   115   57   59 1    
   116   57  180 1    
   117   58  181 1    
   118   58  182 1    
   119   58  183 1    
   120   59   60 am   BACKBONE|DICT|INTERRES
   121   59  184 1    
   122   60   61 2    
   123   60   62 1    
   124   62   63 1    
   125   62   64 1    
   126   62  185 1    
   127   63  186 1    
   128   63  187 1    
   129   63  188 1    
   130   64   65 am   BACKBONE|DICT|INTERRES
   131   64  189 1    
   132   65   66 2    
   133   67   68 2    
   134   67   69 am   BACKBONE|DICT|INTERRES
   135   69   70 1    
   136   69  190 1    
   137   70   71 1    
   138   70   72 1    
   139   70  191 1    
   140   71  192 1    
   141   71  193 1    
   142   71  194 1    
   143   72   73 2    
   144   72   74 am   BACKBONE|DICT|INTERRES
   145   74   75 1    
   146   74  195 1    
   147   75   76 1    
   148   75   77 1    
   149   75  196 1    
   150   76  197 1    
   151   76  198 1    
   152   76  199 1    
   153   77   78 2    
   154   77   79 am   BACKBONE|DICT|INTERRES
   155   79   80 1    
   156   79  200 1    
   157   80   81 1    
   158   80   82 1    
   159   80  201 1    
   160   81  202 1    
   161   81  203 1    
   162   81  204 1    
   163   82   83 2    
   164   82   84 am   BACKBONE|DICT|INTERRES
   165   84   85 1    
   166   84  205 1    
   167   85   86 1    
   168   85   87 1    
   169   85  206 1    
   170   86  207 1    
   171   86  208 1    
   172   86  209 1    
   173   87   88 2    
   174   87   89 am   BACKBONE|DICT|INTERRES
   175   89   90 1    
   176   89  210 1    
   177   90   91 1    
   178   90   92 1    
   179   90  211 1    
   180   91  212 1    
   181   91  213 1    
   182   91  214 1    
   183   92   93 2    
   184   92   94 am   BACKBONE|DICT|INTERRES
   185   94   95 1    
   186   94  215 1    
   187   95   96 1    
   188   95   97 1    
   189   95  216 1    
   190   96  217 1    
   191   96  218 1    
   192   96  219 1    
   193   97   98 2    
   194   97   99 am   BACKBONE|DICT|INTERRES
   195   99  100 1    
   196   99  220 1    
   197  100  101 1    
   198  100  102 1    
   199  100  221 1    
   200  101  222 1    
   201  101  223 1    
   202  101  224 1    
   203  102  103 2    
   204  102  104 am   BACKBONE|DICT|INTERRES
   205  104  105 1    
   206  104  225 1    
   207  105  106 1    
   208  105  107 1    
   209  105  226 1    
   210  106  227 1    
   211  106  228 1    
   212  106  229 1    
   213  107  108 2    
   214  107  109 am   BACKBONE|DICT|INTERRES
   215  109  110 1    
   216  109  230 1    
   217  110  111 1    
   218  110  112 1    
   219  110  231 1    
   220  111  232 1    
   221  111  233 1    
   222  111  234 1    
   223  112  113 2    
   224  112  114 am   BACKBONE|DICT|INTERRES
   225  114  115 1    
   226  114  235 1    
   227  115  116 1    
   228  115  117 1    
   229  115  236 1    
   230  116  237 1    
   231  116  238 1    
   232  116  239 1    
   233  117  118 2    
   234  117  119 am   BACKBONE|DICT|INTERRES
   235  119  120 1    
   236  119  240 1    
   237  120  121 1    
   238  120  124 1    
   239  120  241 1    
   240  121  122 am   BACKBONE|DICT|INTERRES
   241  121  123 2    
   242  122  242 1    
   243  122  243 1    
   244  124  125 1    
   245  124  244 1    
   246  124  245 1    
   247  125  126 1    
   248  126  246 1    
   249  126  247 1    
@<TRIPOS>SUBSTRUCTURE
     1 UNK         1 GROUP             0       ****    0 ROOT    
