@<TRIPOS>MOLECULE
3R540
247   249    1
SMALL
USER_CHARGES


@<TRIPOS>ATOM
      1 CA         -1.9595   -8.8879  -45.0219 C.3       0 UNK        -0.1800 
      2 C          -1.1851  -10.1841  -45.2069 C.2       0 UNK         0.5000 
      3 O          -0.2013  -10.2103  -45.9453 O.2       0 UNK        -0.5000 
      4 N          -1.6102  -11.2586  -44.5291 N.am      1 UNK        -0.5000 
      5 CA         -1.0046  -12.5945  -44.6099 C.3       1 UNK         0.1400 
      6 C6         -1.8431  -13.6666  -43.8763 C.3       23 UNK        -0.0398 
      7 S7         -3.5070  -13.8781  -44.5949 S.3       23 UNK        -0.2404 
      8 C8         -3.1172  -15.0080  -45.9643 C.3       23 UNK        -0.0205 
      9 C9         -4.3427  -15.7389  -46.4802 C.ar      23 UNK        -0.0193 
     10 C10        -4.9124  -15.3976  -47.7105 C.ar      23 UNK        -0.1150 
     11 C11        -5.9947  -16.1257  -48.2146 C.ar      23 UNK        -0.0193 
     12 C12        -6.5164  -17.1879  -47.4702 C.ar      23 UNK        -0.1150 
     13 C13        -5.9542  -17.5352  -46.2386 C.ar      23 UNK        -0.0193 
     14 C14        -4.8707  -16.8042  -45.7469 C.ar      23 UNK        -0.1150 
     15 C15        -6.5033  -18.7137  -45.4513 C.3       23 UNK        -0.0205 
     16 S16        -5.9611  -20.3014  -46.1556 S.3       23 UNK        -0.2404 
     17 C17        -4.1788  -20.2941  -45.7591 C.3       23 UNK        -0.0398 
     18 CA         -3.4672  -21.5709  -46.2647 C.3       11 UNK         0.1400 
     19 N          -2.0170  -21.3854  -46.4075 N.am      11 UNK        -0.5000 
     20 C          -1.1677  -22.2974  -46.9063 C.2       10 UNK         0.5000 
     21 O          -1.5228  -23.3896  -47.3461 O.2       10 UNK        -0.5000 
     22 CA          0.3315  -21.9683  -46.8492 C.3       10 UNK         0.1400 
     23 CB          0.7449  -21.0485  -48.0082 C.3       10 UNK        -0.1800 
     24 N           0.6878  -21.3710  -45.5627 N.am      10 UNK        -0.5000 
     25 C           0.7347  -22.0570  -44.4102 C.2       9 UNK         0.5000 
     26 O           0.5937  -23.2775  -44.3375 O.2       9 UNK        -0.5000 
     27 CA          0.9278  -21.2412  -43.1185 C.3       9 UNK         0.1400 
     28 CB          2.4207  -21.0801  -42.7968 C.3       9 UNK        -0.1800 
     29 N           0.2938  -19.9231  -43.1920 N.am      9 UNK        -0.5000 
     30 C          -1.0348  -19.7280  -43.1924 C.2       8 UNK         0.5000 
     31 O          -1.8543  -20.6401  -43.0868 O.2       8 UNK        -0.5000 
     32 CA         -1.5405  -18.2866  -43.4102 C.3       8 UNK         0.1400 
     33 CB         -1.7401  -17.5673  -42.0692 C.3       8 UNK        -0.1800 
     34 N          -0.6497  -17.4918  -44.2550 N.am      8 UNK        -0.5000 
     35 C          -0.3577  -17.7757  -45.5315 C.2       7 UNK         0.5000 
     36 O          -0.9096  -18.6794  -46.1589 O.2       7 UNK        -0.5000 
     37 CA          0.7651  -16.9566  -46.2018 C.3       7 UNK         0.1400 
     38 CB          0.1898  -15.9730  -47.2293 C.3       7 UNK        -0.1800 
     39 N           1.6270  -16.2213  -45.2694 N.am      7 UNK        -0.5000 
     40 C           2.4043  -16.7680  -44.3250 C.2       6 UNK         0.5000 
     41 O           2.4350  -17.9765  -44.0862 O.2       6 UNK        -0.5000 
     42 CA          3.2539  -15.7796  -43.5030 C.3       6 UNK         0.1400 
     43 CB          4.2062  -16.4764  -42.5090 C.3       6 UNK        -0.1800 
     44 N           3.9780  -14.8277  -44.3526 N.am      6 UNK        -0.5000 
     45 C           4.9213  -15.1065  -45.2642 C.2       5 UNK         0.5000 
     46 O           5.3241  -16.2425  -45.5214 O.2       5 UNK        -0.5000 
     47 CA          5.5157  -13.8864  -45.9924 C.3       5 UNK         0.1400 
     48 CB          6.5347  -14.2576  -47.0912 C.3       5 UNK        -0.1800 
     49 N           4.4848  -12.9796  -46.5056 N.am      5 UNK        -0.5000 
     50 C           3.5973  -13.2048  -47.4870 C.2       4 UNK         0.5000 
     51 O           3.5109  -14.2747  -48.0902 O.2       4 UNK        -0.5000 
     52 CA          2.6527  -12.0404  -47.8762 C.3       4 UNK         0.1400 
     53 CB          1.2301  -12.5335  -48.1895 C.3       4 UNK        -0.1800 
     54 N           2.5645  -10.9913  -46.8593 N.am      4 UNK        -0.5000 
     55 C           3.4600  -10.0196  -46.6415 C.2       3 UNK         0.5000 
     56 O           4.4532   -9.8342  -47.3441 O.2       3 UNK        -0.5000 
     57 CA          3.2451   -9.1598  -45.3810 C.3       3 UNK         0.1400 
     58 CB          2.4621   -7.8813  -45.7159 C.3       3 UNK        -0.1800 
     59 N           2.5570   -9.8881  -44.3099 N.am      3 UNK        -0.5000 
     60 C           3.0710  -10.9260  -43.6322 C.2       2 UNK         0.5000 
     61 O           4.1989  -11.3813  -43.8240 O.2       2 UNK        -0.5000 
     62 CA          2.1432  -11.6046  -42.6086 C.3       2 UNK         0.1400 
     63 CB          2.0913  -10.8009  -41.3008 C.3       2 UNK        -0.1800 
     64 N           0.7865  -11.7817  -43.1278 N.am      2 UNK        -0.5000 
     65 C           0.4565  -12.6271  -44.1148 C.2       1 UNK         0.5000 
     66 O           1.2555  -13.3964  -44.6503 O.2       1 UNK        -0.5000 
     67 C          -3.8164  -22.8094  -45.4093 C.2       11 UNK         0.5000 
     68 O          -4.6527  -23.6141  -45.8217 O.2       11 UNK        -0.5000 
     69 N          -3.1039  -22.9873  -44.2870 N.am      12 UNK        -0.5000 
     70 CA         -3.1897  -24.1562  -43.4059 C.3       12 UNK         0.1400 
     71 CB         -2.3419  -23.8998  -42.1511 C.3       12 UNK        -0.1800 
     72 C          -2.7792  -25.4868  -44.0747 C.2       12 UNK         0.5000 
     73 O          -3.2241  -26.5450  -43.6301 O.2       12 UNK        -0.5000 
     74 N          -1.9793  -25.4146  -45.1468 N.am      13 UNK        -0.5000 
     75 CA         -1.5785  -26.5349  -45.9990 C.3       13 UNK         0.1400 
     76 CB         -0.0957  -26.3630  -46.3773 C.3       13 UNK        -0.1800 
     77 C          -2.4870  -26.6549  -47.2431 C.2       13 UNK         0.5000 
     78 O          -2.0237  -27.0904  -48.2986 O.2       13 UNK        -0.5000 
     79 N          -3.7591  -26.2475  -47.1101 N.am      14 UNK        -0.5000 
     80 CA         -4.8063  -26.2373  -48.1383 C.3       14 UNK         0.1400 
     81 CB         -5.1791  -27.6754  -48.5562 C.3       14 UNK        -0.1800 
     82 C          -4.4422  -25.3358  -49.3342 C.2       14 UNK         0.5000 
     83 O          -4.5843  -25.7442  -50.4875 O.2       14 UNK        -0.5000 
     84 N          -3.9331  -24.1353  -49.0231 N.am      15 UNK        -0.5000 
     85 CA         -3.3885  -23.1407  -49.9553 C.3       15 UNK         0.1400 
     86 CB         -4.5041  -22.5455  -50.8336 C.3       15 UNK        -0.1800 
     87 C          -2.2041  -23.7077  -50.7628 C.2       15 UNK         0.5000 
     88 O          -2.1670  -23.5794  -51.9867 O.2       15 UNK        -0.5000 
     89 N          -1.2848  -24.3689  -50.0440 N.am      16 UNK        -0.5000 
     90 CA         -0.1370  -25.1336  -50.5418 C.3       16 UNK         0.1400 
     91 CB          0.9334  -24.1820  -51.1146 C.3       16 UNK        -0.1800 
     92 C          -0.5646  -26.2295  -51.5406 C.2       16 UNK         0.5000 
     93 O          -0.0288  -26.3015  -52.6461 O.2       16 UNK        -0.5000 
     94 N          -1.5725  -27.0244  -51.1514 N.am      17 UNK        -0.5000 
     95 CA         -2.2757  -28.0181  -51.9741 C.3       17 UNK         0.1400 
     96 CB         -1.3711  -29.2390  -52.2386 C.3       17 UNK        -0.1800 
     97 C          -2.8601  -27.4019  -53.2670 C.2       17 UNK         0.5000 
     98 O          -2.6914  -27.9512  -54.3570 O.2       17 UNK        -0.5000 
     99 N          -3.5036  -26.2385  -53.1037 N.am      18 UNK        -0.5000 
    100 CA        -4.0952  -25.3607  -54.1178 C.3       18 UNK         0.1400 
    101 CB        -5.2325  -26.0782  -54.8726 C.3       18 UNK        -0.1800 
    102 C         -3.0930  -24.6844  -55.0811 C.2       18 UNK         0.5000 
    103 O         -3.5337  -24.0048  -56.0096 O.2       18 UNK        -0.5000 
    104 N         -1.7783  -24.8299  -54.8565 N.am      19 UNK        -0.5000 
    105 CA        -0.7373  -24.1925  -55.6700 C.3       19 UNK         0.1400 
    106 CB         0.6043  -24.9059  -55.4484 C.3       19 UNK        -0.1800 
    107 C         -0.5908  -22.6836  -55.3924 C.2       19 UNK         0.5000 
    108 O         -0.1107  -21.9569  -56.2632 O.2       19 UNK        -0.5000 
    109 N         -1.0075  -22.2399  -54.2006 N.am      20 UNK        -0.5000 
    110 CA        -0.9775  -20.8524  -53.7433 C.3       20 UNK         0.1400 
    111 CB        -0.0518  -20.7519  -52.5159 C.3       20 UNK        -0.1800 
    112 C         -2.4051  -20.3536  -53.4482 C.2       20 UNK         0.5000 
    113 O         -2.6010  -19.5719  -52.5163 O.2       20 UNK        -0.5000 
    114 N         -3.3848  -20.8253  -54.2346 N.am      21 UNK        -0.5000 
    115 CA        -4.7923  -20.4304  -54.1576 C.3       21 UNK         0.1400 
    116 CB        -5.6128  -21.2930  -55.1281 C.3       21 UNK        -0.1800 
    117 C         -4.9935  -18.9301  -54.4467 C.2       21 UNK         0.5000 
    118 O         -4.4279  -18.4102  -55.4120 O.2       21 UNK        -0.5000 
    119 N         -5.7866  -18.2716  -53.5959 N.am      22 UNK        -0.5000 
    120 CA        -6.0924  -16.8349  -53.6597 C.3       22 UNK         0.1400 
    121 C         -6.9945  -16.4666  -54.8702 C.2       22 UNK         0.5000 
    122 N         -6.7961  -15.2991  -55.4669 N.am      22 UNK        -0.7600 
    123 O         -7.8995  -17.2089  -55.2462 O.2       22 UNK        -0.5000 
    124 C124       -6.7265  -16.3325  -52.3365 C.3       23 UNK        -0.0398 
    125 S125       -5.6678  -16.6647  -50.8880 S.3       23 UNK        -0.2404 
    126 C126       -6.5780  -15.7923  -49.5782 C.3       23 UNK        -0.0205 
    127 H127       -2.3618   -8.5535  -45.9780 H         1 UNK         0.0600 
    128 H128       -1.3004   -8.1097  -44.6373 H         1 UNK         0.0600 
    129 H129       -2.7897   -9.0074  -44.3254 H         1 UNK         0.0600 
    130 H130       -2.4349  -11.1856  -43.9501 H         1 UNK         0.3000 
    131 H131       -0.9735  -12.8627  -45.6674 H         1 UNK         0.0600 
    132 H132       -1.9605  -13.4022  -42.8239 H         1 UNK         0.0800 
    133 H133       -1.3362  -14.6327  -43.8838 H         1 UNK         0.0800 
    134 H134       -2.6382  -14.4467  -46.7678 H         1 UNK         0.0800 
    135 H135       -2.3975  -15.7521  -45.6300 H         1 UNK         0.0800 
    136 H136       -4.4971  -14.5855  -48.2907 H         1 UNK         0.1150 
    137 H137       -7.3446  -17.7629  -47.8606 H         1 UNK         0.1150 
    138 H138       -4.4247  -17.0729  -44.7998 H         1 UNK         0.1150 
    139 H139       -6.2049  -18.6567  -44.4033 H         1 UNK         0.0800 
    140 H140       -7.5936  -18.6770  -45.4608 H         1 UNK         0.0800 
    141 H141       -4.0437  -20.1597  -44.6849 H         1 UNK         0.0800 
    142 H142       -3.7384  -19.4180  -46.2372 H         1 UNK         0.0800 
    143 H143       -3.8390  -21.7676  -47.2708 H         1 UNK         0.0600 
    144 H144       -1.6406  -20.4863  -46.1215 H         1 UNK         0.3000 
    145 H145        0.8817  -22.9056  -46.9576 H         1 UNK         0.0600 
    146 H146        0.2238  -20.0923  -47.9838 H         1 UNK         0.0600 
    147 H147        1.8159  -20.8472  -47.9882 H         1 UNK         0.0600 
    148 H148        0.5195  -21.5127  -48.9690 H         1 UNK         0.0600 
    149 H149        0.7844  -20.3668  -45.5342 H         1 UNK         0.3000 
    150 H150        0.4636  -21.7966  -42.3007 H         1 UNK         0.0600 
    151 H151        2.8955  -22.0525  -42.6600 H         1 UNK         0.0600 
    152 H152        2.5687  -20.5129  -41.8777 H         1 UNK         0.0600 
    153 H153        2.9537  -20.5665  -43.5976 H         1 UNK         0.0600 
    154 H154        0.9156  -19.1333  -43.3317 H         1 UNK         0.3000 
    155 H155       -2.5082  -18.3492  -43.9107 H         1 UNK         0.0600 
    156 H156       -2.4138  -18.1300  -41.4216 H         1 UNK         0.0600 
    157 H157       -2.1800  -16.5801  -42.2132 H         1 UNK         0.0600 
    158 H158       -0.7978  -17.4425  -41.5343 H         1 UNK         0.0600 
    159 H159       -0.1317  -16.7538  -43.8037 H         1 UNK         0.3000 
    160 H160        1.3934  -17.6724  -46.7355 H         1 UNK         0.0600 
    161 H161       -0.3092  -15.1349  -46.7454 H         1 UNK         0.0600 
    162 H162       -0.5327  -16.4583  -47.8872 H         1 UNK         0.0600 
    163 H163        0.9802  -15.5690  -47.8616 H         1 UNK         0.0600 
    164 H164        1.6356  -15.2094  -45.3548 H         1 UNK         0.3000 
    165 H165        2.5488  -15.1901  -42.9155 H         1 UNK         0.0600 
    166 H166        4.9158  -17.1318  -43.0146 H         1 UNK         0.0600 
    167 H167        4.7748  -15.7478  -41.9312 H         1 UNK         0.0600 
    168 H168        3.6481  -17.0885  -41.7995 H         1 UNK         0.0600 
    169 H169        3.6840  -13.8634  -44.2716 H         1 UNK         0.3000 
    170 H170        6.0572  -13.3209  -45.2325 H         1 UNK         0.0600 
    171 H171        6.0899  -14.8785  -47.8692 H         1 UNK         0.0600 
    172 H172        6.9445  -13.3662  -47.5660 H         1 UNK         0.0600 
    173 H173        7.3726  -14.8151  -46.6711 H         1 UNK         0.0600 
    174 H174        4.4449  -12.0804  -46.0447 H         1 UNK         0.3000 
    175 H175        3.0592  -11.6005  -48.7889 H         1 UNK         0.0600 
    176 H176        0.7796  -13.0187  -47.3255 H         1 UNK         0.0600 
    177 H177        0.5819  -11.7077  -48.4834 H         1 UNK         0.0600 
    178 H178        1.2301  -13.2516  -49.0102 H         1 UNK         0.0600 
    179 H179        1.7471  -11.0183  -46.2608 H         1 UNK         0.3000 
    180 H180        4.2298   -8.8681  -45.0099 H         1 UNK         0.0600 
    181 H181        2.9774   -7.2989  -46.4807 H         1 UNK         0.0600 
    182 H182        2.3554   -7.2425  -44.8391 H         1 UNK         0.0600 
    183 H183        1.4636   -8.1042  -46.0928 H         1 UNK         0.0600 
    184 H184        1.6031   -9.6155  -44.1249 H         1 UNK         0.3000 
    185 H185        2.5561  -12.5902  -42.3839 H         1 UNK         0.0600 
    186 H186        1.4947  -11.3147  -40.5468 H         1 UNK         0.0600 
    187 H187        3.0912  -10.6664  -40.8860 H         1 UNK         0.0600 
    188 H188        1.6617   -9.8096  -41.4504 H         1 UNK         0.0600 
    189 H189        0.0683  -11.1834  -42.7461 H         1 UNK         0.3000 
    190 H190       -2.4684  -22.2508  -43.9932 H         1 UNK         0.3000 
    191 H191       -4.2320  -24.2579  -43.0972 H         1 UNK         0.0600 
    192 H192       -1.2877  -23.7734  -42.3982 H         1 UNK         0.0600 
    193 H193       -2.6728  -23.0029  -41.6271 H         1 UNK         0.0600 
    194 H194       -2.4174  -24.7321  -41.4502 H         1 UNK         0.0600 
    195 H195       -1.6879  -24.5005  -45.4690 H         1 UNK         0.3000 
    196 H196       -1.6728  -27.4715  -45.4465 H         1 UNK         0.0600 
    197 H197        0.5274  -26.2620  -45.4885 H         1 UNK         0.0600 
    198 H198        0.0655  -25.4815  -46.9975 H         1 UNK         0.0600 
    199 H199        0.2712  -27.2266  -46.9330 H         1 UNK         0.0600 
    200 H200       -4.0266  -25.8404  -46.2238 H         1 UNK         0.3000 
    201 H201       -5.6870  -25.7889  -47.6762 H         1 UNK         0.0600 
    202 H202       -6.0338  -27.6751  -49.2338 H         1 UNK         0.0600 
    203 H203       -5.4526  -28.2785  -47.6905 H         1 UNK         0.0600 
    204 H204       -4.3582  -28.1776  -49.0685 H         1 UNK         0.0600 
    205 H205       -3.8040  -23.9331  -48.0404 H         1 UNK         0.3000 
    206 H206       -2.9818  -22.3251  -49.3587 H         1 UNK         0.0600 
    207 H207       -5.3210  -22.1575  -50.2252 H         1 UNK         0.0600 
    208 H208       -4.9182  -23.2767  -51.5273 H         1 UNK         0.0600 
    209 H209       -4.1158  -21.7153  -51.4198 H         1 UNK         0.0600 
    210 H210       -1.4155  -24.3799  -49.0371 H         1 UNK         0.3000 
    211 H211        0.2947  -25.6464  -49.6812 H         1 UNK         0.0600 
    212 H212        1.2242  -23.4282  -50.3837 H         1 UNK         0.0600 
    213 H213        1.8342  -24.7307  -51.3911 H         1 UNK         0.0600 
    214 H214        0.5802  -23.6661  -52.0076 H         1 UNK         0.0600 
    215 H215       -1.9190  -26.9154  -50.2010 H         1 UNK         0.3000 
    216 H216       -3.1278  -28.3577  -51.3838 H         1 UNK         0.0600 
    217 H217       -1.9203  -30.0271  -52.7548 H         1 UNK         0.0600 
    218 H218       -0.5109  -28.9804  -52.8569 H         1 UNK         0.0600 
    219 H219       -0.9984  -29.6613  -51.3054 H         1 UNK         0.0600 
    220 H220       -3.6161  -25.9070  -52.1487 H         1 UNK         0.3000 
    221 H221       -4.5477  -24.5431  -53.5561 H         1 UNK         0.0600 
    222 H222       -4.8545  -26.8724  -55.5166 H         1 UNK         0.0600 
    223 H223       -5.9490  -26.5187  -54.1791 H         1 UNK         0.0600 
    224 H224       -5.7836  -25.3815  -55.5054 H         1 UNK         0.0600 
    225 H225       -1.4678  -25.3753  -54.0610 H         1 UNK         0.3000 
    226 H226       -1.0070  -24.3111  -56.7215 H         1 UNK         0.0600 
    227 H227        0.5104  -25.9834  -55.5855 H         1 UNK         0.0600 
    228 H228        1.3535  -24.5503  -56.1567 H         1 UNK         0.0600 
    229 H229        0.9953  -24.7248  -54.4470 H         1 UNK         0.0600 
    230 H230       -1.4192  -22.9003  -53.5426 H         1 UNK         0.3000 
    231 H231       -0.5769  -20.2002  -54.5215 H         1 UNK         0.0600 
    232 H232        0.0602  -19.7168  -52.1913 H         1 UNK         0.0600 
    233 H233        0.9455  -21.1287  -52.7428 H         1 UNK         0.0600 
    234 H234       -0.4404  -21.3209  -51.6709 H         1 UNK         0.0600 
    235 H235       -3.1351  -21.4604  -54.9789 H         1 UNK         0.3000 
    236 H236       -5.1442  -20.6368  -53.1462 H         1 UNK         0.0600 
    237 H237       -5.5494  -22.3494  -54.8667 H         1 UNK         0.0600 
    238 H238       -6.6673  -21.0154  -55.1026 H         1 UNK         0.0600 
    239 H239       -5.2675  -21.1802  -56.1566 H         1 UNK         0.0600 
    240 H240       -6.2142  -18.7734  -52.8322 H         1 UNK         0.3000 
    241 H241       -5.1412  -16.3140  -53.7886 H         1 UNK         0.0600 
    242 H242       -7.3841  -15.0407  -56.2445 H         1 UNK         0.3800 
    243 H243       -6.0644  -14.6703  -55.1726 H         1 UNK         0.3800 
    244 H244       -6.9071  -15.2572  -52.3870 H         1 UNK         0.0800 
    245 H245       -7.6980  -16.8027  -52.1732 H         1 UNK         0.0800 
    246 H246       -7.6320  -16.0726  -49.6139 H         1 UNK         0.0800 
    247 H247       -6.5345  -14.7166  -49.7554 H         1 UNK         0.0800 
@<TRIPOS>BOND
     1    1    2 1    
     2    1  127 1    
     3    1  128 1    
     4    1  129 1    
     5    2    3 2    
     6    2    4 am   BACKBONE|DICT|INTERRES
     7    4    5 1    
     8    4  130 1    
     9    5    6 1    
    10    5   65 1    
    11    5  131 1    
    12    6    7 1    
    13    6  132 1    
    14    6  133 1    
    15    7    8 1    
    16    8    9 1    
    17    8  134 1    
    18    8  135 1    
    19    9   10 ar   
    20    9   14 ar   
    21   10   11 ar   
    22   10  136 1    
    23   11   12 ar   
    24   11  126 1    
    25   12   13 ar   
    26   12  137 1    
    27   13   14 ar   
    28   13   15 1    
    29   14  138 1    
    30   15   16 1    
    31   15  139 1    
    32   15  140 1    
    33   16   17 1    
    34   17   18 1    
    35   17  141 1    
    36   17  142 1    
    37   18   19 1    
    38   18   67 1    
    39   18  143 1    
    40   19   20 am   BACKBONE|DICT|INTERRES
    41   19  144 1    
    42   20   21 2    
    43   20   22 1    
    44   22   23 1    
    45   22   24 1    
    46   22  145 1    
    47   23  146 1    
    48   23  147 1    
    49   23  148 1    
    50   24   25 am   BACKBONE|DICT|INTERRES
    51   24  149 1    
    52   25   26 2    
    53   25   27 1    
    54   27   28 1    
    55   27   29 1    
    56   27  150 1    
    57   28  151 1    
    58   28  152 1    
    59   28  153 1    
    60   29   30 am   BACKBONE|DICT|INTERRES
    61   29  154 1    
    62   30   31 2    
    63   30   32 1    
    64   32   33 1    
    65   32   34 1    
    66   32  155 1    
    67   33  156 1    
    68   33  157 1    
    69   33  158 1    
    70   34   35 am   BACKBONE|DICT|INTERRES
    71   34  159 1    
    72   35   36 2    
    73   35   37 1    
    74   37   38 1    
    75   37   39 1    
    76   37  160 1    
    77   38  161 1    
    78   38  162 1    
    79   38  163 1    
    80   39   40 am   BACKBONE|DICT|INTERRES
    81   39  164 1    
    82   40   41 2    
    83   40   42 1    
    84   42   43 1    
    85   42   44 1    
    86   42  165 1    
    87   43  166 1    
    88   43  167 1    
    89   43  168 1    
    90   44   45 am   BACKBONE|DICT|INTERRES
    91   44  169 1    
    92   45   46 2    
    93   45   47 1    
    94   47   48 1    
    95   47   49 1    
    96   47  170 1    
    97   48  171 1    
    98   48  172 1    
    99   48  173 1    
   100   49   50 am   BACKBONE|DICT|INTERRES
   101   49  174 1    
   102   50   51 2    
   103   50   52 1    
   104   52   53 1    
   105   52   54 1    
   106   52  175 1    
   107   53  176 1    
   108   53  177 1    
   109   53  178 1    
   110   54   55 am   BACKBONE|DICT|INTERRES
   111   54  179 1    
   112   55   56 2    
   113   55   57 1    
   114   57   58 1    
   115   57   59 1    
   116   57  180 1    
   117   58  181 1    
   118   58  182 1    
   119   58  183 1    
   120   59   60 am   BACKBONE|DICT|INTERRES
   121   59  184 1    
   122   60   61 2    
   123   60   62 1    
   124   62   63 1    
   125   62   64 1    
   126   62  185 1    
   127   63  186 1    
   128   63  187 1    
   129   63  188 1    
   130   64   65 am   BACKBONE|DICT|INTERRES
   131   64  189 1    
   132   65   66 2    
   133   67   68 2    
   134   67   69 am   BACKBONE|DICT|INTERRES
   135   69   70 1    
   136   69  190 1    
   137   70   71 1    
   138   70   72 1    
   139   70  191 1    
   140   71  192 1    
   141   71  193 1    
   142   71  194 1    
   143   72   73 2    
   144   72   74 am   BACKBONE|DICT|INTERRES
   145   74   75 1    
   146   74  195 1    
   147   75   76 1    
   148   75   77 1    
   149   75  196 1    
   150   76  197 1    
   151   76  198 1    
   152   76  199 1    
   153   77   78 2    
   154   77   79 am   BACKBONE|DICT|INTERRES
   155   79   80 1    
   156   79  200 1    
   157   80   81 1    
   158   80   82 1    
   159   80  201 1    
   160   81  202 1    
   161   81  203 1    
   162   81  204 1    
   163   82   83 2    
   164   82   84 am   BACKBONE|DICT|INTERRES
   165   84   85 1    
   166   84  205 1    
   167   85   86 1    
   168   85   87 1    
   169   85  206 1    
   170   86  207 1    
   171   86  208 1    
   172   86  209 1    
   173   87   88 2    
   174   87   89 am   BACKBONE|DICT|INTERRES
   175   89   90 1    
   176   89  210 1    
   177   90   91 1    
   178   90   92 1    
   179   90  211 1    
   180   91  212 1    
   181   91  213 1    
   182   91  214 1    
   183   92   93 2    
   184   92   94 am   BACKBONE|DICT|INTERRES
   185   94   95 1    
   186   94  215 1    
   187   95   96 1    
   188   95   97 1    
   189   95  216 1    
   190   96  217 1    
   191   96  218 1    
   192   96  219 1    
   193   97   98 2    
   194   97   99 am   BACKBONE|DICT|INTERRES
   195   99  100 1    
   196   99  220 1    
   197  100  101 1    
   198  100  102 1    
   199  100  221 1    
   200  101  222 1    
   201  101  223 1    
   202  101  224 1    
   203  102  103 2    
   204  102  104 am   BACKBONE|DICT|INTERRES
   205  104  105 1    
   206  104  225 1    
   207  105  106 1    
   208  105  107 1    
   209  105  226 1    
   210  106  227 1    
   211  106  228 1    
   212  106  229 1    
   213  107  108 2    
   214  107  109 am   BACKBONE|DICT|INTERRES
   215  109  110 1    
   216  109  230 1    
   217  110  111 1    
   218  110  112 1    
   219  110  231 1    
   220  111  232 1    
   221  111  233 1    
   222  111  234 1    
   223  112  113 2    
   224  112  114 am   BACKBONE|DICT|INTERRES
   225  114  115 1    
   226  114  235 1    
   227  115  116 1    
   228  115  117 1    
   229  115  236 1    
   230  116  237 1    
   231  116  238 1    
   232  116  239 1    
   233  117  118 2    
   234  117  119 am   BACKBONE|DICT|INTERRES
   235  119  120 1    
   236  119  240 1    
   237  120  121 1    
   238  120  124 1    
   239  120  241 1    
   240  121  122 am   BACKBONE|DICT|INTERRES
   241  121  123 2    
   242  122  242 1    
   243  122  243 1    
   244  124  125 1    
   245  124  244 1    
   246  124  245 1    
   247  125  126 1    
   248  126  246 1    
   249  126  247 1    
@<TRIPOS>SUBSTRUCTURE
     1 UNK         1 GROUP             0       ****    0 ROOT    
