@<TRIPOS>MOLECULE
3R540
247   249    1
SMALL
USER_CHARGES


@<TRIPOS>ATOM
      1 CA         -4.8348  -17.0631  -47.8556 C.3       0 UNK        -0.1800 
      2 C          -3.9930  -15.7974  -47.9340 C.2       0 UNK         0.5000 
      3 O          -4.2019  -14.8710  -47.1498 O.2       0 UNK        -0.5000 
      4 N          -3.0514  -15.7483  -48.8842 N.am      1 UNK        -0.5000 
      5 CA         -2.1529  -14.6179  -49.1279 C.3       1 UNK         0.1400 
      6 C6         -1.3861  -14.7498  -50.4696 C.3       23 UNK        -0.0398 
      7 S7         -0.5210  -16.3415  -50.7263 S.3       23 UNK        -0.2404 
      8 C8          1.2083  -15.7846  -50.7836 C.3       23 UNK        -0.0205 
      9 C9          2.1513  -16.9195  -51.1510 C.ar      23 UNK        -0.0193 
     10 C10         2.1606  -17.4246  -52.4554 C.ar      23 UNK        -0.1150 
     11 C11         3.0359  -18.4536  -52.8151 C.ar      23 UNK        -0.0193 
     12 C12         3.9238  -18.9582  -51.8607 C.ar      23 UNK        -0.1150 
     13 C13         3.9374  -18.4510  -50.5581 C.ar      23 UNK        -0.0193 
     14 C14         3.0382  -17.4407  -50.2035 C.ar      23 UNK        -0.1150 
     15 C15         4.9632  -18.9650  -49.5592 C.3       23 UNK        -0.0205 
     16 S16         4.5701  -20.6383  -48.9677 S.3       23 UNK        -0.2404 
     17 C17         3.3990  -20.2762  -47.6206 C.3       23 UNK        -0.0398 
     18 CA          2.4282  -21.4553  -47.3619 C.3       11 UNK         0.1400 
     19 N           2.0729  -21.5668  -45.9440 N.am      11 UNK        -0.5000 
     20 C           1.4967  -22.6372  -45.3789 C.2       10 UNK         0.5000 
     21 O           1.2338  -23.6754  -45.9857 O.2       10 UNK        -0.5000 
     22 CA          1.1174  -22.5169  -43.8900 C.3       10 UNK         0.1400 
     23 CB          2.3161  -22.8482  -42.9886 C.3       10 UNK        -0.1800 
     24 N           0.5974  -21.1930  -43.5474 N.am      10 UNK        -0.5000 
     25 C          -0.5416  -20.6809  -44.0345 C.2       9 UNK         0.5000 
     26 O          -1.3090  -21.3023  -44.7689 O.2       9 UNK        -0.5000 
     27 CA         -0.8450  -19.2123  -43.6871 C.3       9 UNK         0.1400 
     28 CB         -1.4702  -19.1054  -42.2890 C.3       9 UNK        -0.1800 
     29 N           0.3410  -18.3563  -43.7685 N.am      9 UNK        -0.5000 
     30 C           1.0550  -18.1487  -44.8852 C.2       8 UNK         0.5000 
     31 O           0.7640  -18.6260  -45.9786 O.2       8 UNK        -0.5000 
     32 CA          2.3505  -17.3335  -44.7516 C.3       8 UNK         0.1400 
     33 CB          2.0609  -15.8314  -44.7898 C.3       8 UNK        -0.1800 
     34 N           3.0761  -17.6629  -43.5277 N.am      8 UNK        -0.5000 
     35 C           3.7078  -18.8257  -43.3199 C.2       7 UNK         0.5000 
     36 O           3.7791  -19.7242  -44.1581 O.2       7 UNK        -0.5000 
     37 CA          4.3198  -19.0314  -41.9231 C.3       7 UNK         0.1400 
     38 CB          5.7005  -18.3649  -41.8305 C.3       7 UNK        -0.1800 
     39 N           3.4568  -18.5161  -40.8582 N.am      7 UNK        -0.5000 
     40 C           2.2609  -19.0334  -40.5440 C.2       6 UNK         0.5000 
     41 O           1.7771  -20.0191  -41.1004 O.2       6 UNK        -0.5000 
     42 CA          1.4550  -18.3035  -39.4537 C.3       6 UNK         0.1400 
     43 CB          1.8518  -18.8113  -38.0596 C.3       6 UNK        -0.1800 
     44 N           1.5921  -16.8438  -39.4973 N.am      6 UNK        -0.5000 
     45 C           1.1787  -16.0734  -40.5117 C.2       5 UNK         0.5000 
     46 O           0.7052  -16.5196  -41.5593 O.2       5 UNK        -0.5000 
     47 CA          1.3490  -14.5552  -40.3441 C.3       5 UNK         0.1400 
     48 CB          2.5424  -14.0495  -41.1685 C.3       5 UNK        -0.1800 
     49 N           0.1351  -13.8819  -40.7953 N.am      5 UNK        -0.5000 
     50 C          -0.9281  -13.6298  -40.0166 C.2       4 UNK         0.5000 
     51 O          -0.9366  -13.7953  -38.7961 O.2       4 UNK        -0.5000 
     52 CA         -2.2100  -13.1393  -40.7229 C.3       4 UNK         0.1400 
     53 CB         -2.2364  -11.6054  -40.7975 C.3       4 UNK        -0.1800 
     54 N          -2.3220  -13.6868  -42.0739 N.am      4 UNK        -0.5000 
     55 C          -2.5423  -14.9777  -42.3507 C.2       3 UNK         0.5000 
     56 O          -2.9472  -15.7795  -41.5081 O.2       3 UNK        -0.5000 
     57 CA         -2.2243  -15.4708  -43.7821 C.3       3 UNK         0.1400 
     58 CB         -3.3136  -16.4142  -44.3178 C.3       3 UNK        -0.1800 
     59 N          -1.9568  -14.4338  -44.7888 N.am      3 UNK        -0.5000 
     60 C          -0.9020  -13.6043  -44.8205 C.2       2 UNK         0.5000 
     61 O          -0.1026  -13.5004  -43.8887 O.2       2 UNK        -0.5000 
     62 CA         -0.7344  -12.7103  -46.0705 C.3       2 UNK         0.1400 
     63 CB          0.7460  -12.4119  -46.3880 C.3       2 UNK        -0.1800 
     64 N          -1.4340  -13.1994  -47.2663 N.am      2 UNK        -0.5000 
     65 C          -1.2270  -14.3537  -47.9197 C.2       1 UNK         0.5000 
     66 O          -0.3889  -15.1931  -47.5905 O.2       1 UNK        -0.5000 
     67 C           1.1816  -21.3822  -48.2711 C.2       11 UNK         0.5000 
     68 O           1.1490  -22.0399  -49.3102 O.2       11 UNK        -0.5000 
     69 N           0.1718  -20.6098  -47.8448 N.am      12 UNK        -0.5000 
     70 CA         -1.1290  -20.4603  -48.5000 C.3       12 UNK         0.1400 
     71 CB         -1.8902  -19.3024  -47.8363 C.3       12 UNK        -0.1800 
     72 C          -1.9868  -21.7393  -48.4728 C.2       12 UNK         0.5000 
     73 O          -2.7998  -21.9358  -49.3792 O.2       12 UNK        -0.5000 
     74 N          -1.7627  -22.5770  -47.4514 N.am      13 UNK        -0.5000 
     75 CA         -2.3996  -23.8609  -47.1573 C.3       13 UNK         0.1400 
     76 CB         -2.2752  -24.8329  -48.3501 C.3       13 UNK        -0.1800 
     77 C          -3.8570  -23.7239  -46.6763 C.2       13 UNK         0.5000 
     78 O          -4.4408  -22.6361  -46.7005 O.2       13 UNK        -0.5000 
     79 N          -4.4182  -24.8546  -46.2254 N.am      14 UNK        -0.5000 
     80 CA         -5.8001  -24.9868  -45.7631 C.3       14 UNK         0.1400 
     81 CB         -6.0414  -26.4294  -45.2938 C.3       14 UNK        -0.1800 
     82 C          -6.8034  -24.5981  -46.8623 C.2       14 UNK         0.5000 
     83 O          -6.6444  -25.0234  -48.0085 O.2       14 UNK        -0.5000 
     84 N          -7.7832  -23.7601  -46.4972 N.am      15 UNK        -0.5000 
     85 CA         -8.8037  -23.1672  -47.3724 C.3       15 UNK         0.1400 
     86 CB         -9.7744  -24.2533  -47.8830 C.3       15 UNK        -0.1800 
     87 C          -8.2246  -22.3057  -48.5201 C.2       15 UNK         0.5000 
     88 O          -8.9051  -22.1047  -49.5271 O.2       15 UNK        -0.5000 
     89 N          -6.9828  -21.8187  -48.3497 N.am      16 UNK        -0.5000 
     90 CA         -6.1897  -21.0466  -49.3128 C.3       16 UNK         0.1400 
     91 CB         -6.8544  -19.6800  -49.5907 C.3       16 UNK        -0.1800 
     92 C          -5.8670  -21.8322  -50.6043 C.2       16 UNK         0.5000 
     93 O          -5.7094  -21.2247  -51.6636 O.2       16 UNK        -0.5000 
     94 N          -5.7821  -23.1680  -50.5052 N.am      17 UNK        -0.5000 
     95 CA         -5.6370  -24.0852  -51.6379 C.3       17 UNK         0.1400 
     96 CB         -5.7078  -25.5332  -51.1312 C.3       17 UNK        -0.1800 
     97 C          -4.3697  -23.8753  -52.4873 C.2       17 UNK         0.5000 
     98 O          -4.4404  -24.0088  -53.7098 O.2       17 UNK        -0.5000 
     99 N          -3.2433  -23.5437  -51.8428 N.am      18 UNK        -0.5000 
    100 CA        -1.9832  -23.2561  -52.5278 C.3       18 UNK         0.1400 
    101 CB        -0.7964  -23.6411  -51.6366 C.3       18 UNK        -0.1800 
    102 C         -1.9109  -21.7851  -52.9637 C.2       18 UNK         0.5000 
    103 O         -1.4155  -21.5080  -54.0539 O.2       18 UNK        -0.5000 
    104 N         -2.4670  -20.8717  -52.1544 N.am      19 UNK        -0.5000 
    105 CA        -2.5958  -19.4473  -52.4807 C.3       19 UNK         0.1400 
    106 CB        -3.1725  -18.6891  -51.2788 C.3       19 UNK        -0.1800 
    107 C         -3.4393  -19.1840  -53.7432 C.2       19 UNK         0.5000 
    108 O         -3.1273  -18.2650  -54.4985 O.2       19 UNK        -0.5000 
    109 N         -4.4657  -20.0158  -53.9641 N.am      20 UNK        -0.5000 
    110 CA        -5.2946  -20.0249  -55.1684 C.3       20 UNK         0.1400 
    111 CB        -6.5391  -20.8874  -54.9076 C.3       20 UNK        -0.1800 
    112 C         -4.5487  -20.5223  -56.4238 C.2       20 UNK         0.5000 
    113 O         -4.9080  -20.1195  -57.5311 O.2       20 UNK        -0.5000 
    114 N         -3.5407  -21.3877  -56.2418 N.am      21 UNK        -0.5000 
    115 CA        -2.6865  -21.8961  -57.3168 C.3       21 UNK         0.1400 
    116 CB        -2.1085  -23.2628  -56.9158 C.3       21 UNK        -0.1800 
    117 C         -1.5657  -20.9019  -57.6730 C.2       21 UNK         0.5000 
    118 O         -1.2311  -20.7645  -58.8508 O.2       21 UNK        -0.5000 
    119 N         -1.0177  -20.2238  -56.6564 N.am      22 UNK        -0.5000 
    120 CA        -0.0472  -19.1252  -56.7797 C.3       22 UNK         0.1400 
    121 C         -0.5931  -17.9015  -57.5730 C.2       22 UNK         0.5000 
    122 N          0.2772  -17.1624  -58.2485 N.am      22 UNK        -0.7600 
    123 O         -1.7815  -17.5904  -57.5586 O.2       22 UNK        -0.5000 
    124 C124        0.4730  -18.6824  -55.3874 C.3       23 UNK        -0.0398 
    125 S125        1.5417  -19.9510  -54.6206 S.3       23 UNK        -0.2404 
    126 C126        3.0508  -19.0043  -54.2355 C.3       23 UNK        -0.0205 
    127 H127       -5.8922  -16.8072  -47.7899 H         1 UNK         0.0600 
    128 H128       -4.5688  -17.6435  -46.9727 H         1 UNK         0.0600 
    129 H129       -4.6961  -17.6909  -48.7351 H         1 UNK         0.0600 
    130 H130       -2.8865  -16.5529  -49.4701 H         1 UNK         0.3000 
    131 H131       -2.7959  -13.7416  -49.2376 H         1 UNK         0.0600 
    132 H132       -0.6888  -13.9191  -50.5905 H         1 UNK         0.0800 
    133 H133       -2.0966  -14.6446  -51.2905 H         1 UNK         0.0800 
    134 H134        1.4764  -15.3550  -49.8168 H         1 UNK         0.0800 
    135 H135        1.3112  -14.9864  -51.5201 H         1 UNK         0.0800 
    136 H136        1.4789  -17.0170  -53.1876 H         1 UNK         0.1150 
    137 H137        4.6179  -19.7416  -52.1316 H         1 UNK         0.1150 
    138 H138        3.0442  -17.0433  -49.1982 H         1 UNK         0.1150 
    139 H139        5.9422  -18.9882  -50.0402 H         1 UNK         0.0800 
    140 H140        5.0612  -18.2855  -48.7110 H         1 UNK         0.0800 
    141 H141        2.8613  -19.3465  -47.8168 H         1 UNK         0.0800 
    142 H142        4.0083  -20.0845  -46.7373 H         1 UNK         0.0800 
    143 H143        2.9476  -22.3840  -47.6099 H         1 UNK         0.0600 
    144 H144        2.2891  -20.7695  -45.3581 H         1 UNK         0.3000 
    145 H145        0.3306  -23.2468  -43.6885 H         1 UNK         0.0600 
    146 H146        2.0336  -22.8299  -41.9358 H         1 UNK         0.0600 
    147 H147        2.7037  -23.8444  -43.2050 H         1 UNK         0.0600 
    148 H148        3.1337  -22.1405  -43.1263 H         1 UNK         0.0600 
    149 H149        1.1434  -20.6401  -42.8937 H         1 UNK         0.3000 
    150 H150       -1.5682  -18.8397  -44.4142 H         1 UNK         0.0600 
    151 H151       -2.4224  -19.6354  -42.2485 H         1 UNK         0.0600 
    152 H152       -1.6623  -18.0688  -42.0169 H         1 UNK         0.0600 
    153 H153       -0.8254  -19.5340  -41.5227 H         1 UNK         0.0600 
    154 H154        0.6207  -17.8798  -42.9155 H         1 UNK         0.3000 
    155 H155        2.9874  -17.5755  -45.6053 H         1 UNK         0.0600 
    156 H156        1.4380  -15.5330  -43.9489 H         1 UNK         0.0600 
    157 H157        1.5310  -15.5626  -45.7035 H         1 UNK         0.0600 
    158 H158        2.9788  -15.2447  -44.7573 H         1 UNK         0.0600 
    159 H159        3.0187  -16.9984  -42.7711 H         1 UNK         0.3000 
    160 H160        4.4470  -20.1053  -41.7701 H         1 UNK         0.0600 
    161 H161        5.6366  -17.2827  -41.9505 H         1 UNK         0.0600 
    162 H162        6.3680  -18.7427  -42.6062 H         1 UNK         0.0600 
    163 H163        6.1727  -18.5691  -40.8694 H         1 UNK         0.0600 
    164 H164        3.7827  -17.7067  -40.3509 H         1 UNK         0.3000 
    165 H165        0.4011  -18.5409  -39.6122 H         1 UNK         0.0600 
    166 H166        1.2214  -18.3727  -37.2858 H         1 UNK         0.0600 
    167 H167        1.7397  -19.8944  -37.9923 H         1 UNK         0.0600 
    168 H168        2.8896  -18.5733  -37.8233 H         1 UNK         0.0600 
    169 H169        1.9790  -16.4050  -38.6741 H         1 UNK         0.3000 
    170 H170        1.5351  -14.3245  -39.2931 H         1 UNK         0.0600 
    171 H171        3.4640  -14.5549  -40.8774 H         1 UNK         0.0600 
    172 H172        2.3975  -14.2147  -42.2361 H         1 UNK         0.0600 
    173 H173        2.6962  -12.9809  -41.0179 H         1 UNK         0.0600 
    174 H174        0.0421  -13.7665  -41.7990 H         1 UNK         0.3000 
    175 H175       -3.0693  -13.4726  -40.1372 H         1 UNK         0.0600 
    176 H176       -1.4022  -11.2160  -41.3826 H         1 UNK         0.0600 
    177 H177       -3.1610  -11.2486  -41.2516 H         1 UNK         0.0600 
    178 H178       -2.1729  -11.1657  -39.8012 H         1 UNK         0.0600 
    179 H179       -1.9471  -13.1185  -42.8204 H         1 UNK         0.3000 
    180 H180       -1.3076  -16.0549  -43.6865 H         1 UNK         0.0600 
    181 H181       -2.9971  -16.8772  -45.2520 H         1 UNK         0.0600 
    182 H182       -4.2485  -15.8835  -44.5002 H         1 UNK         0.0600 
    183 H183       -3.5264  -17.2237  -43.6190 H         1 UNK         0.0600 
    184 H184       -2.5877  -14.4216  -45.5810 H         1 UNK         0.3000 
    185 H185       -1.2077  -11.7615  -45.8146 H         1 UNK         0.0600 
    186 H186        1.2403  -11.9274  -45.5452 H         1 UNK         0.0600 
    187 H187        1.3048  -13.3198  -46.6143 H         1 UNK         0.0600 
    188 H188        0.8376  -11.7417  -47.2427 H         1 UNK         0.0600 
    189 H189       -2.1811  -12.6019  -47.5932 H         1 UNK         0.3000 
    190 H190        0.3215  -20.0345  -47.0177 H         1 UNK         0.3000 
    191 H191       -0.9473  -20.2091  -49.5465 H         1 UNK         0.0600 
    192 H192       -2.8937  -19.2075  -48.2491 H         1 UNK         0.0600 
    193 H193       -1.3769  -18.3518  -47.9867 H         1 UNK         0.0600 
    194 H194       -1.9997  -19.4579  -46.7632 H         1 UNK         0.0600 
    195 H195       -1.1446  -22.2401  -46.7233 H         1 UNK         0.3000 
    196 H196       -1.8307  -24.2771  -46.3245 H         1 UNK         0.0600 
    197 H197       -2.9383  -24.5581  -49.1695 H         1 UNK         0.0600 
    198 H198       -1.2553  -24.8572  -48.7344 H         1 UNK         0.0600 
    199 H199       -2.5318  -25.8514  -48.0582 H         1 UNK         0.0600 
    200 H200       -3.8808  -25.7081  -46.2562 H         1 UNK         0.3000 
    201 H201       -5.9283  -24.3187  -44.9090 H         1 UNK         0.0600 
    202 H202       -5.8974  -27.1452  -46.1043 H         1 UNK         0.0600 
    203 H203       -7.0598  -26.5539  -44.9236 H         1 UNK         0.0600 
    204 H204       -5.3660  -26.6998  -44.4819 H         1 UNK         0.0600 
    205 H205       -7.8146  -23.4536  -45.5345 H         1 UNK         0.3000 
    206 H206       -9.3777  -22.4821  -46.7471 H         1 UNK         0.0600 
    207 H207      -10.1721  -24.8460  -47.0593 H         1 UNK         0.0600 
    208 H208      -10.6255  -23.8082  -48.3994 H         1 UNK         0.0600 
    209 H209       -9.2886  -24.9342  -48.5826 H         1 UNK         0.0600 
    210 H210       -6.4858  -22.0727  -47.5042 H         1 UNK         0.3000 
    211 H211       -5.2312  -20.8526  -48.8302 H         1 UNK         0.0600 
    212 H212       -6.2168  -19.0399  -50.1985 H         1 UNK         0.0600 
    213 H213       -7.0569  -19.1454  -48.6628 H         1 UNK         0.0600 
    214 H214       -7.7968  -19.7879  -50.1275 H         1 UNK         0.0600 
    215 H215       -5.9386  -23.5952  -49.6003 H         1 UNK         0.3000 
    216 H216       -6.4926  -23.9181  -52.2954 H         1 UNK         0.0600 
    217 H217       -4.9289  -25.7408  -50.3965 H         1 UNK         0.0600 
    218 H218       -5.5874  -26.2436  -51.9502 H         1 UNK         0.0600 
    219 H219       -6.6714  -25.7393  -50.6649 H         1 UNK         0.0600 
    220 H220       -3.2754  -23.3591  -50.8464 H         1 UNK         0.3000 
    221 H221       -1.9149  -23.8671  -53.4307 H         1 UNK         0.0600 
    222 H222       -0.8128  -24.7039  -51.3959 H         1 UNK         0.0600 
    223 H223       -0.7980  -23.0877  -50.7009 H         1 UNK         0.0600 
    224 H224        0.1507  -23.4329  -52.1360 H         1 UNK         0.0600 
    225 H225       -2.8556  -21.1836  -51.2714 H         1 UNK         0.3000 
    226 H226       -1.5935  -19.0593  -52.6736 H         1 UNK         0.0600 
    227 H227       -4.0681  -19.1702  -50.8923 H         1 UNK         0.0600 
    228 H228       -2.4433  -18.6362  -50.4752 H         1 UNK         0.0600 
    229 H229       -3.4317  -17.6629  -51.5431 H         1 UNK         0.0600 
    230 H230       -4.7186  -20.6756  -53.2332 H         1 UNK         0.3000 
    231 H231       -5.6222  -19.0015  -55.3625 H         1 UNK         0.0600 
    232 H232       -6.2700  -21.9183  -54.6734 H         1 UNK         0.0600 
    233 H233       -7.1935  -20.9067  -55.7799 H         1 UNK         0.0600 
    234 H234       -7.1212  -20.4968  -54.0726 H         1 UNK         0.0600 
    235 H235       -3.2802  -21.6413  -55.2985 H         1 UNK         0.3000 
    236 H236       -3.2966  -22.0459  -58.2102 H         1 UNK         0.0600 
    237 H237       -2.9008  -23.9673  -56.6617 H         1 UNK         0.0600 
    238 H238       -1.5371  -23.6966  -57.7372 H         1 UNK         0.0600 
    239 H239       -1.4394  -23.1889  -56.0589 H         1 UNK         0.0600 
    240 H240       -1.3030  -20.4608  -55.7117 H         1 UNK         0.3000 
    241 H241        0.7966  -19.5186  -57.3501 H         1 UNK         0.0600 
    242 H242       -0.0570  -16.3593  -58.7586 H         1 UNK         0.3800 
    243 H243        1.2589  -17.3916  -58.2792 H         1 UNK         0.3800 
    244 H244       -0.3595  -18.4702  -54.7160 H         1 UNK         0.0800 
    245 H245        1.0327  -17.7496  -55.4680 H         1 UNK         0.0800 
    246 H246        3.1960  -18.1920  -54.9484 H         1 UNK         0.0800 
    247 H247        3.9053  -19.6692  -54.3696 H         1 UNK         0.0800 
@<TRIPOS>BOND
     1    1    2 1    
     2    1  127 1    
     3    1  128 1    
     4    1  129 1    
     5    2    3 2    
     6    2    4 am   BACKBONE|DICT|INTERRES
     7    4    5 1    
     8    4  130 1    
     9    5    6 1    
    10    5   65 1    
    11    5  131 1    
    12    6    7 1    
    13    6  132 1    
    14    6  133 1    
    15    7    8 1    
    16    8    9 1    
    17    8  134 1    
    18    8  135 1    
    19    9   10 ar   
    20    9   14 ar   
    21   10   11 ar   
    22   10  136 1    
    23   11   12 ar   
    24   11  126 1    
    25   12   13 ar   
    26   12  137 1    
    27   13   14 ar   
    28   13   15 1    
    29   14  138 1    
    30   15   16 1    
    31   15  139 1    
    32   15  140 1    
    33   16   17 1    
    34   17   18 1    
    35   17  141 1    
    36   17  142 1    
    37   18   19 1    
    38   18   67 1    
    39   18  143 1    
    40   19   20 am   BACKBONE|DICT|INTERRES
    41   19  144 1    
    42   20   21 2    
    43   20   22 1    
    44   22   23 1    
    45   22   24 1    
    46   22  145 1    
    47   23  146 1    
    48   23  147 1    
    49   23  148 1    
    50   24   25 am   BACKBONE|DICT|INTERRES
    51   24  149 1    
    52   25   26 2    
    53   25   27 1    
    54   27   28 1    
    55   27   29 1    
    56   27  150 1    
    57   28  151 1    
    58   28  152 1    
    59   28  153 1    
    60   29   30 am   BACKBONE|DICT|INTERRES
    61   29  154 1    
    62   30   31 2    
    63   30   32 1    
    64   32   33 1    
    65   32   34 1    
    66   32  155 1    
    67   33  156 1    
    68   33  157 1    
    69   33  158 1    
    70   34   35 am   BACKBONE|DICT|INTERRES
    71   34  159 1    
    72   35   36 2    
    73   35   37 1    
    74   37   38 1    
    75   37   39 1    
    76   37  160 1    
    77   38  161 1    
    78   38  162 1    
    79   38  163 1    
    80   39   40 am   BACKBONE|DICT|INTERRES
    81   39  164 1    
    82   40   41 2    
    83   40   42 1    
    84   42   43 1    
    85   42   44 1    
    86   42  165 1    
    87   43  166 1    
    88   43  167 1    
    89   43  168 1    
    90   44   45 am   BACKBONE|DICT|INTERRES
    91   44  169 1    
    92   45   46 2    
    93   45   47 1    
    94   47   48 1    
    95   47   49 1    
    96   47  170 1    
    97   48  171 1    
    98   48  172 1    
    99   48  173 1    
   100   49   50 am   BACKBONE|DICT|INTERRES
   101   49  174 1    
   102   50   51 2    
   103   50   52 1    
   104   52   53 1    
   105   52   54 1    
   106   52  175 1    
   107   53  176 1    
   108   53  177 1    
   109   53  178 1    
   110   54   55 am   BACKBONE|DICT|INTERRES
   111   54  179 1    
   112   55   56 2    
   113   55   57 1    
   114   57   58 1    
   115   57   59 1    
   116   57  180 1    
   117   58  181 1    
   118   58  182 1    
   119   58  183 1    
   120   59   60 am   BACKBONE|DICT|INTERRES
   121   59  184 1    
   122   60   61 2    
   123   60   62 1    
   124   62   63 1    
   125   62   64 1    
   126   62  185 1    
   127   63  186 1    
   128   63  187 1    
   129   63  188 1    
   130   64   65 am   BACKBONE|DICT|INTERRES
   131   64  189 1    
   132   65   66 2    
   133   67   68 2    
   134   67   69 am   BACKBONE|DICT|INTERRES
   135   69   70 1    
   136   69  190 1    
   137   70   71 1    
   138   70   72 1    
   139   70  191 1    
   140   71  192 1    
   141   71  193 1    
   142   71  194 1    
   143   72   73 2    
   144   72   74 am   BACKBONE|DICT|INTERRES
   145   74   75 1    
   146   74  195 1    
   147   75   76 1    
   148   75   77 1    
   149   75  196 1    
   150   76  197 1    
   151   76  198 1    
   152   76  199 1    
   153   77   78 2    
   154   77   79 am   BACKBONE|DICT|INTERRES
   155   79   80 1    
   156   79  200 1    
   157   80   81 1    
   158   80   82 1    
   159   80  201 1    
   160   81  202 1    
   161   81  203 1    
   162   81  204 1    
   163   82   83 2    
   164   82   84 am   BACKBONE|DICT|INTERRES
   165   84   85 1    
   166   84  205 1    
   167   85   86 1    
   168   85   87 1    
   169   85  206 1    
   170   86  207 1    
   171   86  208 1    
   172   86  209 1    
   173   87   88 2    
   174   87   89 am   BACKBONE|DICT|INTERRES
   175   89   90 1    
   176   89  210 1    
   177   90   91 1    
   178   90   92 1    
   179   90  211 1    
   180   91  212 1    
   181   91  213 1    
   182   91  214 1    
   183   92   93 2    
   184   92   94 am   BACKBONE|DICT|INTERRES
   185   94   95 1    
   186   94  215 1    
   187   95   96 1    
   188   95   97 1    
   189   95  216 1    
   190   96  217 1    
   191   96  218 1    
   192   96  219 1    
   193   97   98 2    
   194   97   99 am   BACKBONE|DICT|INTERRES
   195   99  100 1    
   196   99  220 1    
   197  100  101 1    
   198  100  102 1    
   199  100  221 1    
   200  101  222 1    
   201  101  223 1    
   202  101  224 1    
   203  102  103 2    
   204  102  104 am   BACKBONE|DICT|INTERRES
   205  104  105 1    
   206  104  225 1    
   207  105  106 1    
   208  105  107 1    
   209  105  226 1    
   210  106  227 1    
   211  106  228 1    
   212  106  229 1    
   213  107  108 2    
   214  107  109 am   BACKBONE|DICT|INTERRES
   215  109  110 1    
   216  109  230 1    
   217  110  111 1    
   218  110  112 1    
   219  110  231 1    
   220  111  232 1    
   221  111  233 1    
   222  111  234 1    
   223  112  113 2    
   224  112  114 am   BACKBONE|DICT|INTERRES
   225  114  115 1    
   226  114  235 1    
   227  115  116 1    
   228  115  117 1    
   229  115  236 1    
   230  116  237 1    
   231  116  238 1    
   232  116  239 1    
   233  117  118 2    
   234  117  119 am   BACKBONE|DICT|INTERRES
   235  119  120 1    
   236  119  240 1    
   237  120  121 1    
   238  120  124 1    
   239  120  241 1    
   240  121  122 am   BACKBONE|DICT|INTERRES
   241  121  123 2    
   242  122  242 1    
   243  122  243 1    
   244  124  125 1    
   245  124  244 1    
   246  124  245 1    
   247  125  126 1    
   248  126  246 1    
   249  126  247 1    
@<TRIPOS>SUBSTRUCTURE
     1 UNK         1 GROUP             0       ****    0 ROOT    
