@<TRIPOS>MOLECULE
3R540
247   249    1
SMALL
USER_CHARGES


@<TRIPOS>ATOM
      1 CA          0.8952  -12.5777  -49.3668 C.3       0 UNK        -0.1800 
      2 C          -0.0010  -13.1278  -48.2670 C.2       0 UNK         0.5000 
      3 O           0.2734  -14.2039  -47.7384 O.2       0 UNK        -0.5000 
      4 N          -1.0617  -12.3862  -47.9194 N.am      1 UNK        -0.5000 
      5 CA         -2.0801  -12.7545  -46.9238 C.3       1 UNK         0.1400 
      6 C6         -3.2351  -11.7223  -46.8707 C.3       23 UNK        -0.0398 
      7 S7         -4.0522  -11.4459  -48.4802 S.3       23 UNK        -0.2404 
      8 C8         -5.6759  -12.2243  -48.2153 C.3       23 UNK        -0.0205 
      9 C9         -5.6204  -13.7271  -48.4371 C.ar      23 UNK        -0.0193 
     10 C10        -5.9434  -14.2590  -49.6882 C.ar      23 UNK        -0.1150 
     11 C11        -5.9047  -15.6388  -49.9076 C.ar      23 UNK        -0.0193 
     12 C12        -5.5494  -16.4896  -48.8569 C.ar      23 UNK        -0.1150 
     13 C13        -5.2138  -15.9693  -47.6023 C.ar      23 UNK        -0.0193 
     14 C14        -5.2591  -14.5877  -47.3970 C.ar      23 UNK        -0.1150 
     15 C15        -4.8301  -16.8948  -46.4569 C.3       23 UNK        -0.0205 
     16 S16        -3.0253  -17.1219  -46.3153 S.3       23 UNK        -0.2404 
     17 C17        -2.6600  -18.2566  -47.7010 C.3       23 UNK        -0.0398 
     18 CA         -2.6118  -19.7715  -47.3700 C.3       11 UNK         0.1400 
     19 N          -1.3616  -20.1995  -46.7358 N.am      11 UNK        -0.5000 
     20 C          -0.9534  -21.4780  -46.7277 C.2       10 UNK         0.5000 
     21 O          -1.5901  -22.3967  -47.2427 O.2       10 UNK        -0.5000 
     22 CA          0.3582  -21.8063  -46.0000 C.3       10 UNK         0.1400 
     23 CB          1.5700  -21.4098  -46.8557 C.3       10 UNK        -0.1800 
     24 N           0.4425  -21.1898  -44.6779 N.am      10 UNK        -0.5000 
     25 C          -0.3924  -21.4567  -43.6632 C.2       9 UNK         0.5000 
     26 O          -1.3170  -22.2659  -43.7338 O.2       9 UNK        -0.5000 
     27 CA         -0.1849  -20.6620  -42.3621 C.3       9 UNK         0.1400 
     28 CB          0.9700  -21.2523  -41.5398 C.3       9 UNK        -0.1800 
     29 N           0.0548  -19.2395  -42.6042 N.am      9 UNK        -0.5000 
     30 C          -0.8344  -18.4088  -43.1682 C.2       8 UNK         0.5000 
     31 O          -1.9698  -18.7499  -43.4980 O.2       8 UNK        -0.5000 
     32 CA         -0.3570  -16.9723  -43.4514 C.3       8 UNK         0.1400 
     33 CB         -0.3602  -16.1296  -42.1670 C.3       8 UNK        -0.1800 
     34 N           0.9744  -16.9386  -44.0562 N.am      8 UNK        -0.5000 
     35 C           1.2881  -17.4844  -45.2408 C.2       7 UNK         0.5000 
     36 O           0.4797  -18.0445  -45.9819 O.2       7 UNK        -0.5000 
     37 CA          2.7762  -17.4571  -45.6283 C.3       7 UNK         0.1400 
     38 CB          3.1780  -16.0833  -46.1892 C.3       7 UNK        -0.1800 
     39 N           3.6388  -17.8101  -44.4980 N.am      7 UNK        -0.5000 
     40 C           3.7014  -19.0335  -43.9507 C.2       6 UNK         0.5000 
     41 O           3.0571  -19.9972  -44.3592 O.2       6 UNK        -0.5000 
     42 CA          4.6075  -19.2049  -42.7182 C.3       6 UNK         0.1400 
     43 CB          6.0629  -19.4441  -43.1464 C.3       6 UNK        -0.1800 
     44 N           4.5512  -18.0579  -41.8138 N.am      6 UNK        -0.5000 
     45 C           3.4678  -17.6878  -41.1157 C.2       5 UNK         0.5000 
     46 O           2.4039  -18.3054  -41.1214 O.2       5 UNK        -0.5000 
     47 CA          3.5804  -16.3655  -40.3330 C.3       5 UNK         0.1400 
     48 CB          4.1867  -16.6064  -38.9427 C.3       5 UNK        -0.1800 
     49 N           4.3733  -15.3588  -41.0470 N.am      5 UNK        -0.5000 
     50 C           4.0300  -14.8475  -42.2353 C.2       4 UNK         0.5000 
     51 O           2.9830  -15.1363  -42.8260 O.2       4 UNK        -0.5000 
     52 CA          5.0421  -13.9082  -42.9037 C.3       4 UNK         0.1400 
     53 CB          6.1999  -14.7037  -43.5342 C.3       4 UNK        -0.1800 
     54 N           4.3205  -13.1784  -43.9322 N.am      4 UNK        -0.5000 
     55 C           4.6661  -12.0265  -44.5118 C.2       3 UNK         0.5000 
     56 O           5.7330  -11.4452  -44.3109 O.2       3 UNK        -0.5000 
     57 CA          3.6193  -11.4114  -45.4635 C.3       3 UNK         0.1400 
     58 CB          3.9305  -11.7828  -46.9212 C.3       3 UNK        -0.1800 
     59 N           2.2459  -11.8251  -45.1494 N.am      3 UNK        -0.5000 
     60 C           1.5750  -11.4626  -44.0451 C.2       2 UNK         0.5000 
     61 O           2.0254  -10.6868  -43.2009 O.2       2 UNK        -0.5000 
     62 CA          0.1701  -12.0635  -43.8749 C.3       2 UNK         0.1400 
     63 CB         -0.6861  -11.3286  -42.8239 C.3       2 UNK        -0.1800 
     64 N          -0.5166  -12.0860  -45.1629 N.am      2 UNK        -0.5000 
     65 C          -1.4972  -12.9298  -45.5052 C.2       1 UNK         0.5000 
     66 O          -1.9488  -13.7983  -44.7588 O.2       1 UNK        -0.5000 
     67 C          -3.8566  -20.2989  -46.6222 C.2       11 UNK         0.5000 
     68 O          -4.8283  -20.6779  -47.2761 O.2       11 UNK        -0.5000 
     69 N          -3.7952  -20.3760  -45.2826 N.am      12 UNK        -0.5000 
     70 CA         -4.8352  -20.9743  -44.4385 C.3       12 UNK         0.1400 
     71 CB         -4.5393  -20.6788  -42.9612 C.3       12 UNK        -0.1800 
     72 C          -4.9959  -22.4899  -44.6705 C.2       12 UNK         0.5000 
     73 O          -6.1165  -22.9975  -44.6272 O.2       12 UNK        -0.5000 
     74 N          -3.8821  -23.1724  -44.9674 N.am      13 UNK        -0.5000 
     75 CA         -3.8256  -24.5747  -45.3873 C.3       13 UNK         0.1400 
     76 CB         -2.4332  -25.1318  -45.0456 C.3       13 UNK        -0.1800 
     77 C          -4.1465  -24.7780  -46.8856 C.2       13 UNK         0.5000 
     78 O          -4.0051  -25.8971  -47.3835 O.2       13 UNK        -0.5000 
     79 N          -4.5314  -23.7015  -47.5910 N.am      14 UNK        -0.5000 
     80 CA         -4.8570  -23.6324  -49.0194 C.3       14 UNK         0.1400 
     81 CB         -6.1634  -24.3983  -49.3127 C.3       14 UNK        -0.1800 
     82 C          -3.6935  -24.0746  -49.9295 C.2       14 UNK         0.5000 
     83 O          -3.9335  -24.6219  -51.0053 O.2       14 UNK        -0.5000 
     84 N          -2.4527  -23.8669  -49.4612 N.am      15 UNK        -0.5000 
     85 CA         -1.1820  -24.2692  -50.0711 C.3       15 UNK         0.1400 
     86 CB         -0.8745  -23.3797  -51.2922 C.3       15 UNK        -0.1800 
     87 C          -1.1024  -25.7788  -50.3908 C.2       15 UNK         0.5000 
     88 O          -0.4494  -26.1633  -51.3599 O.2       15 UNK        -0.5000 
     89 N          -1.8074  -26.6051  -49.6001 N.am      16 UNK        -0.5000 
     90 CA         -2.0282  -28.0413  -49.8122 C.3       16 UNK         0.1400 
     91 CB         -0.7179  -28.8352  -49.6285 C.3       16 UNK        -0.1800 
     92 C          -2.7438  -28.3437  -51.1506 C.2       16 UNK         0.5000 
     93 O          -2.4429  -29.3444  -51.8031 O.2       16 UNK        -0.5000 
     94 N          -3.6753  -27.4544  -51.5260 N.am      17 UNK        -0.5000 
     95 CA         -4.4868  -27.4367  -52.7468 C.3       17 UNK         0.1400 
     96 CB         -5.2971  -28.7392  -52.9190 C.3       17 UNK        -0.1800 
     97 C          -3.7083  -27.0342  -54.0175 C.2       17 UNK         0.5000 
     98 O          -4.2090  -27.2495  -55.1234 O.2       17 UNK        -0.5000 
     99 N          -2.5215  -26.4309  -53.8594 N.am      18 UNK        -0.5000 
    100 CA        -1.7635  -25.8192  -54.9513 C.3       18 UNK         0.1400 
    101 CB        -0.2921  -25.6748  -54.5343 C.3       18 UNK        -0.1800 
    102 C         -2.3471  -24.4472  -55.3401 C.2       18 UNK         0.5000 
    103 O         -3.0351  -23.8078  -54.5405 O.2       18 UNK        -0.5000 
    104 N         -2.0160  -23.9951  -56.5563 N.am      19 UNK        -0.5000 
    105 CA        -2.4713  -22.7287  -57.1412 C.3       19 UNK         0.1400 
    106 CB        -2.0968  -22.7114  -58.6314 C.3       19 UNK        -0.1800 
    107 C         -1.9369  -21.4628  -56.4385 C.2       19 UNK         0.5000 
    108 O         -2.4726  -20.3783  -56.6687 O.2       19 UNK        -0.5000 
    109 N         -0.9060  -21.6100  -55.5937 N.am      20 UNK        -0.5000 
    110 CA        -0.2755  -20.5332  -54.8255 C.3       20 UNK         0.1400 
    111 CB         0.9302  -21.1030  -54.0636 C.3       20 UNK        -0.1800 
    112 C         -1.2299  -19.8004  -53.8603 C.2       20 UNK         0.5000 
    113 O         -1.0273  -18.6139  -53.5989 O.2       20 UNK        -0.5000 
    114 N         -2.2722  -20.4920  -53.3787 N.am      21 UNK        -0.5000 
    115 CA        -3.3372  -19.9280  -52.5493 C.3       21 UNK         0.1400 
    116 CB        -3.9170  -21.0334  -51.6532 C.3       21 UNK        -0.1800 
    117 C         -4.4081  -19.2203  -53.4057 C.2       21 UNK         0.5000 
    118 O         -5.5742  -19.6185  -53.3987 O.2       21 UNK        -0.5000 
    119 N         -3.9823  -18.1695  -54.1167 N.am      22 UNK        -0.5000 
    120 CA        -4.8207  -17.2441  -54.9009 C.3       22 UNK         0.1400 
    121 C         -5.4699  -17.8602  -56.1792 C.2       22 UNK         0.5000 
    122 N         -4.9243  -18.9191  -56.7621 N.am      22 UNK        -0.7600 
    123 O         -6.4760  -17.3593  -56.6758 O.2       22 UNK        -0.5000 
    124 C124       -5.8560  -16.4694  -54.0327 C.3       23 UNK        -0.0398 
    125 S125       -5.1240  -15.6519  -52.5717 S.3       23 UNK        -0.2404 
    126 C126       -6.2719  -16.2066  -51.2710 C.3       23 UNK        -0.0205 
    127 H127        1.9440  -12.7198  -49.1074 H         1 UNK         0.0600 
    128 H128        0.7270  -11.5129  -49.5300 H         1 UNK         0.0600 
    129 H129        0.7030  -13.1033  -50.3021 H         1 UNK         0.0600 
    130 H130       -1.2388  -11.5227  -48.4130 H         1 UNK         0.3000 
    131 H131       -2.4916  -13.7200  -47.2254 H         1 UNK         0.0600 
    132 H132       -3.9811  -12.0233  -46.1336 H         1 UNK         0.0800 
    133 H133       -2.8614  -10.7550  -46.5296 H         1 UNK         0.0800 
    134 H134       -6.0511  -11.9978  -47.2162 H         1 UNK         0.0800 
    135 H135       -6.3899  -11.7768  -48.9084 H         1 UNK         0.0800 
    136 H136       -6.2226  -13.5983  -50.4972 H         1 UNK         0.1150 
    137 H137       -5.5392  -17.5588  -49.0149 H         1 UNK         0.1150 
    138 H138       -5.0107  -14.1852  -46.4253 H         1 UNK         0.1150 
    139 H139       -5.1969  -16.4792  -45.5173 H         1 UNK         0.0800 
    140 H140       -5.3272  -17.8586  -46.5673 H         1 UNK         0.0800 
    141 H141       -1.7023  -17.9514  -48.1251 H         1 UNK         0.0800 
    142 H142       -3.3803  -18.0878  -48.4986 H         1 UNK         0.0800 
    143 H143       -2.6298  -20.2707  -48.3422 H         1 UNK         0.0600 
    144 H144       -0.7854  -19.4778  -46.3086 H         1 UNK         0.3000 
    145 H145        0.3908  -22.8886  -45.8585 H         1 UNK         0.0600 
    146 H146        2.5006  -21.7481  -46.4001 H         1 UNK         0.0600 
    147 H147        1.5128  -21.8603  -47.8475 H         1 UNK         0.0600 
    148 H148        1.6352  -20.3300  -46.9885 H         1 UNK         0.0600 
    149 H149        1.2131  -20.5446  -44.5287 H         1 UNK         0.3000 
    150 H150       -1.0993  -20.7490  -41.7716 H         1 UNK         0.0600 
    151 H151        0.8044  -22.3112  -41.3376 H         1 UNK         0.0600 
    152 H152        1.0658  -20.7486  -40.5778 H         1 UNK         0.0600 
    153 H153        1.9234  -21.1618  -42.0607 H         1 UNK         0.0600 
    154 H154        0.9554  -18.8731  -42.3103 H         1 UNK         0.3000 
    155 H155       -1.0535  -16.5169  -44.1574 H         1 UNK         0.0600 
    156 H156       -1.3544  -16.1087  -41.7191 H         1 UNK         0.0600 
    157 H157       -0.0749  -15.0986  -42.3713 H         1 UNK         0.0600 
    158 H158        0.3293  -16.5248  -41.4209 H         1 UNK         0.0600 
    159 H159        1.7047  -16.4737  -43.5264 H         1 UNK         0.3000 
    160 H160        2.9312  -18.1989  -46.4147 H         1 UNK         0.0600 
    161 H161        2.5928  -15.8438  -47.0781 H         1 UNK         0.0600 
    162 H162        3.0105  -15.2836  -45.4693 H         1 UNK         0.0600 
    163 H163        4.2292  -16.0633  -46.4768 H         1 UNK         0.0600 
    164 H164        4.1598  -17.0604  -44.0710 H         1 UNK         0.3000 
    165 H165        4.2630  -20.0849  -42.1709 H         1 UNK         0.0600 
    166 H166        6.6995  -19.6444  -42.2844 H         1 UNK         0.0600 
    167 H167        6.1370  -20.3061  -43.8108 H         1 UNK         0.0600 
    168 H168        6.4752  -18.5845  -43.6764 H         1 UNK         0.0600 
    169 H169        5.3833  -17.4916  -41.7439 H         1 UNK         0.3000 
    170 H170        2.5706  -15.9705  -40.2027 H         1 UNK         0.0600 
    171 H171        3.6033  -17.3406  -38.3853 H         1 UNK         0.0600 
    172 H172        5.2095  -16.9797  -39.0066 H         1 UNK         0.0600 
    173 H173        4.1996  -15.6890  -38.3540 H         1 UNK         0.0600 
    174 H174        5.2432  -15.0773  -40.6179 H         1 UNK         0.3000 
    175 H175        5.4237  -13.2076  -42.1583 H         1 UNK         0.0600 
    176 H176        5.8431  -15.4027  -44.2915 H         1 UNK         0.0600 
    177 H177        6.9220  -14.0402  -44.0101 H         1 UNK         0.0600 
    178 H178        6.7404  -15.2787  -42.7816 H         1 UNK         0.0600 
    179 H179        3.4046  -13.5656  -44.1205 H         1 UNK         0.3000 
    180 H180        3.6825  -10.3257  -45.3645 H         1 UNK         0.0600 
    181 H181        3.2608  -11.2660  -47.6084 H         1 UNK         0.0600 
    182 H182        3.8326  -12.8554  -47.0944 H         1 UNK         0.0600 
    183 H183        4.9490  -11.4982  -47.1887 H         1 UNK         0.0600 
    184 H184        1.8118  -12.4773  -45.7869 H         1 UNK         0.3000 
    185 H185        0.3219  -13.0908  -43.5394 H         1 UNK         0.0600 
    186 H186       -0.8621  -10.2904  -43.1073 H         1 UNK         0.0600 
    187 H187       -1.6557  -11.8096  -42.6945 H         1 UNK         0.0600 
    188 H188       -0.1972  -11.3279  -41.8490 H         1 UNK         0.0600 
    189 H189       -0.2087  -11.4015  -45.8401 H         1 UNK         0.3000 
    190 H190       -2.9857  -19.9937  -44.8030 H         1 UNK         0.3000 
    191 H191       -5.7849  -20.4997  -44.6940 H         1 UNK         0.0600 
    192 H192       -3.5792  -21.0927  -42.6521 H         1 UNK         0.0600 
    193 H193       -4.5177  -19.6054  -42.7719 H         1 UNK         0.0600 
    194 H194       -5.3061  -21.1071  -42.3147 H         1 UNK         0.0600 
    195 H195       -2.9925  -22.6868  -44.9198 H         1 UNK         0.3000 
    196 H196       -4.5657  -25.1425  -44.8202 H         1 UNK         0.0600 
    197 H197       -2.2132  -25.0172  -43.9840 H         1 UNK         0.0600 
    198 H198       -1.6485  -24.6220  -45.6053 H         1 UNK         0.0600 
    199 H199       -2.3642  -26.1955  -45.2763 H         1 UNK         0.0600 
    200 H200       -4.5839  -22.8155  -47.1040 H         1 UNK         0.3000 
    201 H201       -5.0332  -22.5802  -49.2438 H         1 UNK         0.0600 
    202 H202       -6.4900  -24.2369  -50.3407 H         1 UNK         0.0600 
    203 H203       -6.9707  -24.0630  -48.6615 H         1 UNK         0.0600 
    204 H204       -6.0433  -25.4731  -49.1727 H         1 UNK         0.0600 
    205 H205       -2.3529  -23.3974  -48.5623 H         1 UNK         0.3000 
    206 H206       -0.4115  -24.0804  -49.3224 H         1 UNK         0.0600 
    207 H207       -0.8863  -22.3237  -51.0231 H         1 UNK         0.0600 
    208 H208       -1.5975  -23.5305  -52.0944 H         1 UNK         0.0600 
    209 H209        0.1162  -23.5957  -51.6927 H         1 UNK         0.0600 
    210 H210       -2.3424  -26.1950  -48.8428 H         1 UNK         0.3000 
    211 H211       -2.7156  -28.3586  -49.0268 H         1 UNK         0.0600 
    212 H212       -0.2457  -28.6008  -48.6745 H         1 UNK         0.0600 
    213 H213       -0.9077  -29.9090  -49.6403 H         1 UNK         0.0600 
    214 H214        0.0011  -28.6233  -50.4203 H         1 UNK         0.0600 
    215 H215       -3.7794  -26.6170  -50.9617 H         1 UNK         0.3000 
    216 H216       -5.2093  -26.6342  -52.5918 H         1 UNK         0.0600 
    217 H217       -6.0427  -28.6327  -53.7077 H         1 UNK         0.0600 
    218 H218       -4.6612  -29.5825  -53.1888 H         1 UNK         0.0600 
    219 H219       -5.8307  -28.9972  -52.0042 H         1 UNK         0.0600 
    220 H220       -2.1778  -26.2663  -52.9226 H         1 UNK         0.3000 
    221 H221       -1.8096  -26.4776  -55.8214 H         1 UNK         0.0600 
    222 H222       -0.1697  -24.9480  -53.7317 H         1 UNK         0.0600 
    223 H223        0.1173  -26.6251  -54.1908 H         1 UNK         0.0600 
    224 H224        0.3227  -25.3413  -55.3710 H         1 UNK         0.0600 
    225 H225       -1.4307  -24.5695  -57.1460 H         1 UNK         0.3000 
    226 H226       -3.5602  -22.6986  -57.0638 H         1 UNK         0.0600 
    227 H227       -2.5449  -23.5520  -59.1615 H         1 UNK         0.0600 
    228 H228       -2.4517  -21.8000  -59.1146 H         1 UNK         0.0600 
    229 H229       -1.0166  -22.7593  -58.7748 H         1 UNK         0.0600 
    230 H230       -0.5285  -22.5367  -55.4680 H         1 UNK         0.3000 
    231 H231        0.0913  -19.7931  -55.5395 H         1 UNK         0.0600 
    232 H232        1.4343  -20.3246  -53.4892 H         1 UNK         0.0600 
    233 H233        1.6653  -21.5273  -54.7477 H         1 UNK         0.0600 
    234 H234        0.6310  -21.8844  -53.3655 H         1 UNK         0.0600 
    235 H235       -2.3976  -21.4484  -53.6830 H         1 UNK         0.3000 
    236 H236       -2.9133  -19.1707  -51.8860 H         1 UNK         0.0600 
    237 H237       -4.7408  -20.6583  -51.0447 H         1 UNK         0.0600 
    238 H238       -4.2901  -21.8754  -52.2383 H         1 UNK         0.0600 
    239 H239       -3.1574  -21.4058  -50.9679 H         1 UNK         0.0600 
    240 H240       -2.9946  -17.9472  -54.0771 H         1 UNK         0.3000 
    241 H241       -4.1249  -16.5001  -55.2896 H         1 UNK         0.0600 
    242 H242       -5.3578  -19.2927  -57.5907 H         1 UNK         0.3800 
    243 H243       -4.0541  -19.3289  -56.4354 H         1 UNK         0.3800 
    244 H244       -6.3387  -15.6912  -54.6261 H         1 UNK         0.0800 
    245 H245       -6.6557  -17.1413  -53.7175 H         1 UNK         0.0800 
    246 H246       -7.2857  -15.8931  -51.5247 H         1 UNK         0.0800 
    247 H247       -6.2790  -17.2978  -51.2455 H         1 UNK         0.0800 
@<TRIPOS>BOND
     1    1    2 1    
     2    1  127 1    
     3    1  128 1    
     4    1  129 1    
     5    2    3 2    
     6    2    4 am   BACKBONE|DICT|INTERRES
     7    4    5 1    
     8    4  130 1    
     9    5    6 1    
    10    5   65 1    
    11    5  131 1    
    12    6    7 1    
    13    6  132 1    
    14    6  133 1    
    15    7    8 1    
    16    8    9 1    
    17    8  134 1    
    18    8  135 1    
    19    9   10 ar   
    20    9   14 ar   
    21   10   11 ar   
    22   10  136 1    
    23   11   12 ar   
    24   11  126 1    
    25   12   13 ar   
    26   12  137 1    
    27   13   14 ar   
    28   13   15 1    
    29   14  138 1    
    30   15   16 1    
    31   15  139 1    
    32   15  140 1    
    33   16   17 1    
    34   17   18 1    
    35   17  141 1    
    36   17  142 1    
    37   18   19 1    
    38   18   67 1    
    39   18  143 1    
    40   19   20 am   BACKBONE|DICT|INTERRES
    41   19  144 1    
    42   20   21 2    
    43   20   22 1    
    44   22   23 1    
    45   22   24 1    
    46   22  145 1    
    47   23  146 1    
    48   23  147 1    
    49   23  148 1    
    50   24   25 am   BACKBONE|DICT|INTERRES
    51   24  149 1    
    52   25   26 2    
    53   25   27 1    
    54   27   28 1    
    55   27   29 1    
    56   27  150 1    
    57   28  151 1    
    58   28  152 1    
    59   28  153 1    
    60   29   30 am   BACKBONE|DICT|INTERRES
    61   29  154 1    
    62   30   31 2    
    63   30   32 1    
    64   32   33 1    
    65   32   34 1    
    66   32  155 1    
    67   33  156 1    
    68   33  157 1    
    69   33  158 1    
    70   34   35 am   BACKBONE|DICT|INTERRES
    71   34  159 1    
    72   35   36 2    
    73   35   37 1    
    74   37   38 1    
    75   37   39 1    
    76   37  160 1    
    77   38  161 1    
    78   38  162 1    
    79   38  163 1    
    80   39   40 am   BACKBONE|DICT|INTERRES
    81   39  164 1    
    82   40   41 2    
    83   40   42 1    
    84   42   43 1    
    85   42   44 1    
    86   42  165 1    
    87   43  166 1    
    88   43  167 1    
    89   43  168 1    
    90   44   45 am   BACKBONE|DICT|INTERRES
    91   44  169 1    
    92   45   46 2    
    93   45   47 1    
    94   47   48 1    
    95   47   49 1    
    96   47  170 1    
    97   48  171 1    
    98   48  172 1    
    99   48  173 1    
   100   49   50 am   BACKBONE|DICT|INTERRES
   101   49  174 1    
   102   50   51 2    
   103   50   52 1    
   104   52   53 1    
   105   52   54 1    
   106   52  175 1    
   107   53  176 1    
   108   53  177 1    
   109   53  178 1    
   110   54   55 am   BACKBONE|DICT|INTERRES
   111   54  179 1    
   112   55   56 2    
   113   55   57 1    
   114   57   58 1    
   115   57   59 1    
   116   57  180 1    
   117   58  181 1    
   118   58  182 1    
   119   58  183 1    
   120   59   60 am   BACKBONE|DICT|INTERRES
   121   59  184 1    
   122   60   61 2    
   123   60   62 1    
   124   62   63 1    
   125   62   64 1    
   126   62  185 1    
   127   63  186 1    
   128   63  187 1    
   129   63  188 1    
   130   64   65 am   BACKBONE|DICT|INTERRES
   131   64  189 1    
   132   65   66 2    
   133   67   68 2    
   134   67   69 am   BACKBONE|DICT|INTERRES
   135   69   70 1    
   136   69  190 1    
   137   70   71 1    
   138   70   72 1    
   139   70  191 1    
   140   71  192 1    
   141   71  193 1    
   142   71  194 1    
   143   72   73 2    
   144   72   74 am   BACKBONE|DICT|INTERRES
   145   74   75 1    
   146   74  195 1    
   147   75   76 1    
   148   75   77 1    
   149   75  196 1    
   150   76  197 1    
   151   76  198 1    
   152   76  199 1    
   153   77   78 2    
   154   77   79 am   BACKBONE|DICT|INTERRES
   155   79   80 1    
   156   79  200 1    
   157   80   81 1    
   158   80   82 1    
   159   80  201 1    
   160   81  202 1    
   161   81  203 1    
   162   81  204 1    
   163   82   83 2    
   164   82   84 am   BACKBONE|DICT|INTERRES
   165   84   85 1    
   166   84  205 1    
   167   85   86 1    
   168   85   87 1    
   169   85  206 1    
   170   86  207 1    
   171   86  208 1    
   172   86  209 1    
   173   87   88 2    
   174   87   89 am   BACKBONE|DICT|INTERRES
   175   89   90 1    
   176   89  210 1    
   177   90   91 1    
   178   90   92 1    
   179   90  211 1    
   180   91  212 1    
   181   91  213 1    
   182   91  214 1    
   183   92   93 2    
   184   92   94 am   BACKBONE|DICT|INTERRES
   185   94   95 1    
   186   94  215 1    
   187   95   96 1    
   188   95   97 1    
   189   95  216 1    
   190   96  217 1    
   191   96  218 1    
   192   96  219 1    
   193   97   98 2    
   194   97   99 am   BACKBONE|DICT|INTERRES
   195   99  100 1    
   196   99  220 1    
   197  100  101 1    
   198  100  102 1    
   199  100  221 1    
   200  101  222 1    
   201  101  223 1    
   202  101  224 1    
   203  102  103 2    
   204  102  104 am   BACKBONE|DICT|INTERRES
   205  104  105 1    
   206  104  225 1    
   207  105  106 1    
   208  105  107 1    
   209  105  226 1    
   210  106  227 1    
   211  106  228 1    
   212  106  229 1    
   213  107  108 2    
   214  107  109 am   BACKBONE|DICT|INTERRES
   215  109  110 1    
   216  109  230 1    
   217  110  111 1    
   218  110  112 1    
   219  110  231 1    
   220  111  232 1    
   221  111  233 1    
   222  111  234 1    
   223  112  113 2    
   224  112  114 am   BACKBONE|DICT|INTERRES
   225  114  115 1    
   226  114  235 1    
   227  115  116 1    
   228  115  117 1    
   229  115  236 1    
   230  116  237 1    
   231  116  238 1    
   232  116  239 1    
   233  117  118 2    
   234  117  119 am   BACKBONE|DICT|INTERRES
   235  119  120 1    
   236  119  240 1    
   237  120  121 1    
   238  120  124 1    
   239  120  241 1    
   240  121  122 am   BACKBONE|DICT|INTERRES
   241  121  123 2    
   242  122  242 1    
   243  122  243 1    
   244  124  125 1    
   245  124  244 1    
   246  124  245 1    
   247  125  126 1    
   248  126  246 1    
   249  126  247 1    
@<TRIPOS>SUBSTRUCTURE
     1 UNK         1 GROUP             0       ****    0 ROOT    
