@<TRIPOS>MOLECULE
3R540
247   249    1
SMALL
USER_CHARGES


@<TRIPOS>ATOM
      1 CA         -0.8327  -15.7443  -48.5217 C.3       0 UNK        -0.1800 
      2 C          -0.9044  -14.4292  -49.2823 C.2       0 UNK         0.5000 
      3 O          -1.8867  -13.7000  -49.1497 O.2       0 UNK        -0.5000 
      4 N           0.1344  -14.1200  -50.0703 N.am      1 UNK        -0.5000 
      5 CA          0.2605  -12.8747  -50.8399 C.3       1 UNK         0.1400 
      6 C6          1.3808  -12.9502  -51.9107 C.3       23 UNK        -0.0398 
      7 S7          3.0457  -13.3400  -51.2514 S.3       23 UNK        -0.2404 
      8 C8          3.4064  -14.9563  -52.0077 C.3       23 UNK        -0.0205 
      9 C9          2.5450  -16.0674  -51.4279 C.ar      23 UNK        -0.0193 
     10 C10         1.4698  -16.5804  -52.1594 C.ar      23 UNK        -0.1150 
     11 C11         0.6825  -17.6092  -51.6358 C.ar      23 UNK        -0.0193 
     12 C12         0.9767  -18.1265  -50.3725 C.ar      23 UNK        -0.1150 
     13 C13         2.0455  -17.6181  -49.6301 C.ar      23 UNK        -0.0193 
     14 C14         2.8289  -16.5902  -50.1623 C.ar      23 UNK        -0.1150 
     15 C15         2.3206  -18.1620  -48.2403 C.3       23 UNK        -0.0205 
     16 S16         3.3122  -19.6850  -48.2987 S.3       23 UNK        -0.2404 
     17 C17         2.8516  -20.4202  -46.6913 C.3       23 UNK        -0.0398 
     18 CA          1.9522  -21.6825  -46.7729 C.3       11 UNK         0.1400 
     19 N           1.6359  -22.1668  -45.4273 N.am      11 UNK        -0.5000 
     20 C           1.0704  -23.3436  -45.1258 C.2       10 UNK         0.5000 
     21 O           0.5933  -24.1094  -45.9622 O.2       10 UNK        -0.5000 
     22 CA          1.0340  -23.7256  -43.6370 C.3       10 UNK         0.1400 
     23 CB          2.4508  -23.9788  -43.0965 C.3       10 UNK        -0.1800 
     24 N           0.4022  -22.6632  -42.8610 N.am      10 UNK        -0.5000 
     25 C          -0.7392  -22.7925  -42.1726 C.2       9 UNK         0.5000 
     26 O          -1.2928  -23.8735  -41.9695 O.2       9 UNK        -0.5000 
     27 CA         -1.3996  -21.5072  -41.6251 C.3       9 UNK         0.1400 
     28 CB         -1.2472  -21.4392  -40.0973 C.3       9 UNK        -0.1800 
     29 N          -0.9071  -20.2539  -42.2060 N.am      9 UNK        -0.5000 
     30 C          -0.9175  -19.9247  -43.5057 C.2       8 UNK         0.5000 
     31 O          -1.3795  -20.6406  -44.3941 O.2       8 UNK        -0.5000 
     32 CA         -0.2000  -18.6198  -43.8957 C.3       8 UNK         0.1400 
     33 CB         -1.1662  -17.4293  -43.8345 C.3       8 UNK        -0.1800 
     34 N           0.9791  -18.3357  -43.0754 N.am      8 UNK        -0.5000 
     35 C           2.0479  -19.1334  -42.9289 C.2       7 UNK         0.5000 
     36 O           2.1598  -20.2363  -43.4661 O.2       7 UNK        -0.5000 
     37 CA          3.1543  -18.6287  -41.9921 C.3       7 UNK         0.1400 
     38 CB          3.9882  -17.5281  -42.6669 C.3       7 UNK        -0.1800 
     39 N           2.5826  -18.1242  -40.7452 N.am      7 UNK        -0.5000 
     40 C           2.2407  -18.8991  -39.7065 C.2       6 UNK         0.5000 
     41 O           2.4474  -20.1120  -39.6620 O.2       6 UNK        -0.5000 
     42 CA          1.5421  -18.2108  -38.5172 C.3       6 UNK         0.1400 
     43 CB          2.5740  -17.7862  -37.4614 C.3       6 UNK        -0.1800 
     44 N           0.7462  -17.0437  -38.9019 N.am      6 UNK        -0.5000 
     45 C          -0.3755  -17.0934  -39.6335 C.2       5 UNK         0.5000 
     46 O          -0.8652  -18.1354  -40.0678 O.2       5 UNK        -0.5000 
     47 CA         -1.0264  -15.7414  -39.9857 C.3       5 UNK         0.1400 
     48 CB         -1.9400  -15.2699  -38.8446 C.3       5 UNK        -0.1800 
     49 N          -0.0663  -14.6792  -40.3118 N.am      5 UNK        -0.5000 
     50 C           0.8641  -14.7599  -41.2716 C.2       4 UNK         0.5000 
     51 O           1.0756  -15.7805  -41.9307 O.2       4 UNK        -0.5000 
     52 CA          1.7385  -13.5162  -41.5082 C.3       4 UNK         0.1400 
     53 CB          2.9245  -13.5098  -40.5315 C.3       4 UNK        -0.1800 
     54 N           2.2554  -13.5156  -42.8765 N.am      4 UNK        -0.5000 
     55 C           1.5138  -13.2648  -43.9616 C.2       3 UNK         0.5000 
     56 O           0.3617  -12.8243  -43.9242 O.2       3 UNK        -0.5000 
     57 CA          2.1557  -13.6293  -45.3105 C.3       3 UNK         0.1400 
     58 CB          1.8345  -15.0877  -45.6777 C.3       3 UNK        -0.1800 
     59 N           1.6854  -12.7661  -46.3904 N.am      3 UNK        -0.5000 
     60 C           2.0841  -11.5028  -46.5932 C.2       2 UNK         0.5000 
     61 O           2.8973  -10.9244  -45.8702 O.2       2 UNK        -0.5000 
     62 CA          1.5116  -10.7961  -47.8382 C.3       2 UNK         0.1400 
     63 CB          2.4443   -9.6925  -48.3788 C.3       2 UNK        -0.1800 
     64 N           1.2380  -11.7842  -48.8808 N.am      2 UNK        -0.5000 
     65 C           0.4152  -11.6384  -49.9251 C.2       1 UNK         0.5000 
     66 O          -0.2219  -10.6113  -50.1637 O.2       1 UNK        -0.5000 
     67 C           0.6976  -21.4850  -47.6521 C.2       11 UNK         0.5000 
     68 O           0.6545  -21.9985  -48.7708 O.2       11 UNK        -0.5000 
     69 N          -0.3029  -20.7596  -47.1346 N.am      12 UNK        -0.5000 
     70 CA         -1.5577  -20.5069  -47.8436 C.3       12 UNK         0.1400 
     71 CB         -2.2005  -19.2079  -47.3362 C.3       12 UNK        -0.1800 
     72 C          -2.5227  -21.6910  -47.6985 C.2       12 UNK         0.5000 
     73 O          -3.2517  -21.9928  -48.6435 O.2       12 UNK        -0.5000 
     74 N          -2.4973  -22.3581  -46.5357 N.am      13 UNK        -0.5000 
     75 CA         -3.2941  -23.5457  -46.2179 C.3       13 UNK         0.1400 
     76 CB         -3.0250  -23.9662  -44.7694 C.3       13 UNK        -0.1800 
     77 C          -3.0503  -24.7249  -47.1781 C.2       13 UNK         0.5000 
     78 O          -4.0044  -25.4127  -47.5412 O.2       13 UNK        -0.5000 
     79 N          -1.8000  -24.8906  -47.6343 N.am      14 UNK        -0.5000 
     80 CA         -1.4004  -25.8511  -48.6687 C.3       14 UNK         0.1400 
     81 CB          0.1307  -25.8453  -48.7918 C.3       14 UNK        -0.1800 
     82 C          -2.0503  -25.5956  -50.0464 C.2       14 UNK         0.5000 
     83 O          -2.1638  -26.5278  -50.8424 O.2       14 UNK        -0.5000 
     84 N          -2.4870  -24.3533  -50.2889 N.am      15 UNK        -0.5000 
     85 CA         -3.2317  -23.9157  -51.4675 C.3       15 UNK         0.1400 
     86 CB         -2.5548  -22.6539  -52.0301 C.3       15 UNK        -0.1800 
     87 C          -4.7202  -23.6744  -51.1346 C.2       15 UNK         0.5000 
     88 O          -5.3811  -22.9085  -51.8371 O.2       15 UNK        -0.5000 
     89 N          -5.2202  -24.3075  -50.0607 N.am      16 UNK        -0.5000 
     90 CA         -6.5971  -24.2506  -49.5560 C.3       16 UNK         0.1400 
     91 CB         -7.5642  -24.9369  -50.5433 C.3       16 UNK        -0.1800 
     92 C          -7.0346  -22.8245  -49.1597 C.2       16 UNK         0.5000 
     93 O          -8.1397  -22.3991  -49.4953 O.2       16 UNK        -0.5000 
     94 N          -6.1357  -22.1160  -48.4611 N.am      17 UNK        -0.5000 
     95 CA         -6.2152  -20.7032  -48.0713 C.3       17 UNK         0.1400 
     96 CB         -7.4515  -20.4105  -47.1948 C.3       17 UNK        -0.1800 
     97 C          -6.0793  -19.7720  -49.2928 C.2       17 UNK         0.5000 
     98 O          -6.8080  -18.7853  -49.4085 O.2       17 UNK        -0.5000 
     99 N          -5.1328  -20.1223  -50.1785 N.am      18 UNK        -0.5000 
    100 CA        -4.7938  -19.4521  -51.4395 C.3       18 UNK         0.1400 
    101 CB        -4.1400  -18.0823  -51.1631 C.3       18 UNK        -0.1800 
    102 C         -5.9774  -19.3710  -52.4298 C.2       18 UNK         0.5000 
    103 O         -6.1335  -18.3720  -53.1354 O.2       18 UNK        -0.5000 
    104 N         -6.7918  -20.4319  -52.4762 N.am      19 UNK        -0.5000 
    105 CA        -7.9910  -20.5421  -53.3037 C.3       19 UNK         0.1400 
    106 CB        -8.9872  -21.4882  -52.6134 C.3       19 UNK        -0.1800 
    107 C         -7.6289  -21.0014  -54.7268 C.2       19 UNK         0.5000 
    108 O         -7.8974  -22.1451  -55.0979 O.2       19 UNK        -0.5000 
    109 N         -6.9754  -20.1077  -55.4823 N.am      20 UNK        -0.5000 
    110 CA        -6.5207  -20.2239  -56.8784 C.3       20 UNK         0.1400 
    111 CB        -7.7029  -20.4809  -57.8320 C.3       20 UNK        -0.1800 
    112 C         -5.3846  -21.2398  -57.1229 C.2       20 UNK         0.5000 
    113 O         -4.5686  -21.0209  -58.0197 O.2       20 UNK        -0.5000 
    114 N         -5.3079  -22.2978  -56.3050 N.am      21 UNK        -0.5000 
    115 CA        -4.2998  -23.3638  -56.3353 C.3       21 UNK         0.1400 
    116 CB        -4.6688  -24.4142  -55.2766 C.3       21 UNK        -0.1800 
    117 C         -2.8488  -22.8796  -56.1312 C.2       21 UNK         0.5000 
    118 O         -1.9144  -23.5923  -56.4992 O.2       21 UNK        -0.5000 
    119 N         -2.6908  -21.6746  -55.5700 N.am      22 UNK        -0.5000 
    120 CA        -1.4192  -20.9465  -55.4644 C.3       22 UNK         0.1400 
    121 C         -0.8764  -20.4101  -56.8265 C.2       22 UNK         0.5000 
    122 N         -1.6754  -20.3425  -57.8866 N.am      22 UNK        -0.7600 
    123 O          0.2959  -20.0614  -56.9312 O.2       22 UNK        -0.5000 
    124 C124       -1.5282  -19.8171  -54.4056 C.3       23 UNK        -0.0398 
    125 S125        0.0423  -19.4881  -53.5456 S.3       23 UNK        -0.2404 
    126 C126       -0.4888  -18.1563  -52.4314 C.3       23 UNK        -0.0205 
    127 H127        0.1958  -15.9952  -48.2672 H         1 UNK         0.0600 
    128 H128       -1.2521  -16.5497  -49.1244 H         1 UNK         0.0600 
    129 H129       -1.3993  -15.6807  -47.5925 H         1 UNK         0.0600 
    130 H130        0.9026  -14.7707  -50.1657 H         1 UNK         0.3000 
    131 H131       -0.6799  -12.7409  -51.3792 H         1 UNK         0.0600 
    132 H132        1.1087  -13.6920  -52.6617 H         1 UNK         0.0800 
    133 H133        1.4446  -12.0064  -52.4552 H         1 UNK         0.0800 
    134 H134        3.2819  -14.8896  -53.0897 H         1 UNK         0.0800 
    135 H135        4.4575  -15.1950  -51.8390 H         1 UNK         0.0800 
    136 H136        1.2464  -16.1844  -53.1402 H         1 UNK         0.1150 
    137 H137        0.3728  -18.9245  -49.9640 H         1 UNK         0.1150 
    138 H138        3.6573  -16.1934  -49.5919 H         1 UNK         0.1150 
    139 H139        2.8454  -17.4232  -47.6341 H         1 UNK         0.0800 
    140 H140        1.3680  -18.3497  -47.7425 H         1 UNK         0.0800 
    141 H141        2.3756  -19.6583  -46.0732 H         1 UNK         0.0800 
    142 H142        3.7778  -20.6728  -46.1732 H         1 UNK         0.0800 
    143 H143        2.5430  -22.4658  -47.2530 H         1 UNK         0.0600 
    144 H144        1.9591  -21.5742  -44.6659 H         1 UNK         0.3000 
    145 H145        0.4701  -24.6571  -43.5553 H         1 UNK         0.0600 
    146 H146        2.4171  -24.3295  -42.0649 H         1 UNK         0.0600 
    147 H147        2.9629  -24.7423  -43.6833 H         1 UNK         0.0600 
    148 H148        3.0638  -23.0768  -43.1200 H         1 UNK         0.0600 
    149 H149        0.7947  -21.7355  -42.9676 H         1 UNK         0.3000 
    150 H150       -2.4635  -21.5762  -41.8596 H         1 UNK         0.0600 
    151 H151       -1.5917  -22.3594  -39.6236 H         1 UNK         0.0600 
    152 H152       -1.8366  -20.6239  -39.6783 H         1 UNK         0.0600 
    153 H153       -0.2073  -21.2875  -39.8054 H         1 UNK         0.0600 
    154 H154       -0.5496  -19.5714  -41.5462 H         1 UNK         0.3000 
    155 H155        0.1422  -18.7237  -44.9267 H         1 UNK         0.0600 
    156 H156       -1.5470  -17.2771  -42.8248 H         1 UNK         0.0600 
    157 H157       -0.6791  -16.5066  -44.1501 H         1 UNK         0.0600 
    158 H158       -2.0240  -17.5857  -44.4894 H         1 UNK         0.0600 
    159 H159        0.9844  -17.4339  -42.6011 H         1 UNK         0.3000 
    160 H160        3.8196  -19.4669  -41.7740 H         1 UNK         0.0600 
    161 H161        3.3915  -16.6473  -42.9026 H         1 UNK         0.0600 
    162 H162        4.4246  -17.8872  -43.5998 H         1 UNK         0.0600 
    163 H163        4.8099  -17.2107  -42.0249 H         1 UNK         0.0600 
    164 H164        2.3116  -17.1502  -40.7346 H         1 UNK         0.3000 
    165 H165        0.8699  -18.9426  -38.0637 H         1 UNK         0.0600 
    166 H166        2.0875  -17.3718  -36.5782 H         1 UNK         0.0600 
    167 H167        3.1698  -18.6387  -37.1325 H         1 UNK         0.0600 
    168 H168        3.2624  -17.0350  -37.8506 H         1 UNK         0.0600 
    169 H169        1.0823  -16.1416  -38.5986 H         1 UNK         0.3000 
    170 H170       -1.6471  -15.8994  -40.8693 H         1 UNK         0.0600 
    171 H171       -1.3734  -15.0486  -37.9393 H         1 UNK         0.0600 
    172 H172       -2.4903  -14.3715  -39.1249 H         1 UNK         0.0600 
    173 H173       -2.6765  -16.0342  -38.5926 H         1 UNK         0.0600 
    174 H174       -0.1655  -13.8145  -39.7996 H         1 UNK         0.3000 
    175 H175        1.1369  -12.6186  -41.3505 H         1 UNK         0.0600 
    176 H176        3.5574  -12.6357  -40.6864 H         1 UNK         0.0600 
    177 H177        3.5468  -14.3987  -40.6456 H         1 UNK         0.0600 
    178 H178        2.5811  -13.4804  -39.4966 H         1 UNK         0.0600 
    179 H179        3.1775  -13.9066  -42.9993 H         1 UNK         0.3000 
    180 H180        3.2395  -13.5227  -45.2265 H         1 UNK         0.0600 
    181 H181        0.7613  -15.2487  -45.7853 H         1 UNK         0.0600 
    182 H182        2.1918  -15.7767  -44.9114 H         1 UNK         0.0600 
    183 H183        2.3119  -15.3667  -46.6162 H         1 UNK         0.0600 
    184 H184        0.9433  -13.1336  -46.9658 H         1 UNK         0.3000 
    185 H185        0.5682  -10.3391  -47.5332 H         1 UNK         0.0600 
    186 H186        2.6380   -8.9332  -47.6202 H         1 UNK         0.0600 
    187 H187        3.4058  -10.1019  -48.6907 H         1 UNK         0.0600 
    188 H188        2.0051   -9.1816  -49.2355 H         1 UNK         0.0600 
    189 H189        1.7469  -12.6535  -48.7981 H         1 UNK         0.3000 
    190 H190       -0.2642  -20.4774  -46.1647 H         1 UNK         0.3000 
    191 H191       -1.3482  -20.3769  -48.9077 H         1 UNK         0.0600 
    192 H192       -1.4938  -18.3794  -47.3686 H         1 UNK         0.0600 
    193 H193       -3.0548  -18.9323  -47.9556 H         1 UNK         0.0600 
    194 H194       -2.5608  -19.3010  -46.3120 H         1 UNK         0.0600 
    195 H195       -1.9147  -21.9902  -45.7910 H         1 UNK         0.3000 
    196 H196       -4.3460  -23.2653  -46.2985 H         1 UNK         0.0600 
    197 H197       -3.6481  -24.8148  -44.4847 H         1 UNK         0.0600 
    198 H198       -3.2439  -23.1544  -44.0756 H         1 UNK         0.0600 
    199 H199       -1.9852  -24.2611  -44.6275 H         1 UNK         0.0600 
    200 H200       -1.0584  -24.3207  -47.2410 H         1 UNK         0.3000 
    201 H201       -1.7141  -26.8440  -48.3406 H         1 UNK         0.0600 
    202 H202        0.6022  -26.1386  -47.8537 H         1 UNK         0.0600 
    203 H203        0.5071  -24.8577  -49.0616 H         1 UNK         0.0600 
    204 H204        0.4672  -26.5472  -49.5560 H         1 UNK         0.0600 
    205 H205       -2.3872  -23.6555  -49.5612 H         1 UNK         0.3000 
    206 H206       -3.2062  -24.6843  -52.2421 H         1 UNK         0.0600 
    207 H207       -1.5322  -22.8636  -52.3440 H         1 UNK         0.0600 
    208 H208       -3.0879  -22.2792  -52.9027 H         1 UNK         0.0600 
    209 H209       -2.5171  -21.8522  -51.2925 H         1 UNK         0.0600 
    210 H210       -4.5896  -24.8774  -49.5089 H         1 UNK         0.3000 
    211 H211       -6.6083  -24.8328  -48.6335 H         1 UNK         0.0600 
    212 H212       -7.6090  -24.4147  -51.4986 H         1 UNK         0.0600 
    213 H213       -8.5771  -24.9727  -50.1409 H         1 UNK         0.0600 
    214 H214       -7.2586  -25.9643  -50.7403 H         1 UNK         0.0600 
    215 H215       -5.2247  -22.5366  -48.3240 H         1 UNK         0.3000 
    216 H216       -5.3386  -20.5121  -47.4513 H         1 UNK         0.0600 
    217 H217       -7.3991  -19.4044  -46.7773 H         1 UNK         0.0600 
    218 H218       -7.5157  -21.1059  -46.3581 H         1 UNK         0.0600 
    219 H219       -8.3813  -20.4760  -47.7600 H         1 UNK         0.0600 
    220 H220       -4.5948  -20.9542  -49.9677 H         1 UNK         0.3000 
    221 H221       -4.0458  -20.0786  -51.9238 H         1 UNK         0.0600 
    222 H222       -4.8525  -17.3732  -50.7407 H         1 UNK         0.0600 
    223 H223       -3.3087  -18.1746  -50.4644 H         1 UNK         0.0600 
    224 H224       -3.7472  -17.6430  -52.0807 H         1 UNK         0.0600 
    225 H225       -6.5282  -21.2625  -51.9546 H         1 UNK         0.3000 
    226 H226       -8.4696  -19.5636  -53.3826 H         1 UNK         0.0600 
    227 H227       -9.2860  -21.0991  -51.6400 H         1 UNK         0.0600 
    228 H228       -9.8938  -21.6063  -53.2080 H         1 UNK         0.0600 
    229 H229       -8.5606  -22.4794  -52.4601 H         1 UNK         0.0600 
    230 H230       -6.7426  -19.2298  -55.0304 H         1 UNK         0.3000 
    231 H231       -6.1091  -19.2451  -57.1297 H         1 UNK         0.0600 
    232 H232       -8.1555  -21.4591  -57.6681 H         1 UNK         0.0600 
    233 H233       -7.3770  -20.4456  -58.8723 H         1 UNK         0.0600 
    234 H234       -8.4797  -19.7261  -57.7099 H         1 UNK         0.0600 
    235 H235       -6.0683  -22.4129  -55.6418 H         1 UNK         0.3000 
    236 H236       -4.3469  -23.8339  -57.3194 H         1 UNK         0.0600 
    237 H237       -5.6505  -24.8451  -55.4741 H         1 UNK         0.0600 
    238 H238       -3.9498  -25.2345  -55.2659 H         1 UNK         0.0600 
    239 H239       -4.6902  -23.9808  -54.2771 H         1 UNK         0.0600 
    240 H240       -3.5245  -21.1649  -55.3218 H         1 UNK         0.3000 
    241 H241       -0.6844  -21.6720  -55.1094 H         1 UNK         0.0600 
    242 H242       -2.6475  -20.6313  -57.8405 H         1 UNK         0.3800 
    243 H243       -1.3042  -20.0008  -58.7589 H         1 UNK         0.3800 
    244 H244       -1.9070  -18.8936  -54.8478 H         1 UNK         0.0800 
    245 H245       -2.2469  -20.0914  -53.6335 H         1 UNK         0.0800 
    246 H246       -0.9528  -17.3547  -53.0083 H         1 UNK         0.0800 
    247 H247       -1.2541  -18.5384  -51.7554 H         1 UNK         0.0800 
@<TRIPOS>BOND
     1    1    2 1    
     2    1  127 1    
     3    1  128 1    
     4    1  129 1    
     5    2    3 2    
     6    2    4 am   BACKBONE|DICT|INTERRES
     7    4    5 1    
     8    4  130 1    
     9    5    6 1    
    10    5   65 1    
    11    5  131 1    
    12    6    7 1    
    13    6  132 1    
    14    6  133 1    
    15    7    8 1    
    16    8    9 1    
    17    8  134 1    
    18    8  135 1    
    19    9   10 ar   
    20    9   14 ar   
    21   10   11 ar   
    22   10  136 1    
    23   11   12 ar   
    24   11  126 1    
    25   12   13 ar   
    26   12  137 1    
    27   13   14 ar   
    28   13   15 1    
    29   14  138 1    
    30   15   16 1    
    31   15  139 1    
    32   15  140 1    
    33   16   17 1    
    34   17   18 1    
    35   17  141 1    
    36   17  142 1    
    37   18   19 1    
    38   18   67 1    
    39   18  143 1    
    40   19   20 am   BACKBONE|DICT|INTERRES
    41   19  144 1    
    42   20   21 2    
    43   20   22 1    
    44   22   23 1    
    45   22   24 1    
    46   22  145 1    
    47   23  146 1    
    48   23  147 1    
    49   23  148 1    
    50   24   25 am   BACKBONE|DICT|INTERRES
    51   24  149 1    
    52   25   26 2    
    53   25   27 1    
    54   27   28 1    
    55   27   29 1    
    56   27  150 1    
    57   28  151 1    
    58   28  152 1    
    59   28  153 1    
    60   29   30 am   BACKBONE|DICT|INTERRES
    61   29  154 1    
    62   30   31 2    
    63   30   32 1    
    64   32   33 1    
    65   32   34 1    
    66   32  155 1    
    67   33  156 1    
    68   33  157 1    
    69   33  158 1    
    70   34   35 am   BACKBONE|DICT|INTERRES
    71   34  159 1    
    72   35   36 2    
    73   35   37 1    
    74   37   38 1    
    75   37   39 1    
    76   37  160 1    
    77   38  161 1    
    78   38  162 1    
    79   38  163 1    
    80   39   40 am   BACKBONE|DICT|INTERRES
    81   39  164 1    
    82   40   41 2    
    83   40   42 1    
    84   42   43 1    
    85   42   44 1    
    86   42  165 1    
    87   43  166 1    
    88   43  167 1    
    89   43  168 1    
    90   44   45 am   BACKBONE|DICT|INTERRES
    91   44  169 1    
    92   45   46 2    
    93   45   47 1    
    94   47   48 1    
    95   47   49 1    
    96   47  170 1    
    97   48  171 1    
    98   48  172 1    
    99   48  173 1    
   100   49   50 am   BACKBONE|DICT|INTERRES
   101   49  174 1    
   102   50   51 2    
   103   50   52 1    
   104   52   53 1    
   105   52   54 1    
   106   52  175 1    
   107   53  176 1    
   108   53  177 1    
   109   53  178 1    
   110   54   55 am   BACKBONE|DICT|INTERRES
   111   54  179 1    
   112   55   56 2    
   113   55   57 1    
   114   57   58 1    
   115   57   59 1    
   116   57  180 1    
   117   58  181 1    
   118   58  182 1    
   119   58  183 1    
   120   59   60 am   BACKBONE|DICT|INTERRES
   121   59  184 1    
   122   60   61 2    
   123   60   62 1    
   124   62   63 1    
   125   62   64 1    
   126   62  185 1    
   127   63  186 1    
   128   63  187 1    
   129   63  188 1    
   130   64   65 am   BACKBONE|DICT|INTERRES
   131   64  189 1    
   132   65   66 2    
   133   67   68 2    
   134   67   69 am   BACKBONE|DICT|INTERRES
   135   69   70 1    
   136   69  190 1    
   137   70   71 1    
   138   70   72 1    
   139   70  191 1    
   140   71  192 1    
   141   71  193 1    
   142   71  194 1    
   143   72   73 2    
   144   72   74 am   BACKBONE|DICT|INTERRES
   145   74   75 1    
   146   74  195 1    
   147   75   76 1    
   148   75   77 1    
   149   75  196 1    
   150   76  197 1    
   151   76  198 1    
   152   76  199 1    
   153   77   78 2    
   154   77   79 am   BACKBONE|DICT|INTERRES
   155   79   80 1    
   156   79  200 1    
   157   80   81 1    
   158   80   82 1    
   159   80  201 1    
   160   81  202 1    
   161   81  203 1    
   162   81  204 1    
   163   82   83 2    
   164   82   84 am   BACKBONE|DICT|INTERRES
   165   84   85 1    
   166   84  205 1    
   167   85   86 1    
   168   85   87 1    
   169   85  206 1    
   170   86  207 1    
   171   86  208 1    
   172   86  209 1    
   173   87   88 2    
   174   87   89 am   BACKBONE|DICT|INTERRES
   175   89   90 1    
   176   89  210 1    
   177   90   91 1    
   178   90   92 1    
   179   90  211 1    
   180   91  212 1    
   181   91  213 1    
   182   91  214 1    
   183   92   93 2    
   184   92   94 am   BACKBONE|DICT|INTERRES
   185   94   95 1    
   186   94  215 1    
   187   95   96 1    
   188   95   97 1    
   189   95  216 1    
   190   96  217 1    
   191   96  218 1    
   192   96  219 1    
   193   97   98 2    
   194   97   99 am   BACKBONE|DICT|INTERRES
   195   99  100 1    
   196   99  220 1    
   197  100  101 1    
   198  100  102 1    
   199  100  221 1    
   200  101  222 1    
   201  101  223 1    
   202  101  224 1    
   203  102  103 2    
   204  102  104 am   BACKBONE|DICT|INTERRES
   205  104  105 1    
   206  104  225 1    
   207  105  106 1    
   208  105  107 1    
   209  105  226 1    
   210  106  227 1    
   211  106  228 1    
   212  106  229 1    
   213  107  108 2    
   214  107  109 am   BACKBONE|DICT|INTERRES
   215  109  110 1    
   216  109  230 1    
   217  110  111 1    
   218  110  112 1    
   219  110  231 1    
   220  111  232 1    
   221  111  233 1    
   222  111  234 1    
   223  112  113 2    
   224  112  114 am   BACKBONE|DICT|INTERRES
   225  114  115 1    
   226  114  235 1    
   227  115  116 1    
   228  115  117 1    
   229  115  236 1    
   230  116  237 1    
   231  116  238 1    
   232  116  239 1    
   233  117  118 2    
   234  117  119 am   BACKBONE|DICT|INTERRES
   235  119  120 1    
   236  119  240 1    
   237  120  121 1    
   238  120  124 1    
   239  120  241 1    
   240  121  122 am   BACKBONE|DICT|INTERRES
   241  121  123 2    
   242  122  242 1    
   243  122  243 1    
   244  124  125 1    
   245  124  244 1    
   246  124  245 1    
   247  125  126 1    
   248  126  246 1    
   249  126  247 1    
@<TRIPOS>SUBSTRUCTURE
     1 UNK         1 GROUP             0       ****    0 ROOT    
