@<TRIPOS>MOLECULE
3R540
247   249    1
SMALL
USER_CHARGES


@<TRIPOS>ATOM
      1 CA         -2.1272  -13.1756  -47.4855 C.3       0 UNK        -0.1800 
      2 C          -0.6972  -12.9371  -47.9484 C.2       0 UNK         0.5000 
      3 O          -0.4329  -11.9564  -48.6448 O.2       0 UNK        -0.5000 
      4 N           0.2299  -13.8172  -47.5523 N.am      1 UNK        -0.5000 
      5 CA          1.6614  -13.7209  -47.8425 C.3       1 UNK         0.1400 
      6 C6          2.3706  -15.0704  -47.5858 C.3       23 UNK        -0.0398 
      7 S7          4.1336  -15.0749  -48.0611 S.3       23 UNK        -0.2404 
      8 C8          4.0528  -15.5199  -49.8250 C.3       23 UNK        -0.0205 
      9 C9          3.4985  -16.9188  -50.0477 C.ar      23 UNK        -0.0193 
     10 C10         2.2572  -17.0949  -50.6671 C.ar      23 UNK        -0.1150 
     11 C11         1.7508  -18.3789  -50.8849 C.ar      23 UNK        -0.0193 
     12 C12         2.4998  -19.4881  -50.4877 C.ar      23 UNK        -0.1150 
     13 C13         3.7256  -19.3260  -49.8369 C.ar      23 UNK        -0.0193 
     14 C14         4.2264  -18.0378  -49.6320 C.ar      23 UNK        -0.1150 
     15 C15         4.4991  -20.5391  -49.3409 C.3       23 UNK        -0.0205 
     16 S16         3.8993  -21.0980  -47.7117 S.3       23 UNK        -0.2404 
     17 C17         2.3030  -21.8501  -48.1703 C.3       23 UNK        -0.0398 
     18 CA          1.8338  -22.9278  -47.1677 C.3       11 UNK         0.1400 
     19 N           1.4706  -22.3602  -45.8664 N.am      11 UNK        -0.5000 
     20 C           1.4012  -23.0658  -44.7299 C.2       10 UNK         0.5000 
     21 O           1.7104  -24.2545  -44.6442 O.2       10 UNK        -0.5000 
     22 CA          0.8675  -22.3328  -43.4837 C.3       10 UNK         0.1400 
     23 CB          1.9957  -21.5617  -42.7825 C.3       10 UNK        -0.1800 
     24 N          -0.2379  -21.4197  -43.7795 N.am      10 UNK        -0.5000 
     25 C          -1.4255  -21.7953  -44.2758 C.2       9 UNK         0.5000 
     26 O          -1.7340  -22.9651  -44.4968 O.2       9 UNK        -0.5000 
     27 CA         -2.4283  -20.6790  -44.6190 C.3       9 UNK         0.1400 
     28 CB         -3.2796  -20.3260  -43.3912 C.3       9 UNK        -0.1800 
     29 N          -1.8048  -19.4678  -45.1569 N.am      9 UNK        -0.5000 
     30 C          -1.0518  -19.4127  -46.2658 C.2       8 UNK         0.5000 
     31 O          -0.7737  -20.3958  -46.9520 O.2       8 UNK        -0.5000 
     32 CA         -0.4610  -18.0386  -46.6314 C.3       8 UNK         0.1400 
     33 CB         -1.5312  -17.1111  -47.2284 C.3       8 UNK        -0.1800 
     34 N           0.1709  -17.3968  -45.4772 N.am      8 UNK        -0.5000 
     35 C           1.2742  -17.8655  -44.8747 C.2       7 UNK         0.5000 
     36 O           1.9365  -18.8117  -45.2989 O.2       7 UNK        -0.5000 
     37 CA          1.6723  -17.2031  -43.5438 C.3       7 UNK         0.1400 
     38 CB          2.5544  -15.9679  -43.7714 C.3       7 UNK        -0.1800 
     39 N           0.5063  -16.8301  -42.7426 N.am      7 UNK        -0.5000 
     40 C          -0.2828  -17.7115  -42.1120 C.2       6 UNK         0.5000 
     41 O          -0.0966  -18.9277  -42.1296 O.2       6 UNK        -0.5000 
     42 CA         -1.5019  -17.1411  -41.3630 C.3       6 UNK         0.1400 
     43 CB         -1.1071  -16.7085  -39.9432 C.3       6 UNK        -0.1800 
     44 N          -2.1241  -16.0119  -42.0561 N.am      6 UNK        -0.5000 
     45 C          -2.7202  -16.0867  -43.2548 C.2       5 UNK         0.5000 
     46 O          -2.8260  -17.1274  -43.8999 O.2       5 UNK        -0.5000 
     47 CA         -3.2354  -14.7677  -43.8588 C.3       5 UNK         0.1400 
     48 CB         -4.6828  -14.5001  -43.4229 C.3       5 UNK        -0.1800 
     49 N          -2.4000  -13.6154  -43.5111 N.am      5 UNK        -0.5000 
     50 C          -1.1182  -13.4728  -43.8699 C.2       4 UNK         0.5000 
     51 O          -0.5114  -14.2876  -44.5712 O.2       4 UNK        -0.5000 
     52 CA         -0.4044  -12.2178  -43.3470 C.3       4 UNK         0.1400 
     53 CB          0.9196  -12.5692  -42.6501 C.3       4 UNK        -0.1800 
     54 N          -0.1558  -11.3036  -44.4573 N.am      4 UNK        -0.5000 
     55 C          -1.0000  -10.3308  -44.8324 C.2       3 UNK         0.5000 
     56 O          -2.0504  -10.0930  -44.2338 O.2       3 UNK        -0.5000 
     57 CA         -0.6659   -9.5027  -46.0937 C.3       3 UNK         0.1400 
     58 CB         -0.8178   -7.9859  -45.8554 C.3       3 UNK        -0.1800 
     59 N           0.6215   -9.8264  -46.7166 N.am      3 UNK        -0.5000 
     60 C           1.8606   -9.5674  -46.2686 C.2       2 UNK         0.5000 
     61 O           2.1056   -8.9237  -45.2476 O.2       2 UNK        -0.5000 
     62 CA          3.0127  -10.1797  -47.1013 C.3       2 UNK         0.1400 
     63 CB          4.3370  -10.2845  -46.3160 C.3       2 UNK        -0.1800 
     64 N           2.6477  -11.4781  -47.6878 N.am      2 UNK        -0.5000 
     65 C           2.2463  -12.5645  -47.0104 C.2       1 UNK         0.5000 
     66 O           2.2358  -12.6419  -45.7822 O.2       1 UNK        -0.5000 
     67 C           0.6575  -23.7230  -47.7662 C.2       11 UNK         0.5000 
     68 O           0.8614  -24.8230  -48.2812 O.2       11 UNK        -0.5000 
     69 N          -0.5510  -23.1495  -47.6931 N.am      12 UNK        -0.5000 
     70 CA         -1.7763  -23.6877  -48.2840 C.3       12 UNK         0.1400 
     71 CB         -2.8502  -22.5938  -48.2733 C.3       12 UNK        -0.1800 
     72 C          -2.3095  -24.9673  -47.6140 C.2       12 UNK         0.5000 
     73 O          -3.1623  -25.6282  -48.2025 O.2       12 UNK        -0.5000 
     74 N          -1.8041  -25.3068  -46.4201 N.am      13 UNK        -0.5000 
     75 CA         -2.2044  -26.4418  -45.5798 C.3       13 UNK         0.1400 
     76 CB         -1.3003  -26.4726  -44.3371 C.3       13 UNK        -0.1800 
     77 C          -2.2078  -27.8253  -46.2665 C.2       13 UNK         0.5000 
     78 O          -2.9165  -28.7205  -45.8045 O.2       13 UNK        -0.5000 
     79 N          -1.4355  -27.9799  -47.3514 N.am      14 UNK        -0.5000 
     80 CA         -1.4026  -29.1774  -48.1928 C.3       14 UNK         0.1400 
     81 CB         -0.2400  -29.0526  -49.1896 C.3       14 UNK        -0.1800 
     82 C          -2.7259  -29.4452  -48.9420 C.2       14 UNK         0.5000 
     83 O          -3.0843  -30.6098  -49.1183 O.2       14 UNK        -0.5000 
     84 N          -3.4156  -28.3709  -49.3514 N.am      15 UNK        -0.5000 
     85 CA         -4.6970  -28.3245  -50.0658 C.3       15 UNK         0.1400 
     86 CB         -4.7506  -29.2749  -51.2835 C.3       15 UNK        -0.1800 
     87 C          -4.9283  -26.8798  -50.5308 C.2       15 UNK         0.5000 
     88 O          -5.9569  -26.2830  -50.2118 O.2       15 UNK        -0.5000 
     89 N          -3.9301  -26.3457  -51.2421 N.am      16 UNK        -0.5000 
     90 CA         -3.7837  -24.9653  -51.6845 C.3       16 UNK         0.1400 
     91 CB         -4.8009  -24.6239  -52.7898 C.3       16 UNK        -0.1800 
     92 C          -2.3456  -24.8115  -52.1995 C.2       16 UNK         0.5000 
     93 O          -1.7401  -25.8052  -52.6131 O.2       16 UNK        -0.5000 
     94 N          -1.8307  -23.5800  -52.1729 N.am      17 UNK        -0.5000 
     95 CA         -0.5104  -23.2198  -52.6869 C.3       17 UNK         0.1400 
     96 CB          0.3165  -22.5801  -51.5638 C.3       17 UNK        -0.1800 
     97 C          -0.6162  -22.2838  -53.9027 C.2       17 UNK         0.5000 
     98 O           0.1772  -22.4304  -54.8335 O.2       17 UNK        -0.5000 
     99 N          -1.5935  -21.3644  -53.9013 N.am      18 UNK        -0.5000 
    100 CA        -1.8557  -20.4487  -55.0208 C.3       18 UNK         0.1400 
    101 CB        -0.9488  -19.2059  -54.9243 C.3       18 UNK        -0.1800 
    102 C         -3.3443  -20.0755  -55.1712 C.2       18 UNK         0.5000 
    103 O         -3.6573  -19.1819  -55.9596 O.2       18 UNK        -0.5000 
    104 N         -4.2295  -20.7723  -54.4416 N.am      19 UNK        -0.5000 
    105 CA        -5.6870  -20.5931  -54.3819 C.3       19 UNK         0.1400 
    106 CB        -6.3300  -20.8030  -55.7701 C.3       19 UNK        -0.1800 
    107 C         -6.1240  -19.2649  -53.7230 C.2       19 UNK         0.5000 
    108 O         -5.2850  -18.4744  -53.2813 O.2       19 UNK        -0.5000 
    109 N         -7.4481  -19.0766  -53.6113 N.am      20 UNK        -0.5000 
    110 CA        -8.1268  -17.9857  -52.9015 C.3       20 UNK         0.1400 
    111 CB        -7.9099  -16.6386  -53.6286 C.3       20 UNK        -0.1800 
    112 C         -7.7348  -17.9792  -51.4082 C.2       20 UNK         0.5000 
    113 O         -7.9773  -18.9749  -50.7231 O.2       20 UNK        -0.5000 
    114 N         -7.0974  -16.8984  -50.9373 N.am      21 UNK        -0.5000 
    115 CA        -6.5349  -16.7745  -49.5877 C.3       21 UNK         0.1400 
    116 CB        -6.1093  -15.3153  -49.3587 C.3       21 UNK        -0.1800 
    117 C         -5.3493  -17.7267  -49.3180 C.2       21 UNK         0.5000 
    118 O         -5.0268  -17.9708  -48.1556 O.2       21 UNK        -0.5000 
    119 N         -4.7362  -18.2460  -50.3877 N.am      22 UNK        -0.5000 
    120 CA        -3.6359  -19.2149  -50.3786 C.3       22 UNK         0.1400 
    121 C         -4.0828  -20.6024  -50.9285 C.2       22 UNK         0.5000 
    122 N         -5.3452  -20.9888  -50.7869 N.am      22 UNK        -0.7600 
    123 O         -3.2921  -21.3400  -51.5133 O.2       22 UNK        -0.5000 
    124 C124       -2.3961  -18.6301  -51.1091 C.3       23 UNK        -0.0398 
    125 S125       -0.8388  -19.0601  -50.2729 S.3       23 UNK        -0.2404 
    126 C126        0.3855  -18.5719  -51.5231 C.3       23 UNK        -0.0205 
    127 H127       -2.2295  -14.1317  -46.9739 H         1 UNK         0.0600 
    128 H128       -2.8042  -13.1759  -48.3397 H         1 UNK         0.0600 
    129 H129       -2.4388  -12.3877  -46.8003 H         1 UNK         0.0600 
    130 H130       -0.0281  -14.5129  -46.8653 H         1 UNK         0.3000 
    131 H131        1.7706  -13.4856  -48.9034 H         1 UNK         0.0600 
    132 H132        2.3079  -15.3368  -46.5325 H         1 UNK         0.0800 
    133 H133        1.8527  -15.8707  -48.1147 H         1 UNK         0.0800 
    134 H134        3.4599  -14.7754  -50.3582 H         1 UNK         0.0800 
    135 H135        5.0575  -15.4666  -50.2464 H         1 UNK         0.0800 
    136 H136        1.6815  -16.2327  -50.9732 H         1 UNK         0.1150 
    137 H137        2.1056  -20.4782  -50.6540 H         1 UNK         0.1150 
    138 H138        5.1762  -17.9020  -49.1338 H         1 UNK         0.1150 
    139 H139        4.4337  -21.3524  -50.0651 H         1 UNK         0.0800 
    140 H140        5.5592  -20.2951  -49.2570 H         1 UNK         0.0800 
    141 H141        1.5569  -21.0587  -48.2651 H         1 UNK         0.0800 
    142 H142        2.4159  -22.2920  -49.1619 H         1 UNK         0.0800 
    143 H143        2.6567  -23.6311  -47.0215 H         1 UNK         0.0600 
    144 H144        1.1925  -21.3874  -45.8578 H         1 UNK         0.3000 
    145 H145        0.4930  -23.0902  -42.7919 H         1 UNK         0.0600 
    146 H146        1.6483  -21.1151  -41.8507 H         1 UNK         0.0600 
    147 H147        2.8268  -22.2234  -42.5355 H         1 UNK         0.0600 
    148 H148        2.3879  -20.7619  -43.4113 H         1 UNK         0.0600 
    149 H149       -0.0930  -20.4409  -43.5577 H         1 UNK         0.3000 
    150 H150       -3.1000  -21.0628  -45.3869 H         1 UNK         0.0600 
    151 H151       -3.7844  -21.2098  -42.9990 H         1 UNK         0.0600 
    152 H152       -4.0503  -19.5966  -43.6407 H         1 UNK         0.0600 
    153 H153       -2.6715  -19.9126  -42.5872 H         1 UNK         0.0600 
    154 H154       -2.0203  -18.6013  -44.6690 H         1 UNK         0.3000 
    155 H155        0.3034  -18.2044  -47.3943 H         1 UNK         0.0600 
    156 H156       -1.0747  -16.2501  -47.7125 H         1 UNK         0.0600 
    157 H157       -2.2290  -16.7493  -46.4742 H         1 UNK         0.0600 
    158 H158       -2.1198  -17.6261  -47.9878 H         1 UNK         0.0600 
    159 H159       -0.3183  -16.6211  -45.0510 H         1 UNK         0.3000 
    160 H160        2.2577  -17.9316  -42.9781 H         1 UNK         0.0600 
    161 H161        2.0089  -15.1718  -44.2762 H         1 UNK         0.0600 
    162 H162        3.4233  -16.2132  -44.3835 H         1 UNK         0.0600 
    163 H163        2.9241  -15.5691  -42.8268 H         1 UNK         0.0600 
    164 H164        0.2610  -15.8513  -42.7236 H         1 UNK         0.3000 
    165 H165       -2.2454  -17.9361  -41.2815 H         1 UNK         0.0600 
    166 H166       -0.3841  -15.8919  -39.9560 H         1 UNK         0.0600 
    167 H167       -1.9770  -16.3787  -39.3750 H         1 UNK         0.0600 
    168 H168       -0.6571  -17.5369  -39.3943 H         1 UNK         0.0600 
    169 H169       -2.0828  -15.1151  -41.5955 H         1 UNK         0.3000 
    170 H170       -3.2237  -14.8786  -44.9443 H         1 UNK         0.0600 
    171 H171       -5.3310  -15.3363  -43.6891 H         1 UNK         0.0600 
    172 H172       -4.7597  -14.3549  -42.3447 H         1 UNK         0.0600 
    173 H173       -5.0837  -13.6118  -43.9116 H         1 UNK         0.0600 
    174 H174       -2.8381  -12.8901  -42.9612 H         1 UNK         0.3000 
    175 H175       -1.0371  -11.7342  -42.5997 H         1 UNK         0.0600 
    176 H176        1.4032  -11.6753  -42.2561 H         1 UNK         0.0600 
    177 H177        0.7516  -13.2455  -41.8112 H         1 UNK         0.0600 
    178 H178        1.6235  -13.0547  -43.3236 H         1 UNK         0.0600 
    179 H179        0.6722  -11.4979  -45.0097 H         1 UNK         0.3000 
    180 H180       -1.4175   -9.7859  -46.8320 H         1 UNK         0.0600 
    181 H181       -0.5831   -7.4184  -46.7559 H         1 UNK         0.0600 
    182 H182       -1.8416   -7.7363  -45.5748 H         1 UNK         0.0600 
    183 H183       -0.1693   -7.6313  -45.0542 H         1 UNK         0.0600 
    184 H184        0.5417  -10.3967  -47.5518 H         1 UNK         0.3000 
    185 H185        3.1778   -9.4985  -47.9372 H         1 UNK         0.0600 
    186 H186        5.1243  -10.7241  -46.9283 H         1 UNK         0.0600 
    187 H187        4.6834   -9.2994  -46.0015 H         1 UNK         0.0600 
    188 H188        4.2308  -10.8943  -45.4183 H         1 UNK         0.0600 
    189 H189        2.5918  -11.4953  -48.6970 H         1 UNK         0.3000 
    190 H190       -0.6254  -22.2197  -47.2848 H         1 UNK         0.3000 
    191 H191       -1.5569  -23.9370  -49.3230 H         1 UNK         0.0600 
    192 H192       -3.7407  -22.9087  -48.8180 H         1 UNK         0.0600 
    193 H193       -2.4814  -21.6822  -48.7418 H         1 UNK         0.0600 
    194 H194       -3.1586  -22.3486  -47.2584 H         1 UNK         0.0600 
    195 H195       -1.1571  -24.6552  -45.9960 H         1 UNK         0.3000 
    196 H196       -3.2276  -26.2480  -45.2528 H         1 UNK         0.0600 
    197 H197       -1.5673  -27.2971  -43.6748 H         1 UNK         0.0600 
    198 H198       -1.3902  -25.5535  -43.7582 H         1 UNK         0.0600 
    199 H199       -0.2510  -26.5945  -44.6091 H         1 UNK         0.0600 
    200 H200       -0.8786  -27.1931  -47.6533 H         1 UNK         0.3000 
    201 H201       -1.2078  -30.0362  -47.5471 H         1 UNK         0.0600 
    202 H202        0.7140  -28.9480  -48.6723 H         1 UNK         0.0600 
    203 H203       -0.3627  -28.1894  -49.8454 H         1 UNK         0.0600 
    204 H204       -0.1705  -29.9386  -49.8220 H         1 UNK         0.0600 
    205 H205       -3.0751  -27.4554  -49.0690 H         1 UNK         0.3000 
    206 H206       -5.4904  -28.5912  -49.3656 H         1 UNK         0.0600 
    207 H207       -4.8283  -30.3176  -50.9778 H         1 UNK         0.0600 
    208 H208       -5.6242  -29.0684  -51.9034 H         1 UNK         0.0600 
    209 H209       -3.8683  -29.1746  -51.9166 H         1 UNK         0.0600 
    210 H210       -3.1247  -26.9181  -51.4663 H         1 UNK         0.3000 
    211 H211       -3.9284  -24.3036  -50.8287 H         1 UNK         0.0600 
    212 H212       -4.7029  -25.2946  -53.6443 H         1 UNK         0.0600 
    213 H213       -4.6567  -23.6060  -53.1526 H         1 UNK         0.0600 
    214 H214       -5.8260  -24.6925  -52.4266 H         1 UNK         0.0600 
    215 H215       -2.4014  -22.8095  -51.8266 H         1 UNK         0.3000 
    216 H216        0.0277  -24.1092  -53.0214 H         1 UNK         0.0600 
    217 H217       -0.1995  -21.7320  -51.1170 H         1 UNK         0.0600 
    218 H218        1.2790  -22.2317  -51.9392 H         1 UNK         0.0600 
    219 H219        0.5183  -23.3015  -50.7731 H         1 UNK         0.0600 
    220 H220       -2.1795  -21.2680  -53.0780 H         1 UNK         0.3000 
    221 H221       -1.6070  -20.9650  -55.9503 H         1 UNK         0.0600 
    222 H222       -1.2062  -18.5811  -54.0712 H         1 UNK         0.0600 
    223 H223        0.1016  -19.4833  -54.8366 H         1 UNK         0.0600 
    224 H224       -1.0406  -18.5860  -55.8168 H         1 UNK         0.0600 
    225 H225       -3.8644  -21.4645  -53.8052 H         1 UNK         0.3000 
    226 H226       -6.0491  -21.3881  -53.7287 H         1 UNK         0.0600 
    227 H227       -5.9594  -21.7130  -56.2421 H         1 UNK         0.0600 
    228 H228       -7.4131  -20.9022  -55.6957 H         1 UNK         0.0600 
    229 H229       -6.1272  -19.9700  -56.4438 H         1 UNK         0.0600 
    230 H230       -8.0602  -19.7981  -53.9648 H         1 UNK         0.3000 
    231 H231       -9.1942  -18.2086  -52.9340 H         1 UNK         0.0600 
    232 H232       -8.4742  -15.8376  -53.1493 H         1 UNK         0.0600 
    233 H233       -8.2559  -16.6973  -54.6606 H         1 UNK         0.0600 
    234 H234       -6.8613  -16.3406  -53.6531 H         1 UNK         0.0600 
    235 H235       -6.9185  -16.1336  -51.5719 H         1 UNK         0.3000 
    236 H236       -7.3200  -17.0202  -48.8697 H         1 UNK         0.0600 
    237 H237       -5.3334  -15.0080  -50.0610 H         1 UNK         0.0600 
    238 H238       -6.9539  -14.6351  -49.4704 H         1 UNK         0.0600 
    239 H239       -5.7132  -15.1764  -48.3517 H         1 UNK         0.0600 
    240 H240       -5.0957  -18.0302  -51.3124 H         1 UNK         0.3000 
    241 H241       -3.3594  -19.4110  -49.3415 H         1 UNK         0.0600 
    242 H242       -6.0232  -20.3836  -50.3470 H         1 UNK         0.3800 
    243 H243       -5.6314  -21.8936  -51.1193 H         1 UNK         0.3800 
    244 H244       -2.3656  -18.9398  -52.1531 H         1 UNK         0.0800 
    245 H245       -2.4412  -17.5401  -51.1281 H         1 UNK         0.0800 
    246 H246        0.4426  -19.3418  -52.2933 H         1 UNK         0.0800 
    247 H247        0.0638  -17.6533  -52.0162 H         1 UNK         0.0800 
@<TRIPOS>BOND
     1    1    2 1    
     2    1  127 1    
     3    1  128 1    
     4    1  129 1    
     5    2    3 2    
     6    2    4 am   BACKBONE|DICT|INTERRES
     7    4    5 1    
     8    4  130 1    
     9    5    6 1    
    10    5   65 1    
    11    5  131 1    
    12    6    7 1    
    13    6  132 1    
    14    6  133 1    
    15    7    8 1    
    16    8    9 1    
    17    8  134 1    
    18    8  135 1    
    19    9   10 ar   
    20    9   14 ar   
    21   10   11 ar   
    22   10  136 1    
    23   11   12 ar   
    24   11  126 1    
    25   12   13 ar   
    26   12  137 1    
    27   13   14 ar   
    28   13   15 1    
    29   14  138 1    
    30   15   16 1    
    31   15  139 1    
    32   15  140 1    
    33   16   17 1    
    34   17   18 1    
    35   17  141 1    
    36   17  142 1    
    37   18   19 1    
    38   18   67 1    
    39   18  143 1    
    40   19   20 am   BACKBONE|DICT|INTERRES
    41   19  144 1    
    42   20   21 2    
    43   20   22 1    
    44   22   23 1    
    45   22   24 1    
    46   22  145 1    
    47   23  146 1    
    48   23  147 1    
    49   23  148 1    
    50   24   25 am   BACKBONE|DICT|INTERRES
    51   24  149 1    
    52   25   26 2    
    53   25   27 1    
    54   27   28 1    
    55   27   29 1    
    56   27  150 1    
    57   28  151 1    
    58   28  152 1    
    59   28  153 1    
    60   29   30 am   BACKBONE|DICT|INTERRES
    61   29  154 1    
    62   30   31 2    
    63   30   32 1    
    64   32   33 1    
    65   32   34 1    
    66   32  155 1    
    67   33  156 1    
    68   33  157 1    
    69   33  158 1    
    70   34   35 am   BACKBONE|DICT|INTERRES
    71   34  159 1    
    72   35   36 2    
    73   35   37 1    
    74   37   38 1    
    75   37   39 1    
    76   37  160 1    
    77   38  161 1    
    78   38  162 1    
    79   38  163 1    
    80   39   40 am   BACKBONE|DICT|INTERRES
    81   39  164 1    
    82   40   41 2    
    83   40   42 1    
    84   42   43 1    
    85   42   44 1    
    86   42  165 1    
    87   43  166 1    
    88   43  167 1    
    89   43  168 1    
    90   44   45 am   BACKBONE|DICT|INTERRES
    91   44  169 1    
    92   45   46 2    
    93   45   47 1    
    94   47   48 1    
    95   47   49 1    
    96   47  170 1    
    97   48  171 1    
    98   48  172 1    
    99   48  173 1    
   100   49   50 am   BACKBONE|DICT|INTERRES
   101   49  174 1    
   102   50   51 2    
   103   50   52 1    
   104   52   53 1    
   105   52   54 1    
   106   52  175 1    
   107   53  176 1    
   108   53  177 1    
   109   53  178 1    
   110   54   55 am   BACKBONE|DICT|INTERRES
   111   54  179 1    
   112   55   56 2    
   113   55   57 1    
   114   57   58 1    
   115   57   59 1    
   116   57  180 1    
   117   58  181 1    
   118   58  182 1    
   119   58  183 1    
   120   59   60 am   BACKBONE|DICT|INTERRES
   121   59  184 1    
   122   60   61 2    
   123   60   62 1    
   124   62   63 1    
   125   62   64 1    
   126   62  185 1    
   127   63  186 1    
   128   63  187 1    
   129   63  188 1    
   130   64   65 am   BACKBONE|DICT|INTERRES
   131   64  189 1    
   132   65   66 2    
   133   67   68 2    
   134   67   69 am   BACKBONE|DICT|INTERRES
   135   69   70 1    
   136   69  190 1    
   137   70   71 1    
   138   70   72 1    
   139   70  191 1    
   140   71  192 1    
   141   71  193 1    
   142   71  194 1    
   143   72   73 2    
   144   72   74 am   BACKBONE|DICT|INTERRES
   145   74   75 1    
   146   74  195 1    
   147   75   76 1    
   148   75   77 1    
   149   75  196 1    
   150   76  197 1    
   151   76  198 1    
   152   76  199 1    
   153   77   78 2    
   154   77   79 am   BACKBONE|DICT|INTERRES
   155   79   80 1    
   156   79  200 1    
   157   80   81 1    
   158   80   82 1    
   159   80  201 1    
   160   81  202 1    
   161   81  203 1    
   162   81  204 1    
   163   82   83 2    
   164   82   84 am   BACKBONE|DICT|INTERRES
   165   84   85 1    
   166   84  205 1    
   167   85   86 1    
   168   85   87 1    
   169   85  206 1    
   170   86  207 1    
   171   86  208 1    
   172   86  209 1    
   173   87   88 2    
   174   87   89 am   BACKBONE|DICT|INTERRES
   175   89   90 1    
   176   89  210 1    
   177   90   91 1    
   178   90   92 1    
   179   90  211 1    
   180   91  212 1    
   181   91  213 1    
   182   91  214 1    
   183   92   93 2    
   184   92   94 am   BACKBONE|DICT|INTERRES
   185   94   95 1    
   186   94  215 1    
   187   95   96 1    
   188   95   97 1    
   189   95  216 1    
   190   96  217 1    
   191   96  218 1    
   192   96  219 1    
   193   97   98 2    
   194   97   99 am   BACKBONE|DICT|INTERRES
   195   99  100 1    
   196   99  220 1    
   197  100  101 1    
   198  100  102 1    
   199  100  221 1    
   200  101  222 1    
   201  101  223 1    
   202  101  224 1    
   203  102  103 2    
   204  102  104 am   BACKBONE|DICT|INTERRES
   205  104  105 1    
   206  104  225 1    
   207  105  106 1    
   208  105  107 1    
   209  105  226 1    
   210  106  227 1    
   211  106  228 1    
   212  106  229 1    
   213  107  108 2    
   214  107  109 am   BACKBONE|DICT|INTERRES
   215  109  110 1    
   216  109  230 1    
   217  110  111 1    
   218  110  112 1    
   219  110  231 1    
   220  111  232 1    
   221  111  233 1    
   222  111  234 1    
   223  112  113 2    
   224  112  114 am   BACKBONE|DICT|INTERRES
   225  114  115 1    
   226  114  235 1    
   227  115  116 1    
   228  115  117 1    
   229  115  236 1    
   230  116  237 1    
   231  116  238 1    
   232  116  239 1    
   233  117  118 2    
   234  117  119 am   BACKBONE|DICT|INTERRES
   235  119  120 1    
   236  119  240 1    
   237  120  121 1    
   238  120  124 1    
   239  120  241 1    
   240  121  122 am   BACKBONE|DICT|INTERRES
   241  121  123 2    
   242  122  242 1    
   243  122  243 1    
   244  124  125 1    
   245  124  244 1    
   246  124  245 1    
   247  125  126 1    
   248  126  246 1    
   249  126  247 1    
@<TRIPOS>SUBSTRUCTURE
     1 UNK         1 GROUP             0       ****    0 ROOT    
