@<TRIPOS>MOLECULE
3R540
247   249    1
SMALL
USER_CHARGES


@<TRIPOS>ATOM
      1 CA         -1.8392  -12.4053  -47.5169 C.3       0 UNK        -0.1800 
      2 C          -0.4410  -11.8963  -47.8362 C.2       0 UNK         0.5000 
      3 O          -0.2810  -11.0271  -48.6922 O.2       0 UNK        -0.5000 
      4 N           0.5702  -12.4327  -47.1434 N.am      1 UNK        -0.5000 
      5 CA          1.9971  -12.1280  -47.3391 C.3       1 UNK         0.1400 
      6 C6          2.9236  -13.2179  -46.7326 C.3       23 UNK        -0.0398 
      7 S7          2.3797  -14.9210  -47.0777 S.3       23 UNK        -0.2404 
      8 C8          2.9967  -15.1770  -48.7658 C.3       23 UNK        -0.0205 
      9 C9          2.0873  -16.1420  -49.5053 C.ar      23 UNK        -0.0193 
     10 C10         1.0275  -15.6533  -50.2747 C.ar      23 UNK        -0.1150 
     11 C11         0.1505  -16.5323  -50.9161 C.ar      23 UNK        -0.0193 
     12 C12         0.3552  -17.9096  -50.7951 C.ar      23 UNK        -0.1150 
     13 C13         1.4118  -18.4121  -50.0296 C.ar      23 UNK        -0.0193 
     14 C14         2.2772  -17.5215  -49.3880 C.ar      23 UNK        -0.1150 
     15 C15         1.5963  -19.9139  -49.8679 C.3       23 UNK        -0.0205 
     16 S16         0.2392  -20.6332  -48.8956 S.3       23 UNK        -0.2404 
     17 C17         0.9710  -22.2092  -48.3460 C.3       23 UNK        -0.0398 
     18 CA          0.0836  -23.0170  -47.3654 C.3       11 UNK         0.1400 
     19 N          -0.2025  -22.3081  -46.1110 N.am      11 UNK        -0.5000 
     20 C          -0.7153  -22.9071  -45.0241 C.2       10 UNK         0.5000 
     21 O          -0.9767  -24.1089  -44.9681 O.2       10 UNK        -0.5000 
     22 CA         -1.0312  -22.0211  -43.8069 C.3       10 UNK         0.1400 
     23 CB          0.2496  -21.6836  -43.0307 C.3       10 UNK        -0.1800 
     24 N          -1.7422  -20.7920  -44.1571 N.am      10 UNK        -0.5000 
     25 C          -2.9542  -20.7473  -44.7299 C.2       9 UNK         0.5000 
     26 O          -3.5975  -21.7465  -45.0481 O.2       9 UNK        -0.5000 
     27 CA         -3.5357  -19.3538  -45.0156 C.3       9 UNK         0.1400 
     28 CB         -4.2242  -18.7769  -43.7692 C.3       9 UNK        -0.1800 
     29 N          -2.4945  -18.4378  -45.4739 N.am      9 UNK        -0.5000 
     30 C          -2.0456  -18.3930  -46.7357 C.2       8 UNK         0.5000 
     31 O          -2.5461  -19.0373  -47.6569 O.2       8 UNK        -0.5000 
     32 CA         -0.8334  -17.4843  -47.0120 C.3       8 UNK         0.1400 
     33 CB         -1.3073  -16.0907  -47.4516 C.3       8 UNK        -0.1800 
     34 N           0.0630  -17.3596  -45.8598 N.am      8 UNK        -0.5000 
     35 C           0.8165  -18.3566  -45.3671 C.2       7 UNK         0.5000 
     36 O           0.8532  -19.4906  -45.8443 O.2       7 UNK        -0.5000 
     37 CA          1.6093  -18.0691  -44.0750 C.3       7 UNK         0.1400 
     38 CB          3.0428  -17.6216  -44.3908 C.3       7 UNK        -0.1800 
     39 N           0.9650  -17.0877  -43.2000 N.am      7 UNK        -0.5000 
     40 C          -0.2522  -17.2459  -42.6568 C.2       6 UNK         0.5000 
     41 O          -0.9253  -18.2671  -42.8026 O.2       6 UNK        -0.5000 
     42 CA         -0.8480  -16.0674  -41.8603 C.3       6 UNK         0.1400 
     43 CB         -0.7173  -16.3231  -40.3518 C.3       6 UNK        -0.1800 
     44 N          -0.2591  -14.7637  -42.1737 N.am      6 UNK        -0.5000 
     45 C          -0.2569  -14.1722  -43.3765 C.2       5 UNK         0.5000 
     46 O          -0.7821  -14.6512  -44.3819 O.2       5 UNK        -0.5000 
     47 CA          0.5028  -12.8380  -43.4913 C.3       5 UNK         0.1400 
     48 CB         -0.4656  -11.6622  -43.2976 C.3       5 UNK        -0.1800 
     49 N           1.6515  -12.6749  -42.5922 N.am      5 UNK        -0.5000 
     50 C           2.6811  -13.5258  -42.4518 C.2       4 UNK         0.5000 
     51 O           2.7312  -14.6353  -42.9848 O.2       4 UNK        -0.5000 
     52 CA          3.8521  -13.0192  -41.5828 C.3       4 UNK         0.1400 
     53 CB          5.0384  -14.0050  -41.5279 C.3       4 UNK        -0.1800 
     54 N           4.2946  -11.6799  -41.9950 N.am      4 UNK        -0.5000 
     55 C           4.7681  -11.3292  -43.2001 C.2       3 UNK         0.5000 
     56 O           4.9735  -12.1175  -44.1246 O.2       3 UNK        -0.5000 
     57 CA          4.9927   -9.8266  -43.4365 C.3       3 UNK         0.1400 
     58 CB          6.3876   -9.5449  -44.0180 C.3       3 UNK        -0.1800 
     59 N           3.9784   -9.3508  -44.3711 N.am      3 UNK        -0.5000 
     60 C           2.7048   -9.1005  -44.0488 C.2       2 UNK         0.5000 
     61 O           2.2813   -9.0997  -42.8923 O.2       2 UNK        -0.5000 
     62 CA          1.7255   -8.8795  -45.2159 C.3       2 UNK         0.1400 
     63 CB          2.1078   -7.6681  -46.0902 C.3       2 UNK        -0.1800 
     64 N           1.5352  -10.1030  -46.0052 N.am      2 UNK        -0.5000 
     65 C           2.4128  -10.7409  -46.7964 C.2       1 UNK         0.5000 
     66 O           3.5296  -10.3006  -47.0732 O.2       1 UNK        -0.5000 
     67 C          -1.1992  -23.5492  -48.0384 C.2       11 UNK         0.5000 
     68 O          -1.1988  -24.6786  -48.5281 O.2       11 UNK        -0.5000 
     69 N          -2.2789  -22.7533  -48.0016 N.am      12 UNK        -0.5000 
     70 CA         -3.5991  -23.1234  -48.5076 C.3       12 UNK         0.1400 
     71 CB         -4.5370  -21.9085  -48.4566 C.3       12 UNK        -0.1800 
     72 C          -4.2004  -24.3043  -47.7294 C.2       12 UNK         0.5000 
     73 O          -4.6883  -25.2488  -48.3484 O.2       12 UNK        -0.5000 
     74 N          -4.1207  -24.2473  -46.3929 N.am      13 UNK        -0.5000 
     75 CA         -4.5725  -25.3001  -45.4850 C.3       13 UNK         0.1400 
     76 CB         -4.4946  -24.7992  -44.0349 C.3       13 UNK        -0.1800 
     77 C          -3.7845  -26.6100  -45.6568 C.2       13 UNK         0.5000 
     78 O          -4.3970  -27.6752  -45.7367 O.2       13 UNK        -0.5000 
     79 N          -2.4506  -26.5066  -45.7490 N.am      14 UNK        -0.5000 
     80 CA         -1.5396  -27.6355  -45.9528 C.3       14 UNK         0.1400 
     81 CB         -0.0879  -27.1534  -45.8126 C.3       14 UNK        -0.1800 
     82 C          -1.7445  -28.3439  -47.3045 C.2       14 UNK         0.5000 
     83 O          -1.6855  -29.5727  -47.3626 O.2       14 UNK        -0.5000 
     84 N          -2.0011  -27.5599  -48.3590 N.am      15 UNK        -0.5000 
     85 CA         -2.2603  -28.0483  -49.7134 C.3       15 UNK         0.1400 
     86 CB         -1.9043  -26.9332  -50.7041 C.3       15 UNK        -0.1800 
     87 C          -3.7136  -28.5082  -49.9392 C.2       15 UNK         0.5000 
     88 O          -4.0026  -29.0471  -51.0067 O.2       15 UNK        -0.5000 
     89 N          -4.6072  -28.2568  -48.9710 N.am      16 UNK        -0.5000 
     90 CA         -6.0559  -28.4857  -49.0254 C.3       16 UNK         0.1400 
     91 CB         -6.3762  -29.9944  -49.0680 C.3       16 UNK        -0.1800 
     92 C          -6.7260  -27.6829  -50.1625 C.2       16 UNK         0.5000 
     93 O          -7.4959  -28.2325  -50.9517 O.2       16 UNK        -0.5000 
     94 N          -6.3825  -26.3886  -50.2240 N.am      17 UNK        -0.5000 
     95 CA         -6.8306  -25.3637  -51.1736 C.3       17 UNK         0.1400 
     96 CB         -8.3632  -25.1912  -51.1334 C.3       17 UNK        -0.1800 
     97 C          -6.2907  -25.5301  -52.6106 C.2       17 UNK         0.5000 
     98 O          -6.7328  -24.8069  -53.5044 O.2       17 UNK        -0.5000 
     99 N          -5.3242  -26.4368  -52.8184 N.am      18 UNK        -0.5000 
    100 CA        -4.6335  -26.6249  -54.0995 C.3       18 UNK         0.1400 
    101 CB        -4.0918  -28.0605  -54.1777 C.3       18 UNK        -0.1800 
    102 C         -3.5022  -25.6003  -54.3337 C.2       18 UNK         0.5000 
    103 O         -2.9947  -25.5124  -55.4527 O.2       18 UNK        -0.5000 
    104 N         -3.1280  -24.8525  -53.2886 N.am      19 UNK        -0.5000 
    105 CA        -2.1570  -23.7609  -53.3161 C.3       19 UNK         0.1400 
    106 CB        -0.9858  -24.1054  -52.3790 C.3       19 UNK        -0.1800 
    107 C         -2.8352  -22.4534  -52.8754 C.2       19 UNK         0.5000 
    108 O         -3.9856  -22.4711  -52.4285 O.2       19 UNK        -0.5000 
    109 N         -2.0843  -21.3515  -52.9949 N.am      20 UNK        -0.5000 
    110 CA        -2.4858  -19.9701  -52.7234 C.3       20 UNK         0.1400 
    111 CB        -2.9322  -19.7814  -51.2554 C.3       20 UNK        -0.1800 
    112 C         -3.4875  -19.4496  -53.7719 C.2       20 UNK         0.5000 
    113 O         -3.3030  -19.7293  -54.9585 O.2       20 UNK        -0.5000 
    114 N         -4.4833  -18.6656  -53.3298 N.am      21 UNK        -0.5000 
    115 CA        -5.4374  -17.9071  -54.1491 C.3       21 UNK         0.1400 
    116 CB        -6.3640  -18.8485  -54.9479 C.3       21 UNK        -0.1800 
    117 C         -4.7197  -16.8574  -55.0251 C.2       21 UNK         0.5000 
    118 O         -4.9668  -16.7680  -56.2292 O.2       21 UNK        -0.5000 
    119 N         -3.8151  -16.1001  -54.3885 N.am      22 UNK        -0.5000 
    120 CA        -2.9506  -15.0869  -55.0185 C.3       22 UNK         0.1400 
    121 C         -3.6916  -13.8359  -55.5812 C.2       22 UNK         0.5000 
    122 N         -4.9421  -13.5785  -55.2173 N.am      22 UNK        -0.7600 
    123 O         -3.1182  -13.0845  -56.3651 O.2       22 UNK        -0.5000 
    124 C124       -1.8035  -14.6406  -54.0733 C.3       23 UNK        -0.0398 
    125 S125       -0.7314  -16.0060  -53.4942 S.3       23 UNK        -0.2404 
    126 C126       -1.0372  -15.9891  -51.6982 C.3       23 UNK        -0.0205 
    127 H127       -1.8449  -13.0422  -46.6318 H         1 UNK         0.0600 
    128 H128       -2.5127  -11.5680  -47.3343 H         1 UNK         0.0600 
    129 H129       -2.2282  -12.9826  -48.3557 H         1 UNK         0.0600 
    130 H130        0.3755  -13.1899  -46.5037 H         1 UNK         0.3000 
    131 H131        2.1771  -12.1047  -48.4157 H         1 UNK         0.0600 
    132 H132        3.9483  -13.0941  -47.0878 H         1 UNK         0.0800 
    133 H133        2.9735  -13.1213  -45.6469 H         1 UNK         0.0800 
    134 H134        3.0428  -14.2282  -49.3017 H         1 UNK         0.0800 
    135 H135        4.0163  -15.5631  -48.7274 H         1 UNK         0.0800 
    136 H136        0.8704  -14.5864  -50.3506 H         1 UNK         0.1150 
    137 H137       -0.3220  -18.5981  -51.2718 H         1 UNK         0.1150 
    138 H138        3.0843  -17.8990  -48.7762 H         1 UNK         0.1150 
    139 H139        1.6328  -20.3897  -50.8487 H         1 UNK         0.0800 
    140 H140        2.5480  -20.1278  -49.3792 H         1 UNK         0.0800 
    141 H141        1.9253  -21.9906  -47.8648 H         1 UNK         0.0800 
    142 H142        1.2091  -22.8096  -49.2259 H         1 UNK         0.0800 
    143 H143        0.6646  -23.9001  -47.0904 H         1 UNK         0.0600 
    144 H144        0.0067  -21.3136  -46.0876 H         1 UNK         0.3000 
    145 H145       -1.6843  -22.5913  -43.1431 H         1 UNK         0.0600 
    146 H146        0.0426  -21.0290  -42.1838 H         1 UNK         0.0600 
    147 H147        0.7127  -22.5895  -42.6380 H         1 UNK         0.0600 
    148 H148        0.9866  -21.1939  -43.6659 H         1 UNK         0.0600 
    149 H149       -1.3059  -19.9186  -43.8825 H         1 UNK         0.3000 
    150 H150       -4.2924  -19.4583  -45.7964 H         1 UNK         0.0600 
    151 H151       -5.0364  -19.4265  -43.4407 H         1 UNK         0.0600 
    152 H152       -4.6549  -17.7970  -43.9755 H         1 UNK         0.0600 
    153 H153       -3.5340  -18.6702  -42.9323 H         1 UNK         0.0600 
    154 H154       -2.0041  -17.9120  -44.7634 H         1 UNK         0.3000 
    155 H155       -0.2662  -17.9237  -47.8317 H         1 UNK         0.0600 
    156 H156       -1.9023  -15.6051  -46.6778 H         1 UNK         0.0600 
    157 H157       -1.9245  -16.1565  -48.3485 H         1 UNK         0.0600 
    158 H158       -0.4668  -15.4403  -47.6883 H         1 UNK         0.0600 
    159 H159        0.0679  -16.4643  -45.3868 H         1 UNK         0.3000 
    160 H160        1.6731  -19.0039  -43.5172 H         1 UNK         0.0600 
    161 H161        3.0621  -16.6465  -44.8749 H         1 UNK         0.0600 
    162 H162        3.5388  -18.3301  -45.0552 H         1 UNK         0.0600 
    163 H163        3.6413  -17.5507  -43.4824 H         1 UNK         0.0600 
    164 H164        1.4648  -16.2155  -43.0545 H         1 UNK         0.3000 
    165 H165       -1.9098  -16.0169  -42.1093 H         1 UNK         0.0600 
    166 H166        0.3272  -16.3556  -40.0392 H         1 UNK         0.0600 
    167 H167       -1.2183  -15.5462  -39.7740 H         1 UNK         0.0600 
    168 H168       -1.1725  -17.2753  -40.0755 H         1 UNK         0.0600 
    169 H169        0.2173  -14.2937  -41.4183 H         1 UNK         0.3000 
    170 H170        0.8993  -12.7882  -44.5030 H         1 UNK         0.0600 
    171 H171       -0.8869  -11.6534  -42.2916 H         1 UNK         0.0600 
    172 H172       -1.2974  -11.7190  -44.0013 H         1 UNK         0.0600 
    173 H173        0.0289  -10.7055  -43.4576 H         1 UNK         0.0600 
    174 H174        1.7114  -11.7859  -42.1157 H         1 UNK         0.3000 
    175 H175        3.4619  -12.9206  -40.5688 H         1 UNK         0.0600 
    176 H176        5.8391  -13.6235  -40.8946 H         1 UNK         0.0600 
    177 H177        4.7266  -14.9649  -41.1145 H         1 UNK         0.0600 
    178 H178        5.4556  -14.1986  -42.5165 H         1 UNK         0.0600 
    179 H179        4.1359  -10.9455  -41.3186 H         1 UNK         0.3000 
    180 H180        4.9015   -9.2873  -42.4911 H         1 UNK         0.0600 
    181 H181        6.5310  -10.0322  -44.9834 H         1 UNK         0.0600 
    182 H182        7.1686   -9.9058  -43.3477 H         1 UNK         0.0600 
    183 H183        6.5461   -8.4754  -44.1575 H         1 UNK         0.0600 
    184 H184        4.1936   -9.4478  -45.3581 H         1 UNK         0.3000 
    185 H185        0.7534   -8.6570  -44.7731 H         1 UNK         0.0600 
    186 H186        1.3739   -7.5093  -46.8803 H         1 UNK         0.0600 
    187 H187        2.1423   -6.7573  -45.4915 H         1 UNK         0.0600 
    188 H188        3.0842   -7.7809  -46.5608 H         1 UNK         0.0600 
    189 H189        0.6445  -10.5588  -45.8720 H         1 UNK         0.3000 
    190 H190       -2.1910  -21.8393  -47.5796 H         1 UNK         0.3000 
    191 H191       -3.4832  -23.4239  -49.5512 H         1 UNK         0.0600 
    192 H192       -4.0891  -21.0418  -48.9385 H         1 UNK         0.0600 
    193 H193       -5.4753  -22.1218  -48.9697 H         1 UNK         0.0600 
    194 H194       -4.7803  -21.6214  -47.4337 H         1 UNK         0.0600 
    195 H195       -3.7401  -23.4090  -45.9607 H         1 UNK         0.3000 
    196 H196       -5.6192  -25.5098  -45.7153 H         1 UNK         0.0600 
    197 H197       -4.8366  -25.5645  -43.3372 H         1 UNK         0.0600 
    198 H198       -5.1230  -23.9206  -43.8885 H         1 UNK         0.0600 
    199 H199       -3.4756  -24.5296  -43.7554 H         1 UNK         0.0600 
    200 H200       -2.0202  -25.5921  -45.6377 H         1 UNK         0.3000 
    201 H201       -1.7331  -28.3654  -45.1641 H         1 UNK         0.0600 
    202 H202        0.0933  -26.7316  -44.8239 H         1 UNK         0.0600 
    203 H203        0.1541  -26.3889  -46.5518 H         1 UNK         0.0600 
    204 H204        0.6138  -27.9773  -45.9483 H         1 UNK         0.0600 
    205 H205       -1.9781  -26.5517  -48.2402 H         1 UNK         0.3000 
    206 H206       -1.6101  -28.9021  -49.9147 H         1 UNK         0.0600 
    207 H207       -0.8747  -26.6019  -50.5681 H         1 UNK         0.0600 
    208 H208       -1.9986  -27.2716  -51.7355 H         1 UNK         0.0600 
    209 H209       -2.5565  -26.0684  -50.5763 H         1 UNK         0.0600 
    210 H210       -4.2740  -27.7839  -48.1410 H         1 UNK         0.3000 
    211 H211       -6.4609  -28.0908  -48.0925 H         1 UNK         0.0600 
    212 H212       -6.0414  -30.4574  -49.9966 H         1 UNK         0.0600 
    213 H213       -7.4501  -30.1661  -48.9872 H         1 UNK         0.0600 
    214 H214       -5.9003  -30.5204  -48.2404 H         1 UNK         0.0600 
    215 H215       -5.7268  -26.0492  -49.5188 H         1 UNK         0.3000 
    216 H216       -6.3950  -24.4313  -50.8109 H         1 UNK         0.0600 
    217 H217       -8.7188  -25.0580  -50.1116 H         1 UNK         0.0600 
    218 H218       -8.8809  -26.0497  -51.5615 H         1 UNK         0.0600 
    219 H219       -8.6727  -24.3117  -51.6991 H         1 UNK         0.0600 
    220 H220       -5.0385  -27.0326  -52.0534 H         1 UNK         0.3000 
    221 H221       -5.3558  -26.5011  -54.9091 H         1 UNK         0.0600 
    222 H222       -3.2977  -28.2343  -53.4526 H         1 UNK         0.0600 
    223 H223       -4.8792  -28.7921  -53.9952 H         1 UNK         0.0600 
    224 H224       -3.6791  -28.2671  -55.1659 H         1 UNK         0.0600 
    225 H225       -3.6674  -24.9272  -52.4392 H         1 UNK         0.3000 
    226 H226       -1.7717  -23.6150  -54.3273 H         1 UNK         0.0600 
    227 H227       -0.5491  -25.0714  -52.6323 H         1 UNK         0.0600 
    228 H228       -0.1885  -23.3652  -52.4524 H         1 UNK         0.0600 
    229 H229       -1.3004  -24.1380  -51.3354 H         1 UNK         0.0600 
    230 H230       -1.1640  -21.4508  -53.3988 H         1 UNK         0.3000 
    231 H231       -1.5869  -19.3742  -52.8767 H         1 UNK         0.0600 
    232 H232       -2.9802  -18.7270  -50.9838 H         1 UNK         0.0600 
    233 H233       -2.2319  -20.2531  -50.5665 H         1 UNK         0.0600 
    234 H234       -3.9155  -20.2143  -51.0735 H         1 UNK         0.0600 
    235 H235       -4.5540  -18.5184  -52.3330 H         1 UNK         0.3000 
    236 H236       -6.0650  -17.3474  -53.4541 H         1 UNK         0.0600 
    237 H237       -7.1500  -18.2841  -55.4508 H         1 UNK         0.0600 
    238 H238       -5.8229  -19.4041  -55.7140 H         1 UNK         0.0600 
    239 H239       -6.8513  -19.5702  -54.2925 H         1 UNK         0.0600 
    240 H240       -3.6704  -16.2495  -53.4021 H         1 UNK         0.3000 
    241 H241       -2.4892  -15.5681  -55.8830 H         1 UNK         0.0600 
    242 H242       -5.4274  -14.1868  -54.5780 H         1 UNK         0.3800 
    243 H243       -5.4111  -12.7683  -55.5916 H         1 UNK         0.3800 
    244 H244       -1.1524  -13.9295  -54.5851 H         1 UNK         0.0800 
    245 H245       -2.2152  -14.0998  -53.2202 H         1 UNK         0.0800 
    246 H246       -1.2519  -14.9732  -51.3638 H         1 UNK         0.0800 
    247 H247       -1.9283  -16.5767  -51.4765 H         1 UNK         0.0800 
@<TRIPOS>BOND
     1    1    2 1    
     2    1  127 1    
     3    1  128 1    
     4    1  129 1    
     5    2    3 2    
     6    2    4 am   BACKBONE|DICT|INTERRES
     7    4    5 1    
     8    4  130 1    
     9    5    6 1    
    10    5   65 1    
    11    5  131 1    
    12    6    7 1    
    13    6  132 1    
    14    6  133 1    
    15    7    8 1    
    16    8    9 1    
    17    8  134 1    
    18    8  135 1    
    19    9   10 ar   
    20    9   14 ar   
    21   10   11 ar   
    22   10  136 1    
    23   11   12 ar   
    24   11  126 1    
    25   12   13 ar   
    26   12  137 1    
    27   13   14 ar   
    28   13   15 1    
    29   14  138 1    
    30   15   16 1    
    31   15  139 1    
    32   15  140 1    
    33   16   17 1    
    34   17   18 1    
    35   17  141 1    
    36   17  142 1    
    37   18   19 1    
    38   18   67 1    
    39   18  143 1    
    40   19   20 am   BACKBONE|DICT|INTERRES
    41   19  144 1    
    42   20   21 2    
    43   20   22 1    
    44   22   23 1    
    45   22   24 1    
    46   22  145 1    
    47   23  146 1    
    48   23  147 1    
    49   23  148 1    
    50   24   25 am   BACKBONE|DICT|INTERRES
    51   24  149 1    
    52   25   26 2    
    53   25   27 1    
    54   27   28 1    
    55   27   29 1    
    56   27  150 1    
    57   28  151 1    
    58   28  152 1    
    59   28  153 1    
    60   29   30 am   BACKBONE|DICT|INTERRES
    61   29  154 1    
    62   30   31 2    
    63   30   32 1    
    64   32   33 1    
    65   32   34 1    
    66   32  155 1    
    67   33  156 1    
    68   33  157 1    
    69   33  158 1    
    70   34   35 am   BACKBONE|DICT|INTERRES
    71   34  159 1    
    72   35   36 2    
    73   35   37 1    
    74   37   38 1    
    75   37   39 1    
    76   37  160 1    
    77   38  161 1    
    78   38  162 1    
    79   38  163 1    
    80   39   40 am   BACKBONE|DICT|INTERRES
    81   39  164 1    
    82   40   41 2    
    83   40   42 1    
    84   42   43 1    
    85   42   44 1    
    86   42  165 1    
    87   43  166 1    
    88   43  167 1    
    89   43  168 1    
    90   44   45 am   BACKBONE|DICT|INTERRES
    91   44  169 1    
    92   45   46 2    
    93   45   47 1    
    94   47   48 1    
    95   47   49 1    
    96   47  170 1    
    97   48  171 1    
    98   48  172 1    
    99   48  173 1    
   100   49   50 am   BACKBONE|DICT|INTERRES
   101   49  174 1    
   102   50   51 2    
   103   50   52 1    
   104   52   53 1    
   105   52   54 1    
   106   52  175 1    
   107   53  176 1    
   108   53  177 1    
   109   53  178 1    
   110   54   55 am   BACKBONE|DICT|INTERRES
   111   54  179 1    
   112   55   56 2    
   113   55   57 1    
   114   57   58 1    
   115   57   59 1    
   116   57  180 1    
   117   58  181 1    
   118   58  182 1    
   119   58  183 1    
   120   59   60 am   BACKBONE|DICT|INTERRES
   121   59  184 1    
   122   60   61 2    
   123   60   62 1    
   124   62   63 1    
   125   62   64 1    
   126   62  185 1    
   127   63  186 1    
   128   63  187 1    
   129   63  188 1    
   130   64   65 am   BACKBONE|DICT|INTERRES
   131   64  189 1    
   132   65   66 2    
   133   67   68 2    
   134   67   69 am   BACKBONE|DICT|INTERRES
   135   69   70 1    
   136   69  190 1    
   137   70   71 1    
   138   70   72 1    
   139   70  191 1    
   140   71  192 1    
   141   71  193 1    
   142   71  194 1    
   143   72   73 2    
   144   72   74 am   BACKBONE|DICT|INTERRES
   145   74   75 1    
   146   74  195 1    
   147   75   76 1    
   148   75   77 1    
   149   75  196 1    
   150   76  197 1    
   151   76  198 1    
   152   76  199 1    
   153   77   78 2    
   154   77   79 am   BACKBONE|DICT|INTERRES
   155   79   80 1    
   156   79  200 1    
   157   80   81 1    
   158   80   82 1    
   159   80  201 1    
   160   81  202 1    
   161   81  203 1    
   162   81  204 1    
   163   82   83 2    
   164   82   84 am   BACKBONE|DICT|INTERRES
   165   84   85 1    
   166   84  205 1    
   167   85   86 1    
   168   85   87 1    
   169   85  206 1    
   170   86  207 1    
   171   86  208 1    
   172   86  209 1    
   173   87   88 2    
   174   87   89 am   BACKBONE|DICT|INTERRES
   175   89   90 1    
   176   89  210 1    
   177   90   91 1    
   178   90   92 1    
   179   90  211 1    
   180   91  212 1    
   181   91  213 1    
   182   91  214 1    
   183   92   93 2    
   184   92   94 am   BACKBONE|DICT|INTERRES
   185   94   95 1    
   186   94  215 1    
   187   95   96 1    
   188   95   97 1    
   189   95  216 1    
   190   96  217 1    
   191   96  218 1    
   192   96  219 1    
   193   97   98 2    
   194   97   99 am   BACKBONE|DICT|INTERRES
   195   99  100 1    
   196   99  220 1    
   197  100  101 1    
   198  100  102 1    
   199  100  221 1    
   200  101  222 1    
   201  101  223 1    
   202  101  224 1    
   203  102  103 2    
   204  102  104 am   BACKBONE|DICT|INTERRES
   205  104  105 1    
   206  104  225 1    
   207  105  106 1    
   208  105  107 1    
   209  105  226 1    
   210  106  227 1    
   211  106  228 1    
   212  106  229 1    
   213  107  108 2    
   214  107  109 am   BACKBONE|DICT|INTERRES
   215  109  110 1    
   216  109  230 1    
   217  110  111 1    
   218  110  112 1    
   219  110  231 1    
   220  111  232 1    
   221  111  233 1    
   222  111  234 1    
   223  112  113 2    
   224  112  114 am   BACKBONE|DICT|INTERRES
   225  114  115 1    
   226  114  235 1    
   227  115  116 1    
   228  115  117 1    
   229  115  236 1    
   230  116  237 1    
   231  116  238 1    
   232  116  239 1    
   233  117  118 2    
   234  117  119 am   BACKBONE|DICT|INTERRES
   235  119  120 1    
   236  119  240 1    
   237  120  121 1    
   238  120  124 1    
   239  120  241 1    
   240  121  122 am   BACKBONE|DICT|INTERRES
   241  121  123 2    
   242  122  242 1    
   243  122  243 1    
   244  124  125 1    
   245  124  244 1    
   246  124  245 1    
   247  125  126 1    
   248  126  246 1    
   249  126  247 1    
@<TRIPOS>SUBSTRUCTURE
     1 UNK         1 GROUP             0       ****    0 ROOT    
