@<TRIPOS>MOLECULE
3R540
247   249    1
SMALL
USER_CHARGES


@<TRIPOS>ATOM
      1 CA          4.7331  -19.3765  -48.3521 C.3       0 UNK        -0.1800 
      2 C           4.3384  -18.3486  -47.3030 C.2       0 UNK         0.5000 
      3 O           4.3025  -18.6704  -46.1143 O.2       0 UNK        -0.5000 
      4 N           4.0721  -17.1047  -47.7264 N.am      1 UNK        -0.5000 
      5 CA          3.5810  -15.9703  -46.9201 C.3       1 UNK         0.1400 
      6 C6          2.8983  -14.8849  -47.7930 C.3       23 UNK        -0.0398 
      7 S7          1.4938  -15.5586  -48.7444 S.3       23 UNK        -0.2404 
      8 C8          2.1812  -15.6127  -50.4296 C.3       23 UNK        -0.0205 
      9 C9          1.4617  -16.6603  -51.2614 C.ar      23 UNK        -0.0193 
     10 C10         0.3398  -16.3200  -52.0230 C.ar      23 UNK        -0.1150 
     11 C11        -0.3650  -17.2987  -52.7323 C.ar      23 UNK        -0.0193 
     12 C12         0.0889  -18.6217  -52.6957 C.ar      23 UNK        -0.1150 
     13 C13         1.2037  -18.9760  -51.9340 C.ar      23 UNK        -0.0193 
     14 C14         1.8983  -17.9864  -51.2345 C.ar      23 UNK        -0.1150 
     15 C15         1.6284  -20.4352  -51.8480 C.3       23 UNK        -0.0205 
     16 S16         1.7263  -21.0627  -50.1372 S.3       23 UNK        -0.2404 
     17 C17         0.2428  -20.3648  -49.3240 C.3       23 UNK        -0.0398 
     18 CA         -0.0108  -21.0489  -47.9559 C.3       11 UNK         0.1400 
     19 N          -0.0984  -20.0943  -46.8488 N.am      11 UNK        -0.5000 
     20 C           0.1494  -20.4074  -45.5707 C.2       10 UNK         0.5000 
     21 O           0.4002  -21.5519  -45.1893 O.2       10 UNK        -0.5000 
     22 CA          0.1103  -19.2458  -44.5665 C.3       10 UNK         0.1400 
     23 CB          0.9371  -18.0490  -45.0650 C.3       10 UNK        -0.1800 
     24 N          -1.2496  -18.7974  -44.2824 N.am      10 UNK        -0.5000 
     25 C          -2.1458  -19.4744  -43.5506 C.2       9 UNK         0.5000 
     26 O          -1.9618  -20.6133  -43.1223 O.2       9 UNK        -0.5000 
     27 CA         -3.4665  -18.7543  -43.2317 C.3       9 UNK         0.1400 
     28 CB         -3.2645  -17.7057  -42.1262 C.3       9 UNK        -0.1800 
     29 N          -3.9990  -18.0955  -44.4206 N.am      9 UNK        -0.5000 
     30 C          -5.1245  -18.4504  -45.0532 C.2       8 UNK         0.5000 
     31 O          -5.9085  -19.3013  -44.6328 O.2       8 UNK        -0.5000 
     32 CA         -5.4339  -17.7510  -46.3934 C.3       8 UNK         0.1400 
     33 CB         -6.5266  -16.6880  -46.2046 C.3       8 UNK        -0.1800 
     34 N          -4.2729  -17.1249  -47.0299 N.am      8 UNK        -0.5000 
     35 C          -3.1731  -17.7621  -47.4555 C.2       7 UNK         0.5000 
     36 O          -3.0054  -18.9767  -47.3733 O.2       7 UNK        -0.5000 
     37 CA         -2.0385  -16.8812  -48.0039 C.3       7 UNK         0.1400 
     38 CB         -2.1927  -16.7101  -49.5202 C.3       7 UNK        -0.1800 
     39 N          -1.9512  -15.5579  -47.3771 N.am      7 UNK        -0.5000 
     40 C          -1.7785  -15.3121  -46.0709 C.2       6 UNK         0.5000 
     41 O          -1.7393  -16.1857  -45.1991 O.2       6 UNK        -0.5000 
     42 CA         -1.6976  -13.8354  -45.6744 C.3       6 UNK         0.1400 
     43 CB         -3.1076  -13.2562  -45.4675 C.3       6 UNK        -0.1800 
     44 N          -0.9250  -13.6887  -44.4439 N.am      6 UNK        -0.5000 
     45 C          -0.1653  -12.6262  -44.1507 C.2       5 UNK         0.5000 
     46 O          -0.0332  -11.6613  -44.9056 O.2       5 UNK        -0.5000 
     47 CA          0.5559  -12.5998  -42.7869 C.3       5 UNK         0.1400 
     48 CB         -0.1442  -11.6163  -41.8351 C.3       5 UNK        -0.1800 
     49 N           0.6724  -13.8950  -42.1116 N.am      5 UNK        -0.5000 
     50 C           1.4673  -14.8950  -42.5073 C.2       4 UNK         0.5000 
     51 O           2.1153  -14.8832  -43.5580 O.2       4 UNK        -0.5000 
     52 CA          1.5607  -16.1044  -41.5624 C.3       4 UNK         0.1400 
     53 CB          0.2089  -16.8300  -41.4173 C.3       4 UNK        -0.1800 
     54 N           2.5816  -17.0022  -42.0878 N.am      4 UNK        -0.5000 
     55 C           3.2186  -17.9732  -41.4265 C.2       3 UNK         0.5000 
     56 O           2.9606  -18.2977  -40.2670 O.2       3 UNK        -0.5000 
     57 CA          4.3509  -18.6942  -42.1849 C.3       3 UNK         0.1400 
     58 CB          3.8313  -19.9916  -42.8247 C.3       3 UNK        -0.1800 
     59 N           4.9683  -17.8651  -43.2247 N.am      3 UNK        -0.5000 
     60 C           5.7786  -16.8177  -42.9881 C.2       2 UNK         0.5000 
     61 O           6.1090  -16.4605  -41.8570 O.2       2 UNK        -0.5000 
     62 CA          6.3026  -16.0271  -44.2038 C.3       2 UNK         0.1400 
     63 CB          7.7389  -16.4533  -44.5445 C.3       2 UNK        -0.1800 
     64 N           5.4525  -16.2601  -45.3659 N.am      2 UNK        -0.5000 
     65 C           4.6339  -15.3802  -45.9465 C.2       1 UNK         0.5000 
     66 O           4.6740  -14.1687  -45.7262 O.2       1 UNK        -0.5000 
     67 C          -1.1741  -22.0608  -47.9668 C.2       11 UNK         0.5000 
     68 O          -1.0297  -23.1364  -48.5476 O.2       11 UNK        -0.5000 
     69 N          -2.2638  -21.7497  -47.2506 N.am      12 UNK        -0.5000 
     70 CA         -3.3279  -22.6745  -46.8622 C.3       12 UNK         0.1400 
     71 CB         -4.3625  -21.9238  -46.0125 C.3       12 UNK        -0.1800 
     72 C          -2.8084  -23.8861  -46.0663 C.2       12 UNK         0.5000 
     73 O          -3.2827  -24.9997  -46.2840 O.2       12 UNK        -0.5000 
     74 N          -1.8376  -23.6537  -45.1734 N.am      13 UNK        -0.5000 
     75 CA         -1.1795  -24.7035  -44.4018 C.3       13 UNK         0.1400 
     76 CB         -0.6631  -24.1195  -43.0774 C.3       13 UNK        -0.1800 
     77 C          -0.0355  -25.3515  -45.1984 C.2       13 UNK         0.5000 
     78 O           0.1162  -26.5726  -45.1513 O.2       13 UNK        -0.5000 
     79 N           0.7553  -24.5272  -45.9013 N.am      14 UNK        -0.5000 
     80 CA          1.9708  -24.9647  -46.5901 C.3       14 UNK         0.1400 
     81 CB          2.8609  -23.7495  -46.8969 C.3       14 UNK        -0.1800 
     82 C           1.7153  -25.7783  -47.8733 C.2       14 UNK         0.5000 
     83 O           2.4661  -26.7192  -48.1358 O.2       14 UNK        -0.5000 
     84 N           0.7020  -25.3949  -48.6631 N.am      15 UNK        -0.5000 
     85 CA          0.4897  -25.9106  -50.0203 C.3       15 UNK         0.1400 
     86 CB          1.1938  -24.9655  -51.0131 C.3       15 UNK        -0.1800 
     87 C          -0.9933  -26.0934  -50.3955 C.2       15 UNK         0.5000 
     88 O          -1.2724  -26.4378  -51.5446 O.2       15 UNK        -0.5000 
     89 N          -1.9175  -25.8389  -49.4554 N.am      16 UNK        -0.5000 
     90 CA         -3.3768  -25.7851  -49.6465 C.3       16 UNK         0.1400 
     91 CB         -3.9436  -27.1595  -50.0600 C.3       16 UNK        -0.1800 
     92 C          -3.8342  -24.6414  -50.5821 C.2       16 UNK         0.5000 
     93 O          -4.9373  -24.6912  -51.1282 O.2       16 UNK        -0.5000 
     94 N          -2.9904  -23.6142  -50.7331 N.am      17 UNK        -0.5000 
     95 CA         -3.1983  -22.4534  -51.5922 C.3       17 UNK         0.1400 
     96 CB         -1.8559  -22.0930  -52.2465 C.3       17 UNK        -0.1800 
     97 C          -3.8035  -21.3040  -50.7681 C.2       17 UNK         0.5000 
     98 O          -3.1533  -20.2853  -50.5349 O.2       17 UNK        -0.5000 
     99 N          -5.0352  -21.5160  -50.2913 N.am      18 UNK        -0.5000 
    100 CA        -5.7411  -20.6529  -49.3447 C.3       18 UNK         0.1400 
    101 CB        -6.8031  -21.4985  -48.6186 C.3       18 UNK        -0.1800 
    102 C         -6.3339  -19.3779  -49.9811 C.2       18 UNK         0.5000 
    103 O         -7.5451  -19.1632  -49.9081 O.2       18 UNK        -0.5000 
    104 N         -5.4691  -18.5516  -50.5843 N.am      19 UNK        -0.5000 
    105 CA        -5.7247  -17.2435  -51.2051 C.3       19 UNK         0.1400 
    106 CB        -6.2616  -16.2232  -50.1827 C.3       19 UNK        -0.1800 
    107 C         -6.6121  -17.3060  -52.4625 C.2       19 UNK         0.5000 
    108 O         -6.1502  -16.9734  -53.5536 O.2       19 UNK        -0.5000 
    109 N         -7.8584  -17.7679  -52.3124 N.am      20 UNK        -0.5000 
    110 CA        -8.8299  -17.9416  -53.3974 C.3       20 UNK         0.1400 
    111 CB       -10.1990  -18.2810  -52.7897 C.3       20 UNK        -0.1800 
    112 C         -8.4095  -19.0164  -54.4202 C.2       20 UNK         0.5000 
    113 O         -8.8258  -18.9591  -55.5774 O.2       20 UNK        -0.5000 
    114 N         -7.5758  -19.9623  -53.9716 N.am      21 UNK        -0.5000 
    115 CA        -6.9952  -21.0356  -54.7731 C.3       21 UNK         0.1400 
    116 CB        -6.6704  -22.2061  -53.8313 C.3       21 UNK        -0.1800 
    117 C         -5.7416  -20.6097  -55.5675 C.2       21 UNK         0.5000 
    118 O         -5.2608  -21.4084  -56.3728 O.2       21 UNK        -0.5000 
    119 N         -5.2179  -19.3981  -55.3315 N.am      22 UNK        -0.5000 
    120 CA        -3.9780  -18.8907  -55.9468 C.3       22 UNK         0.1400 
    121 C         -4.0853  -17.4538  -56.5300 C.2       22 UNK         0.5000 
    122 N         -5.0054  -16.6101  -56.0811 N.am      22 UNK        -0.7600 
    123 O         -3.3294  -17.1037  -57.4324 O.2       22 UNK        -0.5000 
    124 C124       -2.7601  -19.0509  -55.0004 C.3       23 UNK        -0.0398 
    125 S125       -2.9506  -18.1578  -53.4151 S.3       23 UNK        -0.2404 
    126 C126       -1.6203  -16.9095  -53.5100 C.3       23 UNK        -0.0205 
    127 H127        4.0551  -20.2287  -48.3104 H         1 UNK         0.0600 
    128 H128        5.7441  -19.7360  -48.1617 H         1 UNK         0.0600 
    129 H129        4.7016  -18.9637  -49.3602 H         1 UNK         0.0600 
    130 H130        4.1689  -16.9066  -48.7105 H         1 UNK         0.3000 
    131 H131        2.8033  -16.3646  -46.2658 H         1 UNK         0.0600 
    132 H132        2.4978  -14.0870  -47.1648 H         1 UNK         0.0800 
    133 H133        3.6188  -14.4124  -48.4624 H         1 UNK         0.0800 
    134 H134        2.0910  -14.6279  -50.8903 H         1 UNK         0.0800 
    135 H135        3.2467  -15.8430  -50.3983 H         1 UNK         0.0800 
    136 H136       -0.0040  -15.2952  -52.0345 H         1 UNK         0.1150 
    137 H137       -0.4423  -19.3868  -53.2409 H         1 UNK         0.1150 
    138 H138        2.7547  -18.2587  -50.6352 H         1 UNK         0.1150 
    139 H139        0.9462  -21.0710  -52.4129 H         1 UNK         0.0800 
    140 H140        2.6059  -20.5467  -52.3185 H         1 UNK         0.0800 
    141 H141        0.4204  -19.2970  -49.1901 H         1 UNK         0.0800 
    142 H142       -0.6179  -20.4290  -49.9879 H         1 UNK         0.0800 
    143 H143        0.8633  -21.6555  -47.7246 H         1 UNK         0.0600 
    144 H144       -0.3525  -19.1476  -47.0802 H         1 UNK         0.3000 
    145 H145        0.5547  -19.5963  -43.6324 H         1 UNK         0.0600 
    146 H146        0.9320  -17.2321  -44.3492 H         1 UNK         0.0600 
    147 H147        1.9736  -18.3415  -45.2111 H         1 UNK         0.0600 
    148 H148        0.5704  -17.6442  -46.0080 H         1 UNK         0.0600 
    149 H149       -1.4764  -17.8556  -44.5921 H         1 UNK         0.3000 
    150 H150       -4.1637  -19.5071  -42.8579 H         1 UNK         0.0600 
    151 H151       -2.7894  -18.1448  -41.2479 H         1 UNK         0.0600 
    152 H152       -4.2196  -17.2894  -41.8057 H         1 UNK         0.0600 
    153 H153       -2.6402  -16.8778  -42.4632 H         1 UNK         0.0600 
    154 H154       -3.4110  -17.3877  -44.8432 H         1 UNK         0.3000 
    155 H155       -5.8151  -18.5145  -47.0730 H         1 UNK         0.0600 
    156 H156       -6.1904  -15.8773  -45.5569 H         1 UNK         0.0600 
    157 H157       -7.4199  -17.1208  -45.7522 H         1 UNK         0.0600 
    158 H158       -6.8279  -16.2547  -47.1580 H         1 UNK         0.0600 
    159 H159       -4.2995  -16.1203  -47.1195 H         1 UNK         0.3000 
    160 H160       -1.0956  -17.3955  -47.8146 H         1 UNK         0.0600 
    161 H161       -3.1257  -16.2103  -49.7790 H         1 UNK         0.0600 
    162 H162       -2.1789  -17.6746  -50.0309 H         1 UNK         0.0600 
    163 H163       -1.3771  -16.1158  -49.9271 H         1 UNK         0.0600 
    164 H164       -1.9805  -14.7730  -48.0117 H         1 UNK         0.3000 
    165 H165       -1.2015  -13.2999  -46.4869 H         1 UNK         0.0600 
    166 H166       -3.0653  -12.1964  -45.2157 H         1 UNK         0.0600 
    167 H167       -3.7098  -13.3492  -46.3720 H         1 UNK         0.0600 
    168 H168       -3.6377  -13.7694  -44.6641 H         1 UNK         0.0600 
    169 H169       -0.9532  -14.4796  -43.8151 H         1 UNK         0.3000 
    170 H170        1.5664  -12.2285  -42.9708 H         1 UNK         0.0600 
    171 H171       -0.2171  -10.6229  -42.2801 H         1 UNK         0.0600 
    172 H172       -1.1568  -11.9426  -41.5946 H         1 UNK         0.0600 
    173 H173        0.4068  -11.5101  -40.9005 H         1 UNK         0.0600 
    174 H174        0.1634  -13.9897  -41.2447 H         1 UNK         0.3000 
    175 H175        1.8868  -15.7439  -40.5848 H         1 UNK         0.0600 
    176 H176       -0.2005  -17.1160  -42.3830 H         1 UNK         0.0600 
    177 H177        0.2978  -17.7329  -40.8136 H         1 UNK         0.0600 
    178 H178       -0.5286  -16.1928  -40.9288 H         1 UNK         0.0600 
    179 H179        2.8947  -16.7511  -43.0173 H         1 UNK         0.3000 
    180 H180        5.1190  -18.9588  -41.4551 H         1 UNK         0.0600 
    181 H181        3.0865  -19.7928  -43.5951 H         1 UNK         0.0600 
    182 H182        3.3682  -20.6393  -42.0791 H         1 UNK         0.0600 
    183 H183        4.6427  -20.5552  -43.2855 H         1 UNK         0.0600 
    184 H184        4.7443  -18.1181  -44.1800 H         1 UNK         0.3000 
    185 H185        6.3045  -14.9686  -43.9358 H         1 UNK         0.0600 
    186 H186        8.4072  -16.2871  -43.6986 H         1 UNK         0.0600 
    187 H187        7.7943  -17.5108  -44.8061 H         1 UNK         0.0600 
    188 H188        8.1295  -15.8795  -45.3851 H         1 UNK         0.0600 
    189 H189        5.3218  -17.2299  -45.6385 H         1 UNK         0.3000 
    190 H190       -2.3532  -20.7942  -46.9200 H         1 UNK         0.3000 
    191 H191       -3.8096  -23.0350  -47.7726 H         1 UNK         0.0600 
    192 H192       -3.9365  -21.5792  -45.0696 H         1 UNK         0.0600 
    193 H193       -5.2120  -22.5642  -45.7724 H         1 UNK         0.0600 
    194 H194       -4.7514  -21.0506  -46.5294 H         1 UNK         0.0600 
    195 H195       -1.4755  -22.7146  -45.0596 H         1 UNK         0.3000 
    196 H196       -1.9053  -25.4828  -44.1586 H         1 UNK         0.0600 
    197 H197       -0.2030  -24.8945  -42.4633 H         1 UNK         0.0600 
    198 H198       -1.4762  -23.6832  -42.4969 H         1 UNK         0.0600 
    199 H199        0.0842  -23.3420  -43.2376 H         1 UNK         0.0600 
    200 H200        0.5904  -23.5289  -45.8386 H         1 UNK         0.3000 
    201 H201        2.5236  -25.6057  -45.8996 H         1 UNK         0.0600 
    202 H202        2.9674  -23.0973  -46.0295 H         1 UNK         0.0600 
    203 H203        2.4705  -23.1577  -47.7231 H         1 UNK         0.0600 
    204 H204        3.8618  -24.0724  -47.1854 H         1 UNK         0.0600 
    205 H205        0.1429  -24.5861  -48.4041 H         1 UNK         0.3000 
    206 H206        0.9362  -26.9023  -50.1155 H         1 UNK         0.0600 
    207 H207        2.2571  -24.8763  -50.7901 H         1 UNK         0.0600 
    208 H208        1.1098  -25.3293  -52.0378 H         1 UNK         0.0600 
    209 H209        0.7615  -23.9645  -50.9827 H         1 UNK         0.0600 
    210 H210       -1.5919  -25.5602  -48.5408 H         1 UNK         0.3000 
    211 H211       -3.8060  -25.5495  -48.6752 H         1 UNK         0.0600 
    212 H212       -3.6550  -27.4330  -51.0749 H         1 UNK         0.0600 
    213 H213       -5.0336  -27.1580  -50.0237 H         1 UNK         0.0600 
    214 H214       -3.5998  -27.9459  -49.3882 H         1 UNK         0.0600 
    215 H215       -2.1472  -23.6067  -50.1691 H         1 UNK         0.3000 
    216 H216       -3.8980  -22.6946  -52.3936 H         1 UNK         0.0600 
    217 H217       -1.9175  -21.1457  -52.7798 H         1 UNK         0.0600 
    218 H218       -1.5566  -22.8549  -52.9662 H         1 UNK         0.0600 
    219 H219       -1.0604  -22.0117  -51.5084 H         1 UNK         0.0600 
    220 H220       -5.4950  -22.3831  -50.5351 H         1 UNK         0.3000 
    221 H221       -5.0183  -20.3126  -48.6037 H         1 UNK         0.0600 
    222 H222       -7.5764  -21.8476  -49.3041 H         1 UNK         0.0600 
    223 H223       -6.3596  -22.3746  -48.1461 H         1 UNK         0.0600 
    224 H224       -7.2933  -20.9213  -47.8334 H         1 UNK         0.0600 
    225 H225       -4.5049  -18.8732  -50.6330 H         1 UNK         0.3000 
    226 H226       -4.7522  -16.8753  -51.5318 H         1 UNK         0.0600 
    227 H227       -5.5692  -16.0999  -49.3516 H         1 UNK         0.0600 
    228 H228       -6.3891  -15.2431  -50.6436 H         1 UNK         0.0600 
    229 H229       -7.2277  -16.5161  -49.7716 H         1 UNK         0.0600 
    230 H230       -8.1240  -18.1018  -51.3896 H         1 UNK         0.3000 
    231 H231       -8.9142  -16.9932  -53.9319 H         1 UNK         0.0600 
    232 H232      -10.9547  -18.3984  -53.5676 H         1 UNK         0.0600 
    233 H233      -10.5407  -17.4898  -52.1222 H         1 UNK         0.0600 
    234 H234      -10.1657  -19.2102  -52.2194 H         1 UNK         0.0600 
    235 H235       -7.2985  -19.9203  -53.0025 H         1 UNK         0.3000 
    236 H236       -7.7356  -21.3788  -55.4988 H         1 UNK         0.0600 
    237 H237       -7.5723  -22.5875  -53.3520 H         1 UNK         0.0600 
    238 H238       -6.2153  -23.0381  -54.3704 H         1 UNK         0.0600 
    239 H239       -5.9795  -21.9026  -53.0466 H         1 UNK         0.0600 
    240 H240       -5.6676  -18.7783  -54.6712 H         1 UNK         0.3000 
    241 H241       -3.7606  -19.5025  -56.8243 H         1 UNK         0.0600 
    242 H242       -5.0627  -15.6913  -56.4895 H         1 UNK         0.3800 
    243 H243       -5.5431  -16.8117  -55.2413 H         1 UNK         0.3800 
    244 H244       -2.6244  -20.1082  -54.7735 H         1 UNK         0.0800 
    245 H245       -1.8409  -18.7446  -55.5019 H         1 UNK         0.0800 
    246 H246       -1.3579  -16.7011  -54.5475 H         1 UNK         0.0800 
    247 H247       -2.0244  -15.9793  -53.1080 H         1 UNK         0.0800 
@<TRIPOS>BOND
     1    1    2 1    
     2    1  127 1    
     3    1  128 1    
     4    1  129 1    
     5    2    3 2    
     6    2    4 am   BACKBONE|DICT|INTERRES
     7    4    5 1    
     8    4  130 1    
     9    5    6 1    
    10    5   65 1    
    11    5  131 1    
    12    6    7 1    
    13    6  132 1    
    14    6  133 1    
    15    7    8 1    
    16    8    9 1    
    17    8  134 1    
    18    8  135 1    
    19    9   10 ar   
    20    9   14 ar   
    21   10   11 ar   
    22   10  136 1    
    23   11   12 ar   
    24   11  126 1    
    25   12   13 ar   
    26   12  137 1    
    27   13   14 ar   
    28   13   15 1    
    29   14  138 1    
    30   15   16 1    
    31   15  139 1    
    32   15  140 1    
    33   16   17 1    
    34   17   18 1    
    35   17  141 1    
    36   17  142 1    
    37   18   19 1    
    38   18   67 1    
    39   18  143 1    
    40   19   20 am   BACKBONE|DICT|INTERRES
    41   19  144 1    
    42   20   21 2    
    43   20   22 1    
    44   22   23 1    
    45   22   24 1    
    46   22  145 1    
    47   23  146 1    
    48   23  147 1    
    49   23  148 1    
    50   24   25 am   BACKBONE|DICT|INTERRES
    51   24  149 1    
    52   25   26 2    
    53   25   27 1    
    54   27   28 1    
    55   27   29 1    
    56   27  150 1    
    57   28  151 1    
    58   28  152 1    
    59   28  153 1    
    60   29   30 am   BACKBONE|DICT|INTERRES
    61   29  154 1    
    62   30   31 2    
    63   30   32 1    
    64   32   33 1    
    65   32   34 1    
    66   32  155 1    
    67   33  156 1    
    68   33  157 1    
    69   33  158 1    
    70   34   35 am   BACKBONE|DICT|INTERRES
    71   34  159 1    
    72   35   36 2    
    73   35   37 1    
    74   37   38 1    
    75   37   39 1    
    76   37  160 1    
    77   38  161 1    
    78   38  162 1    
    79   38  163 1    
    80   39   40 am   BACKBONE|DICT|INTERRES
    81   39  164 1    
    82   40   41 2    
    83   40   42 1    
    84   42   43 1    
    85   42   44 1    
    86   42  165 1    
    87   43  166 1    
    88   43  167 1    
    89   43  168 1    
    90   44   45 am   BACKBONE|DICT|INTERRES
    91   44  169 1    
    92   45   46 2    
    93   45   47 1    
    94   47   48 1    
    95   47   49 1    
    96   47  170 1    
    97   48  171 1    
    98   48  172 1    
    99   48  173 1    
   100   49   50 am   BACKBONE|DICT|INTERRES
   101   49  174 1    
   102   50   51 2    
   103   50   52 1    
   104   52   53 1    
   105   52   54 1    
   106   52  175 1    
   107   53  176 1    
   108   53  177 1    
   109   53  178 1    
   110   54   55 am   BACKBONE|DICT|INTERRES
   111   54  179 1    
   112   55   56 2    
   113   55   57 1    
   114   57   58 1    
   115   57   59 1    
   116   57  180 1    
   117   58  181 1    
   118   58  182 1    
   119   58  183 1    
   120   59   60 am   BACKBONE|DICT|INTERRES
   121   59  184 1    
   122   60   61 2    
   123   60   62 1    
   124   62   63 1    
   125   62   64 1    
   126   62  185 1    
   127   63  186 1    
   128   63  187 1    
   129   63  188 1    
   130   64   65 am   BACKBONE|DICT|INTERRES
   131   64  189 1    
   132   65   66 2    
   133   67   68 2    
   134   67   69 am   BACKBONE|DICT|INTERRES
   135   69   70 1    
   136   69  190 1    
   137   70   71 1    
   138   70   72 1    
   139   70  191 1    
   140   71  192 1    
   141   71  193 1    
   142   71  194 1    
   143   72   73 2    
   144   72   74 am   BACKBONE|DICT|INTERRES
   145   74   75 1    
   146   74  195 1    
   147   75   76 1    
   148   75   77 1    
   149   75  196 1    
   150   76  197 1    
   151   76  198 1    
   152   76  199 1    
   153   77   78 2    
   154   77   79 am   BACKBONE|DICT|INTERRES
   155   79   80 1    
   156   79  200 1    
   157   80   81 1    
   158   80   82 1    
   159   80  201 1    
   160   81  202 1    
   161   81  203 1    
   162   81  204 1    
   163   82   83 2    
   164   82   84 am   BACKBONE|DICT|INTERRES
   165   84   85 1    
   166   84  205 1    
   167   85   86 1    
   168   85   87 1    
   169   85  206 1    
   170   86  207 1    
   171   86  208 1    
   172   86  209 1    
   173   87   88 2    
   174   87   89 am   BACKBONE|DICT|INTERRES
   175   89   90 1    
   176   89  210 1    
   177   90   91 1    
   178   90   92 1    
   179   90  211 1    
   180   91  212 1    
   181   91  213 1    
   182   91  214 1    
   183   92   93 2    
   184   92   94 am   BACKBONE|DICT|INTERRES
   185   94   95 1    
   186   94  215 1    
   187   95   96 1    
   188   95   97 1    
   189   95  216 1    
   190   96  217 1    
   191   96  218 1    
   192   96  219 1    
   193   97   98 2    
   194   97   99 am   BACKBONE|DICT|INTERRES
   195   99  100 1    
   196   99  220 1    
   197  100  101 1    
   198  100  102 1    
   199  100  221 1    
   200  101  222 1    
   201  101  223 1    
   202  101  224 1    
   203  102  103 2    
   204  102  104 am   BACKBONE|DICT|INTERRES
   205  104  105 1    
   206  104  225 1    
   207  105  106 1    
   208  105  107 1    
   209  105  226 1    
   210  106  227 1    
   211  106  228 1    
   212  106  229 1    
   213  107  108 2    
   214  107  109 am   BACKBONE|DICT|INTERRES
   215  109  110 1    
   216  109  230 1    
   217  110  111 1    
   218  110  112 1    
   219  110  231 1    
   220  111  232 1    
   221  111  233 1    
   222  111  234 1    
   223  112  113 2    
   224  112  114 am   BACKBONE|DICT|INTERRES
   225  114  115 1    
   226  114  235 1    
   227  115  116 1    
   228  115  117 1    
   229  115  236 1    
   230  116  237 1    
   231  116  238 1    
   232  116  239 1    
   233  117  118 2    
   234  117  119 am   BACKBONE|DICT|INTERRES
   235  119  120 1    
   236  119  240 1    
   237  120  121 1    
   238  120  124 1    
   239  120  241 1    
   240  121  122 am   BACKBONE|DICT|INTERRES
   241  121  123 2    
   242  122  242 1    
   243  122  243 1    
   244  124  125 1    
   245  124  244 1    
   246  124  245 1    
   247  125  126 1    
   248  126  246 1    
   249  126  247 1    
@<TRIPOS>SUBSTRUCTURE
     1 UNK         1 GROUP             0       ****    0 ROOT    
