@<TRIPOS>MOLECULE
3R540
247   249    1
SMALL
USER_CHARGES


@<TRIPOS>ATOM
      1 CA         -2.1780   -7.9233  -45.8847 C.3       0 UNK        -0.1800 
      2 C          -1.3883   -9.2007  -46.1290 C.2       0 UNK         0.5000 
      3 O          -0.1567   -9.1780  -46.1050 O.2       0 UNK        -0.5000 
      4 N          -2.0862  -10.3251  -46.3428 N.am      1 UNK        -0.5000 
      5 CA         -1.4920  -11.6391  -46.6253 C.3       1 UNK         0.1400 
      6 C6         -2.4740  -12.6211  -47.3033 C.3       23 UNK        -0.0398 
      7 S7         -4.0171  -12.9354  -46.3795 S.3       23 UNK        -0.2404 
      8 C8         -4.9844  -13.8402  -47.6337 C.3       23 UNK        -0.0205 
      9 C9         -4.5936  -15.3101  -47.7180 C.ar      23 UNK        -0.0193 
     10 C10        -3.4635  -15.7037  -48.4416 C.ar      23 UNK        -0.1150 
     11 C11        -3.0987  -17.0498  -48.5159 C.ar      23 UNK        -0.0193 
     12 C12        -3.8983  -18.0128  -47.8983 C.ar      23 UNK        -0.1150 
     13 C13        -5.0407  -17.6371  -47.1857 C.ar      23 UNK        -0.0193 
     14 C14        -5.3769  -16.2835  -47.0897 C.ar      23 UNK        -0.1150 
     15 C15        -5.9223  -18.6941  -46.5378 C.3       23 UNK        -0.0205 
     16 S16        -5.5778  -18.9142  -44.7595 S.3       23 UNK        -0.2404 
     17 C17        -3.7986  -19.3277  -44.7111 C.3       23 UNK        -0.0398 
     18 CA         -3.4216  -20.6409  -45.4381 C.3       11 UNK         0.1400 
     19 N          -1.9907  -20.6945  -45.7455 N.am      11 UNK        -0.5000 
     20 C          -1.4095  -21.5974  -46.5472 C.2       10 UNK         0.5000 
     21 O          -2.0264  -22.4681  -47.1595 O.2       10 UNK        -0.5000 
     22 CA          0.1229  -21.5515  -46.6451 C.3       10 UNK         0.1400 
     23 CB          0.5785  -20.5246  -47.6918 C.3       10 UNK        -0.1800 
     24 N           0.7326  -21.2634  -45.3464 N.am      10 UNK        -0.5000 
     25 C           0.7652  -22.1401  -44.3311 C.2       9 UNK         0.5000 
     26 O           0.3686  -23.3015  -44.4209 O.2       9 UNK        -0.5000 
     27 CA          1.2769  -21.6210  -42.9760 C.3       9 UNK         0.1400 
     28 CB          2.8021  -21.7681  -42.8739 C.3       9 UNK        -0.1800 
     29 N           0.8883  -20.2300  -42.7322 N.am      9 UNK        -0.5000 
     30 C          -0.3694  -19.8479  -42.4633 C.2       8 UNK         0.5000 
     31 O          -1.3112  -20.6338  -42.3789 O.2       8 UNK        -0.5000 
     32 CA         -0.6470  -18.3421  -42.3014 C.3       8 UNK         0.1400 
     33 CB         -0.5217  -17.9284  -40.8282 C.3       8 UNK        -0.1800 
     34 N           0.2182  -17.4904  -43.1133 N.am      8 UNK        -0.5000 
     35 C           0.3064  -17.5132  -44.4498 C.2       7 UNK         0.5000 
     36 O          -0.3537  -18.2714  -45.1631 O.2       7 UNK        -0.5000 
     37 CA          1.3385  -16.5620  -45.0909 C.3       7 UNK         0.1400 
     38 CB          1.8126  -15.4380  -44.1454 C.3       7 UNK        -0.1800 
     39 N           2.5116  -17.2639  -45.6159 N.am      7 UNK        -0.5000 
     40 C           3.2959  -18.1422  -44.9696 C.2       6 UNK         0.5000 
     41 O           3.0577  -18.5884  -43.8469 O.2       6 UNK        -0.5000 
     42 CA          4.5905  -18.5731  -45.6853 C.3       6 UNK         0.1400 
     43 CB          4.3441  -19.8223  -46.5439 C.3       6 UNK        -0.1800 
     44 N           5.1561  -17.5180  -46.5278 N.am      6 UNK        -0.5000 
     45 C           5.6376  -16.3486  -46.0829 C.2       5 UNK         0.5000 
     46 O           5.7486  -16.0607  -44.8905 O.2       5 UNK        -0.5000 
     47 CA          6.0438  -15.3095  -47.1468 C.3       5 UNK         0.1400 
     48 CB          6.4416  -15.9308  -48.5044 C.3       5 UNK        -0.1800 
     49 N           5.0089  -14.2876  -47.3332 N.am      5 UNK        -0.5000 
     50 C           3.7302  -14.4667  -47.6925 C.2       4 UNK         0.5000 
     51 O           3.2215  -15.5719  -47.8943 O.2       4 UNK        -0.5000 
     52 CA          2.8864  -13.1849  -47.8545 C.3       4 UNK         0.1400 
     53 CB          1.5050  -13.4683  -48.4728 C.3       4 UNK        -0.1800 
     54 N           2.7211  -12.4489  -46.5947 N.am      4 UNK        -0.5000 
     55 C           3.6523  -11.6502  -46.0472 C.2       3 UNK         0.5000 
     56 O           4.7802  -11.5206  -46.5274 O.2       3 UNK        -0.5000 
     57 CA          3.2916  -10.8434  -44.7807 C.3       3 UNK         0.1400 
     58 CB          3.4887   -9.3378  -45.0259 C.3       3 UNK        -0.1800 
     59 N           1.9134  -11.0524  -44.3400 N.am      3 UNK        -0.5000 
     60 C           1.5326  -11.8462  -43.3290 C.2       2 UNK         0.5000 
     61 O           2.3193  -12.4678  -42.6151 O.2       2 UNK        -0.5000 
     62 CA          0.0130  -11.9858  -43.0779 C.3       2 UNK         0.1400 
     63 CB         -0.4195  -11.0961  -41.9029 C.3       2 UNK        -0.1800 
     64 N          -0.8096  -11.6571  -44.2457 N.am      2 UNK        -0.5000 
     65 C          -0.7517  -12.2809  -45.4307 C.2       1 UNK         0.5000 
     66 O          -0.0728  -13.2885  -45.6210 O.2       1 UNK        -0.5000 
     67 C          -3.9074  -21.8993  -44.6890 C.2       11 UNK         0.5000 
     68 O          -4.9189  -22.4817  -45.0816 O.2       11 UNK        -0.5000 
     69 N          -3.1415  -22.3483  -43.6838 N.am      12 UNK        -0.5000 
     70 CA         -3.3693  -23.5960  -42.9466 C.3       12 UNK         0.1400 
     71 CB         -2.3754  -23.6846  -41.7790 C.3       12 UNK        -0.1800 
     72 C          -3.2729  -24.8547  -43.8319 C.2       12 UNK         0.5000 
     73 O          -3.9563  -25.8424  -43.5622 O.2       12 UNK        -0.5000 
     74 N          -2.4618  -24.7778  -44.8945 N.am      13 UNK        -0.5000 
     75 CA         -2.3287  -25.7917  -45.9388 C.3       13 UNK         0.1400 
     76 CB         -0.8973  -25.7367  -46.5003 C.3       13 UNK        -0.1800 
     77 C          -3.3789  -25.6466  -47.0624 C.2       13 UNK         0.5000 
     78 O          -3.2404  -26.3137  -48.0863 O.2       13 UNK        -0.5000 
     79 N          -4.3927  -24.7852  -46.8800 N.am      14 UNK        -0.5000 
     80 CA         -5.4927  -24.4967  -47.8077 C.3       14 UNK         0.1400 
     81 CB         -6.3825  -25.7409  -48.0141 C.3       14 UNK        -0.1800 
     82 C          -4.9952  -23.8813  -49.1299 C.2       14 UNK         0.5000 
     83 O          -5.3166  -24.3786  -50.2102 O.2       14 UNK        -0.5000 
     84 N          -4.1774  -22.8263  -49.0060 N.am      15 UNK        -0.5000 
     85 CA         -3.4750  -22.1192  -50.0824 C.3       15 UNK         0.1400 
     86 CB         -4.4650  -21.3942  -51.0148 C.3       15 UNK        -0.1800 
     87 C          -2.5002  -23.0527  -50.8251 C.2       15 UNK         0.5000 
     88 O          -2.4770  -23.0787  -52.0588 O.2       15 UNK        -0.5000 
     89 N          -1.7437  -23.8270  -50.0314 N.am      16 UNK        -0.5000 
     90 CA         -0.8041  -24.8742  -50.4437 C.3       16 UNK         0.1400 
     91 CB          0.4261  -24.2461  -51.1317 C.3       16 UNK        -0.1800 
     92 C          -1.4896  -25.9565  -51.3034 C.2       16 UNK         0.5000 
     93 O          -1.0681  -26.2082  -52.4311 O.2       16 UNK        -0.5000 
     94 N          -2.5785  -26.5337  -50.7749 N.am      17 UNK        -0.5000 
     95 CA         -3.4846  -27.4836  -51.4336 C.3       17 UNK         0.1400 
     96 CB         -2.7911  -28.8474  -51.6298 C.3       17 UNK        -0.1800 
     97 C          -4.0851  -26.9143  -52.7380 C.2       17 UNK         0.5000 
     98 O          -4.1704  -27.6161  -53.7473 O.2       17 UNK        -0.5000 
     99 N          -4.4478  -25.6253  -52.6860 N.am      18 UNK        -0.5000 
    100 CA        -4.9337  -24.7685  -53.7691 C.3       18 UNK         0.1400 
    101 CB        -6.2933  -25.2704  -54.2966 C.3       18 UNK        -0.1800 
    102 C         -3.9194  -24.5128  -54.9072 C.2       18 UNK         0.5000 
    103 O         -4.3144  -23.9643  -55.9370 O.2       18 UNK        -0.5000 
    104 N         -2.6393  -24.8737  -54.7239 N.am      19 UNK        -0.5000 
    105 CA        -1.5841  -24.6540  -55.7160 C.3       19 UNK         0.1400 
    106 CB        -0.3882  -25.5749  -55.4342 C.3       19 UNK        -0.1800 
    107 C         -1.1279  -23.1865  -55.7754 C.2       19 UNK         0.5000 
    108 O         -0.7807  -22.7118  -56.8579 O.2       19 UNK        -0.5000 
    109 N         -1.1455  -22.4891  -54.6292 N.am      20 UNK        -0.5000 
    110 CA        -0.8649  -21.0539  -54.5576 C.3       20 UNK         0.1400 
    111 CB        -0.3857  -20.6839  -53.1451 C.3       20 UNK        -0.1800 
    112 C         -2.1007  -20.2256  -54.9498 C.2       20 UNK         0.5000 
    113 O         -1.9495  -19.1568  -55.5415 O.2       20 UNK        -0.5000 
    114 N         -3.2938  -20.7448  -54.6130 N.am      21 UNK        -0.5000 
    115 CA        -4.6286  -20.1985  -54.9039 C.3       21 UNK         0.1400 
    116 CB        -4.9086  -20.2449  -56.4197 C.3       21 UNK        -0.1800 
    117 C         -4.8896  -18.8001  -54.2961 C.2       21 UNK         0.5000 
    118 O         -5.7605  -18.0698  -54.7715 O.2       21 UNK        -0.5000 
    119 N         -4.1278  -18.4572  -53.2528 N.am      22 UNK        -0.5000 
    120 CA        -4.1497  -17.1743  -52.5384 C.3       22 UNK         0.1400 
    121 C         -5.3514  -16.9677  -51.5706 C.2       22 UNK         0.5000 
    122 N         -6.1350  -17.9909  -51.2522 N.am      22 UNK        -0.7600 
    123 O         -5.5971  -15.8480  -51.1317 O.2       22 UNK        -0.5000 
    124 C124       -2.7821  -16.9049  -51.8564 C.3       23 UNK        -0.0398 
    125 S125       -2.1813  -18.2928  -50.8228 S.3       23 UNK        -0.2404 
    126 C126       -1.8303  -17.4665  -49.2425 C.3       23 UNK        -0.0205 
    127 H127       -3.2535   -8.0986  -45.9214 H         1 UNK         0.0600 
    128 H128       -1.9284   -7.1787  -46.6405 H         1 UNK         0.0600 
    129 H129       -1.9328   -7.5124  -44.9054 H         1 UNK         0.0600 
    130 H130       -3.0966  -10.2995  -46.3281 H         1 UNK         0.3000 
    131 H131       -0.7069  -11.4554  -47.3609 H         1 UNK         0.0600 
    132 H132       -2.7389  -12.2323  -48.2874 H         1 UNK         0.0800 
    133 H133       -1.9712  -13.5709  -47.4849 H         1 UNK         0.0800 
    134 H134       -6.0424  -13.7523  -47.3823 H         1 UNK         0.0800 
    135 H135       -4.8707  -13.3682  -48.6107 H         1 UNK         0.0800 
    136 H136       -2.8652  -14.9629  -48.9499 H         1 UNK         0.1150 
    137 H137       -3.6252  -19.0542  -47.9811 H         1 UNK         0.1150 
    138 H138       -6.2567  -15.9902  -46.5344 H         1 UNK         0.1150 
    139 H139       -6.9682  -18.4049  -46.6506 H         1 UNK         0.0800 
    140 H140       -5.8282  -19.6469  -47.0596 H         1 UNK         0.0800 
    141 H141       -3.4878  -19.3673  -43.6665 H         1 UNK         0.0800 
    142 H142       -3.2533  -18.4875  -45.1435 H         1 UNK         0.0800 
    143 H143       -3.9247  -20.6550  -46.4038 H         1 UNK         0.0600 
    144 H144       -1.4066  -19.9746  -45.3321 H         1 UNK         0.3000 
    145 H145        0.4602  -22.5358  -46.9767 H         1 UNK         0.0600 
    146 H146        1.6461  -20.6151  -47.8851 H         1 UNK         0.0600 
    147 H147        0.0665  -20.6803  -48.6428 H         1 UNK         0.0600 
    148 H148        0.3800  -19.5010  -47.3756 H         1 UNK         0.0600 
    149 H149        1.0195  -20.3101  -45.1750 H         1 UNK         0.3000 
    150 H150        0.8302  -22.2393  -42.1943 H         1 UNK         0.0600 
    151 H151        3.0974  -22.8139  -42.9677 H         1 UNK         0.0600 
    152 H152        3.1699  -21.4112  -41.9118 H         1 UNK         0.0600 
    153 H153        3.3182  -21.2137  -43.6568 H         1 UNK         0.0600 
    154 H154        1.6101  -19.5252  -42.8538 H         1 UNK         0.3000 
    155 H155       -1.6750  -18.1604  -42.6190 H         1 UNK         0.0600 
    156 H156       -1.1770  -18.5299  -40.1965 H         1 UNK         0.0600 
    157 H157       -0.8035  -16.8850  -40.6853 H         1 UNK         0.0600 
    158 H158        0.4971  -18.0558  -40.4599 H         1 UNK         0.0600 
    159 H159        0.8314  -16.8656  -42.6109 H         1 UNK         0.3000 
    160 H160        0.8399  -16.0948  -45.9417 H         1 UNK         0.0600 
    161 H161        2.4214  -15.8135  -43.3223 H         1 UNK         0.0600 
    162 H162        0.9663  -14.9021  -43.7173 H         1 UNK         0.0600 
    163 H163        2.4137  -14.7071  -44.6861 H         1 UNK         0.0600 
    164 H164        2.8135  -16.9477  -46.5330 H         1 UNK         0.3000 
    165 H165        5.3232  -18.8236  -44.9155 H         1 UNK         0.0600 
    166 H166        5.2806  -20.2202  -46.9352 H         1 UNK         0.0600 
    167 H167        3.8713  -20.6164  -45.9650 H         1 UNK         0.0600 
    168 H168        3.6960  -19.6009  -47.3918 H         1 UNK         0.0600 
    169 H169        5.0766  -17.6462  -47.5261 H         1 UNK         0.3000 
    170 H170        6.9214  -14.7943  -46.7534 H         1 UNK         0.0600 
    171 H171        5.5985  -16.3973  -49.0147 H         1 UNK         0.0600 
    172 H172        6.8468  -15.1709  -49.1727 H         1 UNK         0.0600 
    173 H173        7.2146  -16.6898  -48.3768 H         1 UNK         0.0600 
    174 H174        5.2894  -13.3337  -47.1250 H         1 UNK         0.3000 
    175 H175        3.4206  -12.5438  -48.5590 H         1 UNK         0.0600 
    176 H176        0.9072  -14.1325  -47.8489 H         1 UNK         0.0600 
    177 H177        0.9452  -12.5472  -48.6285 H         1 UNK         0.0600 
    178 H178        1.6081  -13.9484  -49.4467 H         1 UNK         0.0600 
    179 H179        1.8378  -12.5781  -46.1157 H         1 UNK         0.3000 
    180 H180        3.9883  -11.1506  -43.9982 H         1 UNK         0.0600 
    181 H181        2.8366   -8.9719  -45.8203 H         1 UNK         0.0600 
    182 H182        4.5167   -9.1145  -45.3140 H         1 UNK         0.0600 
    183 H183        3.2745   -8.7614  -44.1257 H         1 UNK         0.0600 
    184 H184        1.1999  -10.5607  -44.8650 H         1 UNK         0.3000 
    185 H185       -0.1850  -13.0253  -42.8112 H         1 UNK         0.0600 
    186 H186       -0.2659  -10.0386  -42.1219 H         1 UNK         0.0600 
    187 H187       -1.4733  -11.2411  -41.6644 H         1 UNK         0.0600 
    188 H188        0.1510  -11.3315  -41.0034 H         1 UNK         0.0600 
    189 H189       -1.3850  -10.8307  -44.1763 H         1 UNK         0.3000 
    190 H190       -2.3533  -21.7840  -43.3736 H         1 UNK         0.3000 
    191 H191       -4.3798  -23.5597  -42.5348 H         1 UNK         0.0600 
    192 H192       -1.3432  -23.6886  -42.1309 H         1 UNK         0.0600 
    193 H193       -2.4932  -22.8432  -41.0960 H         1 UNK         0.0600 
    194 H194       -2.5299  -24.5963  -41.2006 H         1 UNK         0.0600 
    195 H195       -1.9219  -23.9328  -45.0253 H         1 UNK         0.3000 
    196 H196       -2.4736  -26.7791  -45.4963 H         1 UNK         0.0600 
    197 H197       -0.1594  -25.8560  -45.7067 H         1 UNK         0.0600 
    198 H198       -0.6953  -24.7909  -47.0017 H         1 UNK         0.0600 
    199 H199       -0.7247  -26.5362  -47.2216 H         1 UNK         0.0600 
    200 H200       -4.4038  -24.2357  -46.0282 H         1 UNK         0.3000 
    201 H201       -6.1067  -23.7332  -47.3280 H         1 UNK         0.0600 
    202 H202       -7.2633  -25.4938  -48.6078 H         1 UNK         0.0600 
    203 H203       -6.7339  -26.1359  -47.0610 H         1 UNK         0.0600 
    204 H204       -5.8549  -26.5406  -48.5347 H         1 UNK         0.0600 
    205 H205       -3.8712  -22.5813  -48.0715 H         1 UNK         0.3000 
    206 H206       -2.8597  -21.3551  -49.6049 H         1 UNK         0.0600 
    207 H207       -5.1017  -20.7130  -50.4509 H         1 UNK         0.0600 
    208 H208       -5.1082  -22.0887  -51.5545 H         1 UNK         0.0600 
    209 H209       -3.9284  -20.8023  -51.7538 H         1 UNK         0.0600 
    210 H210       -1.8670  -23.7133  -49.0329 H         1 UNK         0.3000 
    211 H211       -0.4612  -25.3688  -49.5343 H         1 UNK         0.0600 
    212 H212        0.8981  -23.5013  -50.4911 H         1 UNK         0.0600 
    213 H213        1.1761  -25.0051  -51.3563 H         1 UNK         0.0600 
    214 H214        0.1634  -23.7602  -52.0718 H         1 UNK         0.0600 
    215 H215       -2.8416  -26.2888  -49.8206 H         1 UNK         0.3000 
    216 H216       -4.3217  -27.6310  -50.7496 H         1 UNK         0.0600 
    217 H217       -3.4929  -29.5917  -52.0077 H         1 UNK         0.0600 
    218 H218       -1.9665  -28.7844  -52.3404 H         1 UNK         0.0600 
    219 H219       -2.3942  -29.2254  -50.6877 H         1 UNK         0.0600 
    220 H220       -4.3850  -25.1607  -51.7846 H         1 UNK         0.3000 
    221 H221       -5.1049  -23.7947  -53.3095 H         1 UNK         0.0600 
    222 H222       -6.1964  -26.2134  -54.8349 H         1 UNK         0.0600 
    223 H223       -7.0010  -25.4194  -53.4809 H         1 UNK         0.0600 
    224 H224       -6.7396  -24.5488  -54.9818 H         1 UNK         0.0600 
    225 H225       -2.3607  -25.3051  -53.8493 H         1 UNK         0.3000 
    226 H226       -1.9806  -24.9208  -56.6981 H         1 UNK         0.0600 
    227 H227       -0.7021  -26.6132  -55.3249 H         1 UNK         0.0600 
    228 H228        0.3310  -25.5352  -56.2531 H         1 UNK         0.0600 
    229 H229        0.1407  -25.2834  -54.5264 H         1 UNK         0.0600 
    230 H230       -1.4725  -22.9362  -53.7775 H         1 UNK         0.3000 
    231 H231       -0.0602  -20.8112  -55.2550 H         1 UNK         0.0600 
    232 H232       -0.0871  -19.6358  -53.1004 H         1 UNK         0.0600 
    233 H233        0.4771  -21.2809  -52.8499 H         1 UNK         0.0600 
    234 H234       -1.1651  -20.8277  -52.3980 H         1 UNK         0.0600 
    235 H235       -3.2821  -21.6275  -54.1217 H         1 UNK         0.3000 
    236 H236       -5.3386  -20.8705  -54.4200 H         1 UNK         0.0600 
    237 H237       -4.7350  -21.2435  -56.8211 H         1 UNK         0.0600 
    238 H238       -5.9455  -19.9863  -56.6368 H         1 UNK         0.0600 
    239 H239       -4.2753  -19.5479  -56.9693 H         1 UNK         0.0600 
    240 H240       -3.4329  -19.1135  -52.9306 H         1 UNK         0.3000 
    241 H241       -4.2720  -16.3988  -53.2971 H         1 UNK         0.0600 
    242 H242       -6.9149  -17.8387  -50.6336 H         1 UNK         0.3800 
    243 H243       -5.9583  -18.9067  -51.6276 H         1 UNK         0.3800 
    244 H244       -2.0302  -16.7342  -52.6279 H         1 UNK         0.0800 
    245 H245       -2.8123  -15.9808  -51.2777 H         1 UNK         0.0800 
    246 H246       -1.1770  -16.6097  -49.4148 H         1 UNK         0.0800 
    247 H247       -1.2689  -18.1513  -48.6061 H         1 UNK         0.0800 
@<TRIPOS>BOND
     1    1    2 1    
     2    1  127 1    
     3    1  128 1    
     4    1  129 1    
     5    2    3 2    
     6    2    4 am   BACKBONE|DICT|INTERRES
     7    4    5 1    
     8    4  130 1    
     9    5    6 1    
    10    5   65 1    
    11    5  131 1    
    12    6    7 1    
    13    6  132 1    
    14    6  133 1    
    15    7    8 1    
    16    8    9 1    
    17    8  134 1    
    18    8  135 1    
    19    9   10 ar   
    20    9   14 ar   
    21   10   11 ar   
    22   10  136 1    
    23   11   12 ar   
    24   11  126 1    
    25   12   13 ar   
    26   12  137 1    
    27   13   14 ar   
    28   13   15 1    
    29   14  138 1    
    30   15   16 1    
    31   15  139 1    
    32   15  140 1    
    33   16   17 1    
    34   17   18 1    
    35   17  141 1    
    36   17  142 1    
    37   18   19 1    
    38   18   67 1    
    39   18  143 1    
    40   19   20 am   BACKBONE|DICT|INTERRES
    41   19  144 1    
    42   20   21 2    
    43   20   22 1    
    44   22   23 1    
    45   22   24 1    
    46   22  145 1    
    47   23  146 1    
    48   23  147 1    
    49   23  148 1    
    50   24   25 am   BACKBONE|DICT|INTERRES
    51   24  149 1    
    52   25   26 2    
    53   25   27 1    
    54   27   28 1    
    55   27   29 1    
    56   27  150 1    
    57   28  151 1    
    58   28  152 1    
    59   28  153 1    
    60   29   30 am   BACKBONE|DICT|INTERRES
    61   29  154 1    
    62   30   31 2    
    63   30   32 1    
    64   32   33 1    
    65   32   34 1    
    66   32  155 1    
    67   33  156 1    
    68   33  157 1    
    69   33  158 1    
    70   34   35 am   BACKBONE|DICT|INTERRES
    71   34  159 1    
    72   35   36 2    
    73   35   37 1    
    74   37   38 1    
    75   37   39 1    
    76   37  160 1    
    77   38  161 1    
    78   38  162 1    
    79   38  163 1    
    80   39   40 am   BACKBONE|DICT|INTERRES
    81   39  164 1    
    82   40   41 2    
    83   40   42 1    
    84   42   43 1    
    85   42   44 1    
    86   42  165 1    
    87   43  166 1    
    88   43  167 1    
    89   43  168 1    
    90   44   45 am   BACKBONE|DICT|INTERRES
    91   44  169 1    
    92   45   46 2    
    93   45   47 1    
    94   47   48 1    
    95   47   49 1    
    96   47  170 1    
    97   48  171 1    
    98   48  172 1    
    99   48  173 1    
   100   49   50 am   BACKBONE|DICT|INTERRES
   101   49  174 1    
   102   50   51 2    
   103   50   52 1    
   104   52   53 1    
   105   52   54 1    
   106   52  175 1    
   107   53  176 1    
   108   53  177 1    
   109   53  178 1    
   110   54   55 am   BACKBONE|DICT|INTERRES
   111   54  179 1    
   112   55   56 2    
   113   55   57 1    
   114   57   58 1    
   115   57   59 1    
   116   57  180 1    
   117   58  181 1    
   118   58  182 1    
   119   58  183 1    
   120   59   60 am   BACKBONE|DICT|INTERRES
   121   59  184 1    
   122   60   61 2    
   123   60   62 1    
   124   62   63 1    
   125   62   64 1    
   126   62  185 1    
   127   63  186 1    
   128   63  187 1    
   129   63  188 1    
   130   64   65 am   BACKBONE|DICT|INTERRES
   131   64  189 1    
   132   65   66 2    
   133   67   68 2    
   134   67   69 am   BACKBONE|DICT|INTERRES
   135   69   70 1    
   136   69  190 1    
   137   70   71 1    
   138   70   72 1    
   139   70  191 1    
   140   71  192 1    
   141   71  193 1    
   142   71  194 1    
   143   72   73 2    
   144   72   74 am   BACKBONE|DICT|INTERRES
   145   74   75 1    
   146   74  195 1    
   147   75   76 1    
   148   75   77 1    
   149   75  196 1    
   150   76  197 1    
   151   76  198 1    
   152   76  199 1    
   153   77   78 2    
   154   77   79 am   BACKBONE|DICT|INTERRES
   155   79   80 1    
   156   79  200 1    
   157   80   81 1    
   158   80   82 1    
   159   80  201 1    
   160   81  202 1    
   161   81  203 1    
   162   81  204 1    
   163   82   83 2    
   164   82   84 am   BACKBONE|DICT|INTERRES
   165   84   85 1    
   166   84  205 1    
   167   85   86 1    
   168   85   87 1    
   169   85  206 1    
   170   86  207 1    
   171   86  208 1    
   172   86  209 1    
   173   87   88 2    
   174   87   89 am   BACKBONE|DICT|INTERRES
   175   89   90 1    
   176   89  210 1    
   177   90   91 1    
   178   90   92 1    
   179   90  211 1    
   180   91  212 1    
   181   91  213 1    
   182   91  214 1    
   183   92   93 2    
   184   92   94 am   BACKBONE|DICT|INTERRES
   185   94   95 1    
   186   94  215 1    
   187   95   96 1    
   188   95   97 1    
   189   95  216 1    
   190   96  217 1    
   191   96  218 1    
   192   96  219 1    
   193   97   98 2    
   194   97   99 am   BACKBONE|DICT|INTERRES
   195   99  100 1    
   196   99  220 1    
   197  100  101 1    
   198  100  102 1    
   199  100  221 1    
   200  101  222 1    
   201  101  223 1    
   202  101  224 1    
   203  102  103 2    
   204  102  104 am   BACKBONE|DICT|INTERRES
   205  104  105 1    
   206  104  225 1    
   207  105  106 1    
   208  105  107 1    
   209  105  226 1    
   210  106  227 1    
   211  106  228 1    
   212  106  229 1    
   213  107  108 2    
   214  107  109 am   BACKBONE|DICT|INTERRES
   215  109  110 1    
   216  109  230 1    
   217  110  111 1    
   218  110  112 1    
   219  110  231 1    
   220  111  232 1    
   221  111  233 1    
   222  111  234 1    
   223  112  113 2    
   224  112  114 am   BACKBONE|DICT|INTERRES
   225  114  115 1    
   226  114  235 1    
   227  115  116 1    
   228  115  117 1    
   229  115  236 1    
   230  116  237 1    
   231  116  238 1    
   232  116  239 1    
   233  117  118 2    
   234  117  119 am   BACKBONE|DICT|INTERRES
   235  119  120 1    
   236  119  240 1    
   237  120  121 1    
   238  120  124 1    
   239  120  241 1    
   240  121  122 am   BACKBONE|DICT|INTERRES
   241  121  123 2    
   242  122  242 1    
   243  122  243 1    
   244  124  125 1    
   245  124  244 1    
   246  124  245 1    
   247  125  126 1    
   248  126  246 1    
   249  126  247 1    
@<TRIPOS>SUBSTRUCTURE
     1 UNK         1 GROUP             0       ****    0 ROOT    
