@<TRIPOS>MOLECULE
3R540
247   249    1
SMALL
USER_CHARGES


@<TRIPOS>ATOM
      1 CA          0.7158  -11.8223  -49.4851 C.3       0 UNK        -0.1800 
      2 C          -0.0056  -12.5439  -48.3566 C.2       0 UNK         0.5000 
      3 O           0.5111  -13.5275  -47.8272 O.2       0 UNK        -0.5000 
      4 N          -1.1908  -12.0393  -47.9870 N.am      1 UNK        -0.5000 
      5 CA         -2.1216  -12.5895  -46.9871 C.3       1 UNK         0.1400 
      6 C6         -3.3723  -11.6888  -46.8260 C.3       23 UNK        -0.0398 
      7 S7         -4.2653  -11.3892  -48.3908 S.3       23 UNK        -0.2404 
      8 C8         -5.8328  -12.2666  -48.1019 C.3       23 UNK        -0.0205 
      9 C9         -5.7033  -13.7583  -48.3653 C.ar      23 UNK        -0.0193 
     10 C10        -6.0179  -14.2731  -49.6257 C.ar      23 UNK        -0.1150 
     11 C11        -5.9290  -15.6450  -49.8771 C.ar      23 UNK        -0.0193 
     12 C12        -5.5302  -16.5056  -48.8505 C.ar      23 UNK        -0.1150 
     13 C13        -5.1989  -16.0019  -47.5882 C.ar      23 UNK        -0.0193 
     14 C14        -5.2921  -14.6278  -47.3510 C.ar      23 UNK        -0.1150 
     15 C15        -4.7783  -16.9394  -46.4659 C.3       23 UNK        -0.0205 
     16 S16        -2.9701  -17.1667  -46.3799 S.3       23 UNK        -0.2404 
     17 C17        -2.6494  -18.3353  -47.7480 C.3       23 UNK        -0.0398 
     18 CA         -2.6094  -19.8421  -47.3821 C.3       11 UNK         0.1400 
     19 N          -1.3661  -20.2623  -46.7288 N.am      11 UNK        -0.5000 
     20 C          -0.9685  -21.5434  -46.6847 C.2       10 UNK         0.5000 
     21 O          -1.6104  -22.4696  -47.1792 O.2       10 UNK        -0.5000 
     22 CA          0.3355  -21.8647  -45.9407 C.3       10 UNK         0.1400 
     23 CB          1.5563  -21.4943  -46.7954 C.3       10 UNK        -0.1800 
     24 N           0.4137  -21.2219  -44.6308 N.am      10 UNK        -0.5000 
     25 C          -0.4295  -21.4639  -43.6167 C.2       9 UNK         0.5000 
     26 O          -1.3578  -22.2699  -43.6773 O.2       9 UNK        -0.5000 
     27 CA         -0.2259  -20.6444  -42.3301 C.3       9 UNK         0.1400 
     28 CB          0.9163  -21.2280  -41.4855 C.3       9 UNK        -0.1800 
     29 N           0.0297  -19.2295  -42.5994 N.am      9 UNK        -0.5000 
     30 C          -0.8483  -18.4018  -43.1848 C.2       8 UNK         0.5000 
     31 O          -1.9865  -18.7376  -43.5106 O.2       8 UNK        -0.5000 
     32 CA         -0.3531  -16.9780  -43.5006 C.3       8 UNK         0.1400 
     33 CB         -0.3564  -16.1011  -42.2394 C.3       8 UNK        -0.1800 
     34 N           0.9830  -16.9749  -44.0955 N.am      8 UNK        -0.5000 
     35 C           1.2991  -17.5500  -45.2653 C.2       7 UNK         0.5000 
     36 O           0.4884  -18.1112  -46.0030 O.2       7 UNK        -0.5000 
     37 CA          2.7900  -17.5496  -45.6424 C.3       7 UNK         0.1400 
     38 CB          3.2085  -16.1952  -46.2368 C.3       7 UNK        -0.1800 
     39 N           3.6415  -17.8809  -44.4972 N.am      7 UNK        -0.5000 
     40 C           3.6884  -19.0900  -43.9177 C.2       6 UNK         0.5000 
     41 O           3.0368  -20.0574  -44.3054 O.2       6 UNK        -0.5000 
     42 CA          4.5849  -19.2384  -42.6754 C.3       6 UNK         0.1400 
     43 CB          6.0405  -19.5029  -43.0878 C.3       6 UNK        -0.1800 
     44 N           4.5345  -18.0677  -41.8015 N.am      6 UNK        -0.5000 
     45 C           3.4512  -17.6704  -41.1184 C.2       5 UNK         0.5000 
     46 O           2.3819  -18.2790  -41.1127 O.2       5 UNK        -0.5000 
     47 CA          3.5720  -16.3281  -40.3713 C.3       5 UNK         0.1400 
     48 CB          4.1803  -16.5347  -38.9764 C.3       5 UNK        -0.1800 
     49 N           4.3685  -15.3452  -41.1143 N.am      5 UNK        -0.5000 
     50 C           4.0248  -14.8664  -42.3159 C.2       4 UNK         0.5000 
     51 O           2.9733  -15.1649  -42.8934 O.2       4 UNK        -0.5000 
     52 CA          5.0414  -13.9562  -43.0175 C.3       4 UNK         0.1400 
     53 CB          6.2029  -14.7787  -43.6058 C.3       4 UNK        -0.1800 
     54 N           4.3247  -13.2714  -44.0800 N.am      4 UNK        -0.5000 
     55 C           4.6869  -12.1657  -44.7340 C.2       3 UNK         0.5000 
     56 O           5.7652  -11.5917  -44.5780 O.2       3 UNK        -0.5000 
     57 CA          3.6429  -11.5956  -45.7165 C.3       3 UNK         0.1400 
     58 CB          3.9118  -12.1115  -47.1383 C.3       3 UNK        -0.1800 
     59 N           2.2601  -11.9213  -45.3419 N.am      3 UNK        -0.5000 
     60 C           1.6456  -11.4766  -44.2341 C.2       2 UNK         0.5000 
     61 O           2.1574  -10.6813  -43.4448 O.2       2 UNK        -0.5000 
     62 CA          0.2242  -12.0060  -43.9875 C.3       2 UNK         0.1400 
     63 CB         -0.5312  -11.2542  -42.8749 C.3       2 UNK        -0.1800 
     64 N          -0.5342  -11.9518  -45.2316 N.am      2 UNK        -0.5000 
     65 C          -1.4869  -12.8164  -45.5972 C.2       1 UNK         0.5000 
     66 O          -1.8738  -13.7492  -44.8932 O.2       1 UNK        -0.5000 
     67 C          -3.8632  -20.3435  -46.6318 C.2       11 UNK         0.5000 
     68 O          -4.8357  -20.7231  -47.2841 O.2       11 UNK        -0.5000 
     69 N          -3.8098  -20.3977  -45.2907 N.am      12 UNK        -0.5000 
     70 CA         -4.8596  -20.9736  -44.4430 C.3       12 UNK         0.1400 
     71 CB         -4.5705  -20.6549  -42.9692 C.3       12 UNK        -0.1800 
     72 C          -5.0311  -22.4918  -44.6505 C.2       12 UNK         0.5000 
     73 O          -6.1550  -22.9910  -44.5955 O.2       12 UNK        -0.5000 
     74 N          -3.9232  -23.1863  -44.9411 N.am      13 UNK        -0.5000 
     75 CA         -3.8769  -24.5944  -45.3423 C.3       13 UNK         0.1400 
     76 CB         -2.4943  -25.1613  -44.9774 C.3       13 UNK        -0.1800 
     77 C          -4.1850  -24.8122  -46.8415 C.2       13 UNK         0.5000 
     78 O          -4.0316  -25.9340  -47.3299 O.2       13 UNK        -0.5000 
     79 N          -4.5739  -23.7445  -47.5579 N.am      14 UNK        -0.5000 
     80 CA         -4.8930  -23.6891  -48.9886 C.3       14 UNK         0.1400 
     81 CB         -6.1873  -24.4746  -49.2841 C.3       14 UNK        -0.1800 
     82 C          -3.7196  -24.1196  -49.8916 C.2       14 UNK         0.5000 
     83 O          -3.9486  -24.6590  -50.9738 O.2       14 UNK        -0.5000 
     84 N          -2.4834  -23.9098  -49.4123 N.am      15 UNK        -0.5000 
     85 CA         -1.2059  -24.3000  -50.0158 C.3       15 UNK         0.1400 
     86 CB         -0.8939  -23.3985  -51.2268 C.3       15 UNK        -0.1800 
     87 C          -1.1155  -25.8062  -50.3477 C.2       15 UNK         0.5000 
     88 O          -0.4524  -26.1788  -51.3146 O.2       15 UNK        -0.5000 
     89 N          -1.8232  -26.6429  -49.5706 N.am      16 UNK        -0.5000 
     90 CA         -2.0350  -28.0781  -49.7982 C.3       16 UNK         0.1400 
     91 CB         -0.7230  -28.8672  -49.6058 C.3       16 UNK        -0.1800 
     92 C          -2.7324  -28.3723  -51.1481 C.2       16 UNK         0.5000 
     93 O          -2.4204  -29.3673  -51.8040 O.2       16 UNK        -0.5000 
     94 N          -3.6612  -27.4824  -51.5293 N.am      17 UNK        -0.5000 
     95 CA         -4.4557  -27.4571  -52.7610 C.3       17 UNK         0.1400 
     96 CB         -5.2587  -28.7610  -52.9559 C.3       17 UNK        -0.1800 
     97 C          -3.6617  -27.0403  -54.0175 C.2       17 UNK         0.5000 
     98 O          -4.1486  -27.2440  -55.1316 O.2       17 UNK        -0.5000 
     99 N          -2.4774  -26.4376  -53.8385 N.am      18 UNK        -0.5000 
    100 CA        -1.7073  -25.8132  -54.9148 C.3       18 UNK         0.1400 
    101 CB        -0.2417  -25.6685  -54.4778 C.3       18 UNK        -0.1800 
    102 C         -2.2898  -24.4394  -55.2989 C.2       18 UNK         0.5000 
    103 O         -2.9946  -23.8114  -54.5047 O.2       18 UNK        -0.5000 
    104 N         -1.9396  -23.9729  -56.5041 N.am      19 UNK        -0.5000 
    105 CA        -2.3907  -22.7028  -57.0839 C.3       19 UNK         0.1400 
    106 CB        -1.9917  -22.6692  -58.5675 C.3       19 UNK        -0.1800 
    107 C         -1.8736  -21.4414  -56.3603 C.2       19 UNK         0.5000 
    108 O         -2.4087  -20.3568  -56.5910 O.2       19 UNK        -0.5000 
    109 N         -0.8577  -21.5921  -55.4981 N.am      20 UNK        -0.5000 
    110 CA        -0.2445  -20.5188  -54.7113 C.3       20 UNK         0.1400 
    111 CB         0.9517  -21.0888  -53.9349 C.3       20 UNK        -0.1800 
    112 C         -1.2175  -19.7973  -53.7560 C.2       20 UNK         0.5000 
    113 O         -1.0219  -18.6130  -53.4797 O.2       20 UNK        -0.5000 
    114 N         -2.2671  -20.4950  -53.3000 N.am      21 UNK        -0.5000 
    115 CA        -3.3482  -19.9412  -52.4841 C.3       21 UNK         0.1400 
    116 CB        -3.9423  -21.0573  -51.6107 C.3       21 UNK        -0.1800 
    117 C         -4.4045  -19.2244  -53.3518 C.2       21 UNK         0.5000 
    118 O         -5.5728  -19.6160  -53.3604 O.2       21 UNK        -0.5000 
    119 N         -3.9643  -18.1741  -54.0548 N.am      22 UNK        -0.5000 
    120 CA        -4.7864  -17.2448  -54.8519 C.3       22 UNK         0.1400 
    121 C         -5.4202  -17.8592  -56.1388 C.2       22 UNK         0.5000 
    122 N         -4.8670  -18.9169  -56.7166 N.am      22 UNK        -0.7600 
    123 O         -6.4208  -17.3585  -56.6465 O.2       22 UNK        -0.5000 
    124 C124       -5.8303  -16.4635  -54.0002 C.3       23 UNK        -0.0398 
    125 S125       -5.1168  -15.6497  -52.5280 S.3       23 UNK        -0.2404 
    126 C126       -6.2910  -16.1952  -51.2484 C.3       23 UNK        -0.0205 
    127 H127        1.2904  -10.9844  -49.0915 H         1 UNK         0.0600 
    128 H128        0.0089  -11.4386  -50.2210 H         1 UNK         0.0600 
    129 H129        1.4004  -12.4990  -49.9966 H         1 UNK         0.0600 
    130 H130       -1.5430  -11.2314  -48.4813 H         1 UNK         0.3000 
    131 H131       -2.4435  -13.5661  -47.3550 H         1 UNK         0.0600 
    132 H132       -4.0586  -12.1147  -46.0926 H         1 UNK         0.0800 
    133 H133       -3.0856  -10.7144  -46.4260 H         1 UNK         0.0800 
    134 H134       -6.1889  -12.0859  -47.0866 H         1 UNK         0.0800 
    135 H135       -6.5916  -11.8427  -48.7616 H         1 UNK         0.0800 
    136 H136       -6.3343  -13.6059  -50.4155 H         1 UNK         0.1150 
    137 H137       -5.4874  -17.5697  -49.0333 H         1 UNK         0.1150 
    138 H138       -5.0510  -14.2393  -46.3719 H         1 UNK         0.1150 
    139 H139       -5.1161  -16.5359  -45.5102 H         1 UNK         0.0800 
    140 H140       -5.2804  -17.9007  -46.5726 H         1 UNK         0.0800 
    141 H141       -1.6971  -18.0520  -48.1984 H         1 UNK         0.0800 
    142 H142       -3.3843  -18.1759  -48.5341 H         1 UNK         0.0800 
    143 H143       -2.6238  -20.3636  -48.3426 H         1 UNK         0.0600 
    144 H144       -0.7872  -19.5342  -46.3163 H         1 UNK         0.3000 
    145 H145        0.3601  -22.9440  -45.7767 H         1 UNK         0.0600 
    146 H146        2.4813  -21.8280  -46.3252 H         1 UNK         0.0600 
    147 H147        1.5039  -21.9663  -47.7774 H         1 UNK         0.0600 
    148 H148        1.6291  -20.4182  -46.9516 H         1 UNK         0.0600 
    149 H149        1.1881  -20.5801  -44.4881 H         1 UNK         0.3000 
    150 H150       -1.1461  -20.7109  -41.7461 H         1 UNK         0.0600 
    151 H151        0.7383  -22.2805  -41.2616 H         1 UNK         0.0600 
    152 H152        1.0095  -20.7042  -40.5341 H         1 UNK         0.0600 
    153 H153        1.8748  -21.1586  -42.0003 H         1 UNK         0.0600 
    154 H154        0.9332  -18.8667  -42.3108 H         1 UNK         0.3000 
    155 H155       -1.0392  -16.5329  -44.2230 H         1 UNK         0.0600 
    156 H156       -1.3527  -16.0597  -41.7979 H         1 UNK         0.0600 
    157 H157       -0.0610  -15.0783  -42.4706 H         1 UNK         0.0600 
    158 H158        0.3258  -16.4817  -41.4791 H         1 UNK         0.0600 
    159 H159        1.7145  -16.5063  -43.5702 H         1 UNK         0.3000 
    160 H160        2.9424  -18.3135  -46.4077 H         1 UNK         0.0600 
    161 H161        2.6299  -15.9715  -47.1342 H         1 UNK         0.0600 
    162 H162        3.0458  -15.3762  -45.5382 H         1 UNK         0.0600 
    163 H163        4.2612  -16.1931  -46.5194 H         1 UNK         0.0600 
    164 H164        4.1686  -17.1259  -44.0875 H         1 UNK         0.3000 
    165 H165        4.2282  -20.1004  -42.1078 H         1 UNK         0.0600 
    166 H166        6.6697  -19.6870  -42.2168 H         1 UNK         0.0600 
    167 H167        6.1101  -20.3826  -43.7291 H         1 UNK         0.0600 
    168 H168        6.4647  -18.6615  -43.6373 H         1 UNK         0.0600 
    169 H169        5.3710  -17.5067  -41.7428 H         1 UNK         0.3000 
    170 H170        2.5645  -15.9246  -40.2494 H         1 UNK         0.0600 
    171 H171        3.5946  -17.2507  -38.3982 H         1 UNK         0.0600 
    172 H172        5.2012  -16.9145  -39.0323 H         1 UNK         0.0600 
    173 H173        4.1991  -15.6018  -38.4126 H         1 UNK         0.0600 
    174 H174        5.2419  -15.0579  -40.6961 H         1 UNK         0.3000 
    175 H175        5.4179  -13.2237  -42.3009 H         1 UNK         0.0600 
    176 H176        5.8510  -15.5076  -44.3368 H         1 UNK         0.0600 
    177 H177        6.9303  -14.1367  -44.1026 H         1 UNK         0.0600 
    178 H178        6.7367  -15.3232  -42.8263 H         1 UNK         0.0600 
    179 H179        3.4012  -13.6536  -44.2407 H         1 UNK         0.3000 
    180 H180        3.7494  -10.5089  -45.7176 H         1 UNK         0.0600 
    181 H181        3.2563  -11.6298  -47.8623 H         1 UNK         0.0600 
    182 H182        3.7597  -13.1892  -47.2121 H         1 UNK         0.0600 
    183 H183        4.9378  -11.9022  -47.4439 H         1 UNK         0.0600 
    184 H184        1.7662  -12.5654  -45.9465 H         1 UNK         0.3000 
    185 H185        0.3412  -13.0472  -43.6810 H         1 UNK         0.0600 
    186 H186       -0.6648  -10.2007  -43.1231 H         1 UNK         0.0600 
    187 H187       -1.5175  -11.6866  -42.7061 H         1 UNK         0.0600 
    188 H188        0.0092  -11.3064  -41.9290 H         1 UNK         0.0600 
    189 H189       -0.2704  -11.2219  -45.8794 H         1 UNK         0.3000 
    190 H190       -2.9988  -20.0163  -44.8134 H         1 UNK         0.3000 
    191 H191       -5.8039  -20.4961  -44.7124 H         1 UNK         0.0600 
    192 H192       -3.6159  -21.0710  -42.6467 H         1 UNK         0.0600 
    193 H193       -4.5416  -19.5787  -42.7982 H         1 UNK         0.0600 
    194 H194       -5.3448  -21.0661  -42.3204 H         1 UNK         0.0600 
    195 H195       -3.0309  -22.7049  -44.9076 H         1 UNK         0.3000 
    196 H196       -4.6289  -25.1476  -44.7763 H         1 UNK         0.0600 
    197 H197       -2.2838  -25.0322  -43.9156 H         1 UNK         0.0600 
    198 H198       -1.6980  -24.6695  -45.5368 H         1 UNK         0.0600 
    199 H199       -2.4351  -26.2293  -45.1905 H         1 UNK         0.0600 
    200 H200       -4.6352  -22.8546  -47.0789 H         1 UNK         0.3000 
    201 H201       -5.0830  -22.6408  -49.2204 H         1 UNK         0.0600 
    202 H202       -6.5117  -24.3221  -50.3142 H         1 UNK         0.0600 
    203 H203       -7.0020  -24.1481  -48.6379 H         1 UNK         0.0600 
    204 H204       -6.0527  -25.5470  -49.1393 H         1 UNK         0.0600 
    205 H205       -2.3921  -23.4494  -48.5080 H         1 UNK         0.3000 
    206 H206       -0.4420  -24.1135  -49.2598 H         1 UNK         0.0600 
    207 H207       -0.9148  -22.3448  -50.9492 H         1 UNK         0.0600 
    208 H208       -1.6090  -23.5475  -52.0364 H         1 UNK         0.0600 
    209 H209        0.1015  -23.6052  -51.6203 H         1 UNK         0.0600 
    210 H210       -2.3646  -26.2422  -48.8130 H         1 UNK         0.3000 
    211 H211       -2.7304  -28.4057  -49.0240 H         1 UNK         0.0600 
    212 H212       -0.2637  -28.6394  -48.6440 H         1 UNK         0.0600 
    213 H213       -0.9072  -29.9419  -49.6297 H         1 UNK         0.0600 
    214 H214        0.0045  -28.6443  -50.3867 H         1 UNK         0.0600 
    215 H215       -3.7755  -26.6498  -50.9599 H         1 UNK         0.3000 
    216 H216       -5.1834  -26.6587  -52.6089 H         1 UNK         0.0600 
    217 H217       -5.9940  -28.6499  -53.7535 H         1 UNK         0.0600 
    218 H218       -4.6160  -29.5993  -53.2249 H         1 UNK         0.0600 
    219 H219       -5.8034  -29.0293  -52.0508 H         1 UNK         0.0600 
    220 H220       -2.1438  -26.2842  -52.8962 H         1 UNK         0.3000 
    221 H221       -1.7403  -26.4637  -55.7915 H         1 UNK         0.0600 
    222 H222       -0.1315  -24.9474  -53.6684 H         1 UNK         0.0600 
    223 H223        0.1656  -26.6204  -54.1362 H         1 UNK         0.0600 
    224 H224        0.3830  -25.3273  -55.3040 H         1 UNK         0.0600 
    225 H225       -1.3414  -24.5385  -57.0895 H         1 UNK         0.3000 
    226 H226       -3.4808  -22.6780  -57.0243 H         1 UNK         0.0600 
    227 H227       -2.4273  -23.5066  -59.1131 H         1 UNK         0.0600 
    228 H228       -2.3428  -21.7547  -59.0478 H         1 UNK         0.0600 
    229 H229       -0.9091  -22.7110  -58.6936 H         1 UNK         0.0600 
    230 H230       -0.4792  -22.5185  -55.3729 H         1 UNK         0.3000 
    231 H231        0.1303  -19.7714  -55.4136 H         1 UNK         0.0600 
    232 H232        1.4429  -20.3126  -53.3464 H         1 UNK         0.0600 
    233 H233        1.6996  -21.5042  -54.6106 H         1 UNK         0.0600 
    234 H234        0.6453  -21.8772  -53.2478 H         1 UNK         0.0600 
    235 H235       -2.3849  -21.4487  -53.6154 H         1 UNK         0.3000 
    236 H236       -2.9372  -19.1907  -51.8052 H         1 UNK         0.0600 
    237 H237       -4.7751  -20.6892  -51.0101 H         1 UNK         0.0600 
    238 H238       -4.3069  -21.8917  -52.2116 H         1 UNK         0.0600 
    239 H239       -3.1938  -21.4392  -50.9184 H         1 UNK         0.0600 
    240 H240       -2.9763  -17.9562  -54.0004 H         1 UNK         0.3000 
    241 H241       -4.0811  -16.5050  -55.2312 H         1 UNK         0.0600 
    242 H242       -5.2903  -19.2898  -57.5508 H         1 UNK         0.3800 
    243 H243       -3.9992  -19.3250  -56.3812 H         1 UNK         0.3800 
    244 H244       -6.2989  -15.6827  -54.6015 H         1 UNK         0.0800 
    245 H245       -6.6388  -17.1306  -53.6977 H         1 UNK         0.0800 
    246 H246       -7.2957  -15.8623  -51.5131 H         1 UNK         0.0800 
    247 H247       -6.3182  -17.2862  -51.2308 H         1 UNK         0.0800 
@<TRIPOS>BOND
     1    1    2 1    
     2    1  127 1    
     3    1  128 1    
     4    1  129 1    
     5    2    3 2    
     6    2    4 am   BACKBONE|DICT|INTERRES
     7    4    5 1    
     8    4  130 1    
     9    5    6 1    
    10    5   65 1    
    11    5  131 1    
    12    6    7 1    
    13    6  132 1    
    14    6  133 1    
    15    7    8 1    
    16    8    9 1    
    17    8  134 1    
    18    8  135 1    
    19    9   10 ar   
    20    9   14 ar   
    21   10   11 ar   
    22   10  136 1    
    23   11   12 ar   
    24   11  126 1    
    25   12   13 ar   
    26   12  137 1    
    27   13   14 ar   
    28   13   15 1    
    29   14  138 1    
    30   15   16 1    
    31   15  139 1    
    32   15  140 1    
    33   16   17 1    
    34   17   18 1    
    35   17  141 1    
    36   17  142 1    
    37   18   19 1    
    38   18   67 1    
    39   18  143 1    
    40   19   20 am   BACKBONE|DICT|INTERRES
    41   19  144 1    
    42   20   21 2    
    43   20   22 1    
    44   22   23 1    
    45   22   24 1    
    46   22  145 1    
    47   23  146 1    
    48   23  147 1    
    49   23  148 1    
    50   24   25 am   BACKBONE|DICT|INTERRES
    51   24  149 1    
    52   25   26 2    
    53   25   27 1    
    54   27   28 1    
    55   27   29 1    
    56   27  150 1    
    57   28  151 1    
    58   28  152 1    
    59   28  153 1    
    60   29   30 am   BACKBONE|DICT|INTERRES
    61   29  154 1    
    62   30   31 2    
    63   30   32 1    
    64   32   33 1    
    65   32   34 1    
    66   32  155 1    
    67   33  156 1    
    68   33  157 1    
    69   33  158 1    
    70   34   35 am   BACKBONE|DICT|INTERRES
    71   34  159 1    
    72   35   36 2    
    73   35   37 1    
    74   37   38 1    
    75   37   39 1    
    76   37  160 1    
    77   38  161 1    
    78   38  162 1    
    79   38  163 1    
    80   39   40 am   BACKBONE|DICT|INTERRES
    81   39  164 1    
    82   40   41 2    
    83   40   42 1    
    84   42   43 1    
    85   42   44 1    
    86   42  165 1    
    87   43  166 1    
    88   43  167 1    
    89   43  168 1    
    90   44   45 am   BACKBONE|DICT|INTERRES
    91   44  169 1    
    92   45   46 2    
    93   45   47 1    
    94   47   48 1    
    95   47   49 1    
    96   47  170 1    
    97   48  171 1    
    98   48  172 1    
    99   48  173 1    
   100   49   50 am   BACKBONE|DICT|INTERRES
   101   49  174 1    
   102   50   51 2    
   103   50   52 1    
   104   52   53 1    
   105   52   54 1    
   106   52  175 1    
   107   53  176 1    
   108   53  177 1    
   109   53  178 1    
   110   54   55 am   BACKBONE|DICT|INTERRES
   111   54  179 1    
   112   55   56 2    
   113   55   57 1    
   114   57   58 1    
   115   57   59 1    
   116   57  180 1    
   117   58  181 1    
   118   58  182 1    
   119   58  183 1    
   120   59   60 am   BACKBONE|DICT|INTERRES
   121   59  184 1    
   122   60   61 2    
   123   60   62 1    
   124   62   63 1    
   125   62   64 1    
   126   62  185 1    
   127   63  186 1    
   128   63  187 1    
   129   63  188 1    
   130   64   65 am   BACKBONE|DICT|INTERRES
   131   64  189 1    
   132   65   66 2    
   133   67   68 2    
   134   67   69 am   BACKBONE|DICT|INTERRES
   135   69   70 1    
   136   69  190 1    
   137   70   71 1    
   138   70   72 1    
   139   70  191 1    
   140   71  192 1    
   141   71  193 1    
   142   71  194 1    
   143   72   73 2    
   144   72   74 am   BACKBONE|DICT|INTERRES
   145   74   75 1    
   146   74  195 1    
   147   75   76 1    
   148   75   77 1    
   149   75  196 1    
   150   76  197 1    
   151   76  198 1    
   152   76  199 1    
   153   77   78 2    
   154   77   79 am   BACKBONE|DICT|INTERRES
   155   79   80 1    
   156   79  200 1    
   157   80   81 1    
   158   80   82 1    
   159   80  201 1    
   160   81  202 1    
   161   81  203 1    
   162   81  204 1    
   163   82   83 2    
   164   82   84 am   BACKBONE|DICT|INTERRES
   165   84   85 1    
   166   84  205 1    
   167   85   86 1    
   168   85   87 1    
   169   85  206 1    
   170   86  207 1    
   171   86  208 1    
   172   86  209 1    
   173   87   88 2    
   174   87   89 am   BACKBONE|DICT|INTERRES
   175   89   90 1    
   176   89  210 1    
   177   90   91 1    
   178   90   92 1    
   179   90  211 1    
   180   91  212 1    
   181   91  213 1    
   182   91  214 1    
   183   92   93 2    
   184   92   94 am   BACKBONE|DICT|INTERRES
   185   94   95 1    
   186   94  215 1    
   187   95   96 1    
   188   95   97 1    
   189   95  216 1    
   190   96  217 1    
   191   96  218 1    
   192   96  219 1    
   193   97   98 2    
   194   97   99 am   BACKBONE|DICT|INTERRES
   195   99  100 1    
   196   99  220 1    
   197  100  101 1    
   198  100  102 1    
   199  100  221 1    
   200  101  222 1    
   201  101  223 1    
   202  101  224 1    
   203  102  103 2    
   204  102  104 am   BACKBONE|DICT|INTERRES
   205  104  105 1    
   206  104  225 1    
   207  105  106 1    
   208  105  107 1    
   209  105  226 1    
   210  106  227 1    
   211  106  228 1    
   212  106  229 1    
   213  107  108 2    
   214  107  109 am   BACKBONE|DICT|INTERRES
   215  109  110 1    
   216  109  230 1    
   217  110  111 1    
   218  110  112 1    
   219  110  231 1    
   220  111  232 1    
   221  111  233 1    
   222  111  234 1    
   223  112  113 2    
   224  112  114 am   BACKBONE|DICT|INTERRES
   225  114  115 1    
   226  114  235 1    
   227  115  116 1    
   228  115  117 1    
   229  115  236 1    
   230  116  237 1    
   231  116  238 1    
   232  116  239 1    
   233  117  118 2    
   234  117  119 am   BACKBONE|DICT|INTERRES
   235  119  120 1    
   236  119  240 1    
   237  120  121 1    
   238  120  124 1    
   239  120  241 1    
   240  121  122 am   BACKBONE|DICT|INTERRES
   241  121  123 2    
   242  122  242 1    
   243  122  243 1    
   244  124  125 1    
   245  124  244 1    
   246  124  245 1    
   247  125  126 1    
   248  126  246 1    
   249  126  247 1    
@<TRIPOS>SUBSTRUCTURE
     1 UNK         1 GROUP             0       ****    0 ROOT    
