@<TRIPOS>MOLECULE
3R540
247   249    1
SMALL
USER_CHARGES


@<TRIPOS>ATOM
      1 CA         -1.4685  -14.0620  -43.5076 C.3       0 UNK        -0.1800 
      2 C          -0.9216  -13.3659  -44.7452 C.2       0 UNK         0.5000 
      3 O          -0.5519  -12.1944  -44.6755 O.2       0 UNK        -0.5000 
      4 N          -0.8988  -14.0778  -45.8788 N.am      1 UNK        -0.5000 
      5 CA         -0.4312  -13.5979  -47.1822 C.3       1 UNK         0.1400 
      6 C6         -0.7423  -14.5932  -48.3330 C.3       23 UNK        -0.0398 
      7 S7         -2.4983  -15.0942  -48.4432 S.3       23 UNK        -0.2404 
      8 C8         -2.3652  -16.8899  -48.1688 C.3       23 UNK        -0.0205 
      9 C9         -3.6565  -17.6228  -48.4906 C.ar      23 UNK        -0.0193 
     10 C10        -3.9663  -17.9445  -49.8150 C.ar      23 UNK        -0.1150 
     11 C11        -5.1223  -18.6694  -50.1148 C.ar      23 UNK        -0.0193 
     12 C12        -5.9661  -19.0768  -49.0793 C.ar      23 UNK        -0.1150 
     13 C13        -5.6774  -18.7529  -47.7509 C.ar      23 UNK        -0.0193 
     14 C14        -4.5222  -18.0152  -47.4646 C.ar      23 UNK        -0.1150 
     15 C15        -6.6469  -19.1877  -46.6549 C.3       23 UNK        -0.0205 
     16 S16        -5.8531  -19.7713  -45.1199 S.3       23 UNK        -0.2404 
     17 C17        -4.8336  -21.1713  -45.7053 C.3       23 UNK        -0.0398 
     18 CA         -3.3325  -20.9879  -45.3518 C.3       11 UNK         0.1400 
     19 N          -3.0883  -20.7377  -43.9250 N.am      11 UNK        -0.5000 
     20 C          -3.3834  -21.5355  -42.8863 C.2       10 UNK         0.5000 
     21 O          -3.9435  -22.6259  -43.0008 O.2       10 UNK        -0.5000 
     22 CA         -2.9508  -21.0537  -41.4851 C.3       10 UNK         0.1400 
     23 CB         -1.9786  -22.0563  -40.8401 C.3       10 UNK        -0.1800 
     24 N          -2.3010  -19.7427  -41.5349 N.am      10 UNK        -0.5000 
     25 C          -2.9298  -18.5666  -41.4043 C.2       9 UNK         0.5000 
     26 O          -4.1177  -18.4552  -41.1011 O.2       9 UNK        -0.5000 
     27 CA         -2.0992  -17.3007  -41.6963 C.3       9 UNK         0.1400 
     28 CB         -1.5683  -16.6930  -40.3903 C.3       9 UNK        -0.1800 
     29 N          -0.9849  -17.5460  -42.6222 N.am      9 UNK        -0.5000 
     30 C          -1.1491  -17.8328  -43.9229 C.2       8 UNK         0.5000 
     31 O          -2.2459  -17.8369  -44.4776 O.2       8 UNK        -0.5000 
     32 CA          0.0845  -18.2429  -44.7447 C.3       8 UNK         0.1400 
     33 CB          0.6382  -17.0643  -45.5524 C.3       8 UNK        -0.1800 
     34 N           1.1606  -18.8345  -43.9552 N.am      8 UNK        -0.5000 
     35 C           1.1008  -20.0338  -43.3632 C.2       7 UNK         0.5000 
     36 O           0.0849  -20.7299  -43.3555 O.2       7 UNK        -0.5000 
     37 CA          2.3804  -20.5401  -42.6798 C.3       7 UNK         0.1400 
     38 CB          3.2864  -21.2381  -43.7059 C.3       7 UNK        -0.1800 
     39 N           3.1178  -19.4364  -42.0648 N.am      7 UNK        -0.5000 
     40 C           3.2263  -19.2264  -40.7466 C.2       6 UNK         0.5000 
     41 O           2.7991  -20.0019  -39.8903 O.2       6 UNK        -0.5000 
     42 CA          3.9107  -17.9158  -40.2999 C.3       6 UNK         0.1400 
     43 CB          5.4145  -18.1435  -40.0848 C.3       6 UNK        -0.1800 
     44 N           3.7273  -16.7917  -41.2239 N.am      6 UNK        -0.5000 
     45 C           2.5440  -16.2855  -41.5977 C.2       5 UNK         0.5000 
     46 O           1.4626  -16.7084  -41.1935 O.2       5 UNK        -0.5000 
     47 CA          2.5533  -15.1528  -42.6405 C.3       5 UNK         0.1400 
     48 CB          2.6729  -13.7909  -41.9421 C.3       5 UNK        -0.1800 
     49 N           3.5690  -15.2402  -43.6975 N.am      5 UNK        -0.5000 
     50 C           3.9713  -16.3173  -44.3923 C.2       4 UNK         0.5000 
     51 O           3.5882  -17.4645  -44.1566 O.2       4 UNK        -0.5000 
     52 CA          4.9577  -16.0892  -45.5574 C.3       4 UNK         0.1400 
     53 CB          4.4778  -16.7961  -46.8365 C.3       4 UNK        -0.1800 
     54 N           5.1846  -14.6751  -45.8628 N.am      4 UNK        -0.5000 
     55 C           6.0201  -13.8603  -45.2046 C.2       3 UNK         0.5000 
     56 O           6.7130  -14.2265  -44.2552 O.2       3 UNK        -0.5000 
     57 CA          6.0872  -12.3896  -45.6658 C.3       3 UNK         0.1400 
     58 CB          7.4315  -12.1029  -46.3532 C.3       3 UNK        -0.1800 
     59 N           5.0049  -12.0001  -46.5747 N.am      3 UNK        -0.5000 
     60 C           3.7220  -11.8234  -46.2296 C.2       2 UNK         0.5000 
     61 O           3.3081  -11.9694  -45.0782 O.2       2 UNK        -0.5000 
     62 CA          2.7490  -11.3949  -47.3543 C.3       2 UNK         0.1400 
     63 CB          3.2896  -11.6606  -48.7785 C.3       2 UNK        -0.1800 
     64 N           1.4046  -11.9680  -47.2241 N.am      2 UNK        -0.5000 
     65 C           1.0790  -13.2669  -47.1571 C.2       1 UNK         0.5000 
     66 O           1.9010  -14.1851  -47.1107 O.2       1 UNK        -0.5000 
     67 C          -2.4459  -22.1221  -45.9184 C.2       11 UNK         0.5000 
     68 O          -2.6991  -22.5962  -47.0248 O.2       11 UNK        -0.5000 
     69 N          -1.4037  -22.5201  -45.1736 N.am      12 UNK        -0.5000 
     70 CA         -0.5072  -23.6292  -45.5008 C.3       12 UNK         0.1400 
     71 CB          0.1431  -24.1359  -44.2038 C.3       12 UNK        -0.1800 
     72 C           0.5653  -23.2522  -46.5377 C.2       12 UNK         0.5000 
     73 O           1.1424  -24.1438  -47.1607 O.2       12 UNK        -0.5000 
     74 N           0.8132  -21.9457  -46.7099 N.am      13 UNK        -0.5000 
     75 CA          1.7266  -21.4025  -47.7179 C.3       13 UNK         0.1400 
     76 CB          2.0131  -19.9279  -47.3992 C.3       13 UNK        -0.1800 
     77 C           1.1806  -21.5346  -49.1532 C.2       13 UNK         0.5000 
     78 O           1.9698  -21.5893  -50.0970 O.2       13 UNK        -0.5000 
     79 N          -0.1508  -21.5756  -49.2925 N.am      14 UNK        -0.5000 
     80 CA         -0.8446  -21.7695  -50.5589 C.3       14 UNK         0.1400 
     81 CB         -2.1759  -21.0017  -50.5241 C.3       14 UNK        -0.1800 
     82 C          -1.0794  -23.2671  -50.8020 C.2       14 UNK         0.5000 
     83 O          -1.5159  -23.9733  -49.8903 O.2       14 UNK        -0.5000 
     84 N          -0.8193  -23.7159  -52.0369 N.am      15 UNK        -0.5000 
     85 CA         -1.0450  -25.0818  -52.5124 C.3       15 UNK         0.1400 
     86 CB         -0.6124  -25.1776  -53.9834 C.3       15 UNK        -0.1800 
     87 C          -2.5182  -25.4898  -52.3491 C.2       15 UNK         0.5000 
     88 O          -3.3948  -24.8185  -52.8982 O.2       15 UNK        -0.5000 
     89 N          -2.7690  -26.5207  -51.5304 N.am      16 UNK        -0.5000 
     90 CA         -4.0917  -27.0337  -51.1406 C.3       16 UNK         0.1400 
     91 CB         -4.7672  -27.7141  -52.3501 C.3       16 UNK        -0.1800 
     92 C          -5.0183  -25.9818  -50.4815 C.2       16 UNK         0.5000 
     93 O          -6.2310  -26.1921  -50.4319 O.2       16 UNK        -0.5000 
     94 N          -4.4389  -24.8597  -50.0224 N.am      17 UNK        -0.5000 
     95 CA         -5.0992  -23.6409  -49.5475 C.3       17 UNK         0.1400 
     96 CB         -5.8187  -23.9018  -48.2068 C.3       17 UNK        -0.1800 
     97 C          -6.0186  -22.9733  -50.5995 C.2       17 UNK         0.5000 
     98 O          -6.9423  -22.2555  -50.2122 O.2       17 UNK        -0.5000 
     99 N          -5.7806  -23.2131  -51.9018 N.am      18 UNK        -0.5000 
    100 CA        -6.6962  -22.7885  -52.9683 C.3       18 UNK         0.1400 
    101 CB        -7.9221  -23.7221  -53.0042 C.3       18 UNK        -0.1800 
    102 C         -6.0708  -22.7063  -54.3716 C.2       18 UNK         0.5000 
    103 O         -6.5386  -21.9015  -55.1764 O.2       18 UNK        -0.5000 
    104 N         -5.0678  -23.5391  -54.6757 N.am      19 UNK        -0.5000 
    105 CA        -4.5409  -23.7186  -56.0330 C.3       19 UNK         0.1400 
    106 CB        -4.0611  -25.1718  -56.1867 C.3       19 UNK        -0.1800 
    107 C         -3.4173  -22.7319  -56.4038 C.2       19 UNK         0.5000 
    108 O         -3.0549  -22.6576  -57.5790 O.2       19 UNK        -0.5000 
    109 N         -2.8729  -22.0153  -55.4114 N.am      20 UNK        -0.5000 
    110 CA        -1.8125  -21.0219  -55.5800 C.3       20 UNK         0.1400 
    111 CB        -0.9009  -21.0517  -54.3381 C.3       20 UNK        -0.1800 
    112 C         -2.4071  -19.6317  -55.8917 C.2       20 UNK         0.5000 
    113 O         -3.0831  -19.4734  -56.9096 O.2       20 UNK        -0.5000 
    114 N         -2.1507  -18.6458  -55.0182 N.am      21 UNK        -0.5000 
    115 CA        -2.5098  -17.2293  -55.1698 C.3       21 UNK         0.1400 
    116 CB        -1.9729  -16.4560  -53.9545 C.3       21 UNK        -0.1800 
    117 C         -4.0151  -16.9497  -55.3530 C.2       21 UNK         0.5000 
    118 O         -4.3748  -15.9296  -55.9421 O.2       21 UNK        -0.5000 
    119 N         -4.8571  -17.8621  -54.8575 N.am      22 UNK        -0.5000 
    120 CA        -6.3172  -17.8407  -55.0231 C.3       22 UNK         0.1400 
    121 C         -6.8076  -18.3647  -56.4069 C.2       22 UNK         0.5000 
    122 N         -5.9520  -18.8984  -57.2720 N.am      22 UNK        -0.7600 
    123 O         -7.9931  -18.2658  -56.7119 O.2       22 UNK        -0.5000 
    124 C124       -7.0290  -18.5767  -53.8608 C.3       23 UNK        -0.0398 
    125 S125       -6.6739  -17.8351  -52.2313 S.3       23 UNK        -0.2404 
    126 C126       -5.4680  -19.0161  -51.5525 C.3       23 UNK        -0.0205 
    127 H127       -2.0623  -14.9350  -43.7760 H         1 UNK         0.0600 
    128 H128       -2.1094  -13.3838  -42.9444 H         1 UNK         0.0600 
    129 H129       -0.6552  -14.3811  -42.8569 H         1 UNK         0.0600 
    130 H130       -1.2516  -15.0222  -45.8724 H         1 UNK         0.3000 
    131 H131       -0.9803  -12.6783  -47.3958 H         1 UNK         0.0600 
    132 H132       -0.1173  -15.4836  -48.2534 H         1 UNK         0.0800 
    133 H133       -0.4778  -14.1398  -49.2900 H         1 UNK         0.0800 
    134 H134       -2.0962  -17.0745  -47.1300 H         1 UNK         0.0800 
    135 H135       -1.5601  -17.3009  -48.7801 H         1 UNK         0.0800 
    136 H136       -3.3042  -17.6329  -50.6106 H         1 UNK         0.1150 
    137 H137       -6.8599  -19.6378  -49.3152 H         1 UNK         0.1150 
    138 H138       -4.2880  -17.7572  -46.4409 H         1 UNK         0.1150 
    139 H139       -7.2925  -18.3430  -46.4123 H         1 UNK         0.0800 
    140 H140       -7.3021  -19.9809  -47.0193 H         1 UNK         0.0800 
    141 H141       -4.9546  -21.2685  -46.7847 H         1 UNK         0.0800 
    142 H142       -5.2272  -22.0925  -45.2739 H         1 UNK         0.0800 
    143 H143       -2.9931  -20.0878  -45.8657 H         1 UNK         0.0600 
    144 H144       -2.6708  -19.8398  -43.7218 H         1 UNK         0.3000 
    145 H145       -3.8475  -21.0016  -40.8645 H         1 UNK         0.0600 
    146 H146       -1.6736  -21.7262  -39.8470 H         1 UNK         0.0600 
    147 H147       -2.4446  -23.0358  -40.7259 H         1 UNK         0.0600 
    148 H148       -1.0779  -22.1917  -41.4394 H         1 UNK         0.0600 
    149 H149       -1.3274  -19.7445  -41.8090 H         1 UNK         0.3000 
    150 H150       -2.7721  -16.5735  -42.1549 H         1 UNK         0.0600 
    151 H151       -2.3830  -16.4833  -39.6961 H         1 UNK         0.0600 
    152 H152       -1.0513  -15.7514  -40.5757 H         1 UNK         0.0600 
    153 H153       -0.8731  -17.3663  -39.8875 H         1 UNK         0.0600 
    154 H154       -0.0514  -17.5206  -42.2230 H         1 UNK         0.3000 
    155 H155       -0.2499  -19.0008  -45.4557 H         1 UNK         0.0600 
    156 H156        0.8910  -16.2164  -44.9217 H         1 UNK         0.0600 
    157 H157       -0.0872  -16.7196  -46.2819 H         1 UNK         0.0600 
    158 H158        1.5329  -17.3426  -46.1070 H         1 UNK         0.0600 
    159 H159        2.0438  -18.3294  -43.9534 H         1 UNK         0.3000 
    160 H160        2.0810  -21.2767  -41.9316 H         1 UNK         0.0600 
    161 H161        3.6641  -20.5387  -44.4526 H         1 UNK         0.0600 
    162 H162        2.7527  -22.0284  -44.2349 H         1 UNK         0.0600 
    163 H163        4.1460  -21.6972  -43.2177 H         1 UNK         0.0600 
    164 H164        3.4797  -18.7282  -42.6964 H         1 UNK         0.3000 
    165 H165        3.4678  -17.6282  -39.3443 H         1 UNK         0.0600 
    166 H166        5.8945  -17.2543  -39.6757 H         1 UNK         0.0600 
    167 H167        5.5901  -18.9585  -39.3812 H         1 UNK         0.0600 
    168 H168        5.9190  -18.4001  -41.0173 H         1 UNK         0.0600 
    169 H169        4.5632  -16.3976  -41.6298 H         1 UNK         0.3000 
    170 H170        1.5831  -15.1742  -43.1327 H         1 UNK         0.0600 
    171 H171        1.9306  -13.6884  -41.1492 H         1 UNK         0.0600 
    172 H172        3.6573  -13.6548  -41.4928 H         1 UNK         0.0600 
    173 H173        2.5070  -12.9728  -42.6433 H         1 UNK         0.0600 
    174 H174        3.9390  -14.3517  -44.0039 H         1 UNK         0.3000 
    175 H175        5.9057  -16.5423  -45.2608 H         1 UNK         0.0600 
    176 H176        3.5260  -16.3946  -47.1853 H         1 UNK         0.0600 
    177 H177        5.2026  -16.6850  -47.6430 H         1 UNK         0.0600 
    178 H178        4.3430  -17.8658  -46.6715 H         1 UNK         0.0600 
    179 H179        4.6149  -14.2829  -46.5997 H         1 UNK         0.3000 
    180 H180        6.0219  -11.7671  -44.7710 H         1 UNK         0.0600 
    181 H181        7.5514  -12.6915  -47.2636 H         1 UNK         0.0600 
    182 H182        8.2678  -12.3427  -45.6950 H         1 UNK         0.0600 
    183 H183        7.5227  -11.0494  -46.6187 H         1 UNK         0.0600 
    184 H184        5.2633  -11.8616  -47.5411 H         1 UNK         0.3000 
    185 H185        2.6274  -10.3165  -47.2447 H         1 UNK         0.0600 
    186 H186        4.1972  -11.0896  -48.9773 H         1 UNK         0.0600 
    187 H187        3.5139  -12.7162  -48.9379 H         1 UNK         0.0600 
    188 H188        2.5620  -11.3621  -49.5335 H         1 UNK         0.0600 
    189 H189        0.6555  -11.2919  -47.1730 H         1 UNK         0.3000 
    190 H190       -1.2085  -22.0267  -44.3091 H         1 UNK         0.3000 
    191 H191       -1.0999  -24.4426  -45.9248 H         1 UNK         0.0600 
    192 H192       -0.6113  -24.4641  -43.4884 H         1 UNK         0.0600 
    193 H193        0.7440  -23.3639  -43.7233 H         1 UNK         0.0600 
    194 H194        0.7969  -24.9867  -44.3997 H         1 UNK         0.0600 
    195 H195        0.3082  -21.2878  -46.1365 H         1 UNK         0.3000 
    196 H196        2.6672  -21.9547  -47.6635 H         1 UNK         0.0600 
    197 H197        2.7489  -19.5164  -48.0913 H         1 UNK         0.0600 
    198 H198        2.4145  -19.8059  -46.3941 H         1 UNK         0.0600 
    199 H199        1.1127  -19.3195  -47.4846 H         1 UNK         0.0600 
    200 H200       -0.7234  -21.6290  -48.4623 H         1 UNK         0.3000 
    201 H201       -0.2411  -21.3662  -51.3745 H         1 UNK         0.0600 
    202 H202       -1.9986  -19.9267  -50.5316 H         1 UNK         0.0600 
    203 H203       -2.7538  -21.2328  -49.6293 H         1 UNK         0.0600 
    204 H204       -2.7982  -21.2362  -51.3886 H         1 UNK         0.0600 
    205 H205       -0.4656  -23.0679  -52.7232 H         1 UNK         0.3000 
    206 H206       -0.4180  -25.7533  -51.9225 H         1 UNK         0.0600 
    207 H207        0.4506  -24.9640  -54.0966 H         1 UNK         0.0600 
    208 H208       -0.7856  -26.1798  -54.3777 H         1 UNK         0.0600 
    209 H209       -1.1624  -24.4774  -54.6131 H         1 UNK         0.0600 
    210 H210       -1.9847  -26.9750  -51.0833 H         1 UNK         0.3000 
    211 H211       -3.9145  -27.7979  -50.3827 H         1 UNK         0.0600 
    212 H212       -5.0390  -26.9922  -53.1211 H         1 UNK         0.0600 
    213 H213       -5.6795  -28.2321  -52.0522 H         1 UNK         0.0600 
    214 H214       -4.1100  -28.4562  -52.8033 H         1 UNK         0.0600 
    215 H215       -3.4281  -24.7920  -50.0848 H         1 UNK         0.3000 
    216 H216       -4.3022  -22.9248  -49.3515 H         1 UNK         0.0600 
    217 H217       -6.2366  -22.9827  -47.7963 H         1 UNK         0.0600 
    218 H218       -5.1284  -24.3012  -47.4636 H         1 UNK         0.0600 
    219 H219       -6.6417  -24.6079  -48.3173 H         1 UNK         0.0600 
    220 H220       -4.9917  -23.7949  -52.1619 H         1 UNK         0.3000 
    221 H221       -7.0494  -21.7814  -52.7399 H         1 UNK         0.0600 
    222 H222       -7.6262  -24.7607  -53.1575 H         1 UNK         0.0600 
    223 H223       -8.4913  -23.6718  -52.0760 H         1 UNK         0.0600 
    224 H224       -8.6032  -23.4500  -53.8117 H         1 UNK         0.0600 
    225 H225       -4.6545  -24.1400  -53.9665 H         1 UNK         0.3000 
    226 H226       -5.3486  -23.5648  -56.7520 H         1 UNK         0.0600 
    227 H227       -4.8638  -25.8767  -55.9695 H         1 UNK         0.0600 
    228 H228       -3.7250  -25.3678  -57.2056 H         1 UNK         0.0600 
    229 H229       -3.2296  -25.3977  -55.5203 H         1 UNK         0.0600 
    230 H230       -3.2508  -22.1379  -54.4843 H         1 UNK         0.3000 
    231 H231       -1.1941  -21.2922  -56.4385 H         1 UNK         0.0600 
    232 H232       -1.4546  -20.8395  -53.4242 H         1 UNK         0.0600 
    233 H233       -0.0893  -20.3272  -54.4206 H         1 UNK         0.0600 
    234 H234       -0.4327  -22.0291  -54.2336 H         1 UNK         0.0600 
    235 H235       -1.5874  -18.8685  -54.2110 H         1 UNK         0.3000 
    236 H236       -2.0034  -16.8592  -56.0635 H         1 UNK         0.0600 
    237 H237       -2.1906  -15.3905  -54.0407 H         1 UNK         0.0600 
    238 H238       -2.4218  -16.8075  -53.0245 H         1 UNK         0.0600 
    239 H239       -0.8911  -16.5575  -53.8663 H         1 UNK         0.0600 
    240 H240       -4.4672  -18.6780  -54.4140 H         1 UNK         0.3000 
    241 H241       -6.6387  -16.7981  -54.9819 H         1 UNK         0.0600 
    242 H242       -6.2942  -19.2255  -58.1609 H         1 UNK         0.3800 
    243 H243       -4.9665  -19.0027  -57.0502 H         1 UNK         0.3800 
    244 H244       -8.1114  -18.5466  -53.9972 H         1 UNK         0.0800 
    245 H245       -6.7570  -19.6310  -53.8537 H         1 UNK         0.0800 
    246 H246       -4.5682  -19.0209  -52.1685 H         1 UNK         0.0800 
    247 H247       -5.8797  -20.0243  -51.5916 H         1 UNK         0.0800 
@<TRIPOS>BOND
     1    1    2 1    
     2    1  127 1    
     3    1  128 1    
     4    1  129 1    
     5    2    3 2    
     6    2    4 am   BACKBONE|DICT|INTERRES
     7    4    5 1    
     8    4  130 1    
     9    5    6 1    
    10    5   65 1    
    11    5  131 1    
    12    6    7 1    
    13    6  132 1    
    14    6  133 1    
    15    7    8 1    
    16    8    9 1    
    17    8  134 1    
    18    8  135 1    
    19    9   10 ar   
    20    9   14 ar   
    21   10   11 ar   
    22   10  136 1    
    23   11   12 ar   
    24   11  126 1    
    25   12   13 ar   
    26   12  137 1    
    27   13   14 ar   
    28   13   15 1    
    29   14  138 1    
    30   15   16 1    
    31   15  139 1    
    32   15  140 1    
    33   16   17 1    
    34   17   18 1    
    35   17  141 1    
    36   17  142 1    
    37   18   19 1    
    38   18   67 1    
    39   18  143 1    
    40   19   20 am   BACKBONE|DICT|INTERRES
    41   19  144 1    
    42   20   21 2    
    43   20   22 1    
    44   22   23 1    
    45   22   24 1    
    46   22  145 1    
    47   23  146 1    
    48   23  147 1    
    49   23  148 1    
    50   24   25 am   BACKBONE|DICT|INTERRES
    51   24  149 1    
    52   25   26 2    
    53   25   27 1    
    54   27   28 1    
    55   27   29 1    
    56   27  150 1    
    57   28  151 1    
    58   28  152 1    
    59   28  153 1    
    60   29   30 am   BACKBONE|DICT|INTERRES
    61   29  154 1    
    62   30   31 2    
    63   30   32 1    
    64   32   33 1    
    65   32   34 1    
    66   32  155 1    
    67   33  156 1    
    68   33  157 1    
    69   33  158 1    
    70   34   35 am   BACKBONE|DICT|INTERRES
    71   34  159 1    
    72   35   36 2    
    73   35   37 1    
    74   37   38 1    
    75   37   39 1    
    76   37  160 1    
    77   38  161 1    
    78   38  162 1    
    79   38  163 1    
    80   39   40 am   BACKBONE|DICT|INTERRES
    81   39  164 1    
    82   40   41 2    
    83   40   42 1    
    84   42   43 1    
    85   42   44 1    
    86   42  165 1    
    87   43  166 1    
    88   43  167 1    
    89   43  168 1    
    90   44   45 am   BACKBONE|DICT|INTERRES
    91   44  169 1    
    92   45   46 2    
    93   45   47 1    
    94   47   48 1    
    95   47   49 1    
    96   47  170 1    
    97   48  171 1    
    98   48  172 1    
    99   48  173 1    
   100   49   50 am   BACKBONE|DICT|INTERRES
   101   49  174 1    
   102   50   51 2    
   103   50   52 1    
   104   52   53 1    
   105   52   54 1    
   106   52  175 1    
   107   53  176 1    
   108   53  177 1    
   109   53  178 1    
   110   54   55 am   BACKBONE|DICT|INTERRES
   111   54  179 1    
   112   55   56 2    
   113   55   57 1    
   114   57   58 1    
   115   57   59 1    
   116   57  180 1    
   117   58  181 1    
   118   58  182 1    
   119   58  183 1    
   120   59   60 am   BACKBONE|DICT|INTERRES
   121   59  184 1    
   122   60   61 2    
   123   60   62 1    
   124   62   63 1    
   125   62   64 1    
   126   62  185 1    
   127   63  186 1    
   128   63  187 1    
   129   63  188 1    
   130   64   65 am   BACKBONE|DICT|INTERRES
   131   64  189 1    
   132   65   66 2    
   133   67   68 2    
   134   67   69 am   BACKBONE|DICT|INTERRES
   135   69   70 1    
   136   69  190 1    
   137   70   71 1    
   138   70   72 1    
   139   70  191 1    
   140   71  192 1    
   141   71  193 1    
   142   71  194 1    
   143   72   73 2    
   144   72   74 am   BACKBONE|DICT|INTERRES
   145   74   75 1    
   146   74  195 1    
   147   75   76 1    
   148   75   77 1    
   149   75  196 1    
   150   76  197 1    
   151   76  198 1    
   152   76  199 1    
   153   77   78 2    
   154   77   79 am   BACKBONE|DICT|INTERRES
   155   79   80 1    
   156   79  200 1    
   157   80   81 1    
   158   80   82 1    
   159   80  201 1    
   160   81  202 1    
   161   81  203 1    
   162   81  204 1    
   163   82   83 2    
   164   82   84 am   BACKBONE|DICT|INTERRES
   165   84   85 1    
   166   84  205 1    
   167   85   86 1    
   168   85   87 1    
   169   85  206 1    
   170   86  207 1    
   171   86  208 1    
   172   86  209 1    
   173   87   88 2    
   174   87   89 am   BACKBONE|DICT|INTERRES
   175   89   90 1    
   176   89  210 1    
   177   90   91 1    
   178   90   92 1    
   179   90  211 1    
   180   91  212 1    
   181   91  213 1    
   182   91  214 1    
   183   92   93 2    
   184   92   94 am   BACKBONE|DICT|INTERRES
   185   94   95 1    
   186   94  215 1    
   187   95   96 1    
   188   95   97 1    
   189   95  216 1    
   190   96  217 1    
   191   96  218 1    
   192   96  219 1    
   193   97   98 2    
   194   97   99 am   BACKBONE|DICT|INTERRES
   195   99  100 1    
   196   99  220 1    
   197  100  101 1    
   198  100  102 1    
   199  100  221 1    
   200  101  222 1    
   201  101  223 1    
   202  101  224 1    
   203  102  103 2    
   204  102  104 am   BACKBONE|DICT|INTERRES
   205  104  105 1    
   206  104  225 1    
   207  105  106 1    
   208  105  107 1    
   209  105  226 1    
   210  106  227 1    
   211  106  228 1    
   212  106  229 1    
   213  107  108 2    
   214  107  109 am   BACKBONE|DICT|INTERRES
   215  109  110 1    
   216  109  230 1    
   217  110  111 1    
   218  110  112 1    
   219  110  231 1    
   220  111  232 1    
   221  111  233 1    
   222  111  234 1    
   223  112  113 2    
   224  112  114 am   BACKBONE|DICT|INTERRES
   225  114  115 1    
   226  114  235 1    
   227  115  116 1    
   228  115  117 1    
   229  115  236 1    
   230  116  237 1    
   231  116  238 1    
   232  116  239 1    
   233  117  118 2    
   234  117  119 am   BACKBONE|DICT|INTERRES
   235  119  120 1    
   236  119  240 1    
   237  120  121 1    
   238  120  124 1    
   239  120  241 1    
   240  121  122 am   BACKBONE|DICT|INTERRES
   241  121  123 2    
   242  122  242 1    
   243  122  243 1    
   244  124  125 1    
   245  124  244 1    
   246  124  245 1    
   247  125  126 1    
   248  126  246 1    
   249  126  247 1    
@<TRIPOS>SUBSTRUCTURE
     1 UNK         1 GROUP             0       ****    0 ROOT    
