@<TRIPOS>MOLECULE
3R540
247   249    1
SMALL
USER_CHARGES


@<TRIPOS>ATOM
      1 CA          0.5801   -9.2779  -49.2402 C.3       0 UNK        -0.1800 
      2 C           1.0653  -10.5406  -48.5439 C.2       0 UNK         0.5000 
      3 O           0.9067  -10.6678  -47.3306 O.2       0 UNK        -0.5000 
      4 N           1.6785  -11.4621  -49.3013 N.am      1 UNK        -0.5000 
      5 CA          2.1504  -12.7925  -48.8721 C.3       1 UNK         0.1400 
      6 C6          0.9989  -13.7358  -48.4200 C.3       23 UNK        -0.0398 
      7 S7         -0.3370  -13.9117  -49.6503 S.3       23 UNK        -0.2404 
      8 C8         -0.7538  -15.6744  -49.4747 C.3       23 UNK        -0.0205 
      9 C9          0.1326  -16.5642  -50.3319 C.ar      23 UNK        -0.0193 
     10 C10        -0.0995  -16.6477  -51.7058 C.ar      23 UNK        -0.1150 
     11 C11         0.6805  -17.4770  -52.5133 C.ar      23 UNK        -0.0193 
     12 C12         1.6981  -18.2377  -51.9326 C.ar      23 UNK        -0.1150 
     13 C13         1.9496  -18.1641  -50.5579 C.ar      23 UNK        -0.0193 
     14 C14         1.1646  -17.3167  -49.7631 C.ar      23 UNK        -0.1150 
     15 C15         3.1024  -18.9774  -49.9720 C.3       23 UNK        -0.0205 
     16 S16         2.7860  -19.6567  -48.3102 S.3       23 UNK        -0.2404 
     17 C17         1.3319  -20.7179  -48.6089 C.3       23 UNK        -0.0398 
     18 CA          1.3093  -21.9419  -47.6631 C.3       11 UNK         0.1400 
     19 N           1.1474  -21.5612  -46.2570 N.am      11 UNK        -0.5000 
     20 C           1.3794  -22.3665  -45.2123 C.2       10 UNK         0.5000 
     21 O           1.7857  -23.5240  -45.3164 O.2       10 UNK        -0.5000 
     22 CA          1.0940  -21.7904  -43.8122 C.3       10 UNK         0.1400 
     23 CB          2.2624  -20.9191  -43.3262 C.3       10 UNK        -0.1800 
     24 N          -0.1505  -21.0222  -43.7543 N.am      10 UNK        -0.5000 
     25 C          -1.3720  -21.5522  -43.9092 C.2       9 UNK         0.5000 
     26 O          -1.5778  -22.7518  -44.0963 O.2       9 UNK        -0.5000 
     27 CA         -2.5635  -20.5760  -43.8861 C.3       9 UNK         0.1400 
     28 CB         -2.9417  -20.2116  -42.4428 C.3       9 UNK        -0.1800 
     29 N          -2.3163  -19.3529  -44.6498 N.am      9 UNK        -0.5000 
     30 C          -2.0659  -19.3204  -45.9662 C.2       8 UNK         0.5000 
     31 O          -2.0483  -20.3171  -46.6840 O.2       8 UNK        -0.5000 
     32 CA         -1.7008  -17.9560  -46.5737 C.3       8 UNK         0.1400 
     33 CB         -2.9598  -17.1058  -46.8023 C.3       8 UNK        -0.1800 
     34 N          -0.7243  -17.2207  -45.7677 N.am      8 UNK        -0.5000 
     35 C           0.4904  -17.6904  -45.4459 C.2       7 UNK         0.5000 
     36 O           0.9127  -18.7861  -45.8029 O.2       7 UNK        -0.5000 
     37 CA          1.3634  -16.8224  -44.5299 C.3       7 UNK         0.1400 
     38 CB          2.0341  -15.7019  -45.3287 C.3       7 UNK        -0.1800 
     39 N           0.6013  -16.2714  -43.4123 N.am      7 UNK        -0.5000 
     40 C           0.0859  -17.0175  -42.4248 C.2       6 UNK         0.5000 
     41 O           0.2781  -18.2283  -42.3050 O.2       6 UNK        -0.5000 
     42 CA         -0.8540  -16.2960  -41.4452 C.3       6 UNK         0.1400 
     43 CB         -0.0600  -15.5593  -40.3560 C.3       6 UNK        -0.1800 
     44 N          -1.7403  -15.3603  -42.1401 N.am      6 UNK        -0.5000 
     45 C          -2.7338  -15.7450  -42.9549 C.2       5 UNK         0.5000 
     46 O          -3.0211  -16.9228  -43.1684 O.2       5 UNK        -0.5000 
     47 CA         -3.5260  -14.6393  -43.6757 C.3       5 UNK         0.1400 
     48 CB         -4.7371  -14.2124  -42.8334 C.3       5 UNK        -0.1800 
     49 N          -2.7309  -13.4568  -44.0062 N.am      5 UNK        -0.5000 
     50 C          -1.6831  -13.4310  -44.8414 C.2       4 UNK         0.5000 
     51 O          -1.2436  -14.4301  -45.4118 O.2       4 UNK        -0.5000 
     52 CA         -1.0103  -12.0624  -45.0853 C.3       4 UNK         0.1400 
     53 CB         -1.6924  -10.8866  -44.3510 C.3       4 UNK        -0.1800 
     54 N           0.4284  -12.0407  -44.7941 N.am      4 UNK        -0.5000 
     55 C           1.0387  -12.4668  -43.6772 C.2       3 UNK         0.5000 
     56 O           0.4681  -13.1039  -42.7900 O.2       3 UNK        -0.5000 
     57 CA          2.5257  -12.0979  -43.5102 C.3       3 UNK         0.1400 
     58 CB          3.2789  -13.0245  -42.5352 C.3       3 UNK        -0.1800 
     59 N           3.2305  -12.0273  -44.7925 N.am      3 UNK        -0.5000 
     60 C           4.1894  -11.1427  -45.0970 C.2       2 UNK         0.5000 
     61 O           4.5844  -10.2794  -44.3120 O.2       2 UNK        -0.5000 
     62 CA          4.8106  -11.1935  -46.5118 C.3       2 UNK         0.1400 
     63 CB          6.0808  -12.0659  -46.5336 C.3       2 UNK        -0.1800 
     64 N           3.8709  -11.5638  -47.5802 N.am      2 UNK        -0.5000 
     65 C           3.2689  -12.7411  -47.8003 C.2       1 UNK         0.5000 
     66 O           3.5358  -13.7537  -47.1570 O.2       1 UNK        -0.5000 
     67 C           0.2398  -22.9584  -48.1078 C.2       11 UNK         0.5000 
     68 O           0.5710  -23.8937  -48.8373 O.2       11 UNK        -0.5000 
     69 N          -1.0112  -22.7718  -47.6611 N.am      12 UNK        -0.5000 
     70 CA         -2.1215  -23.6853  -47.9261 C.3       12 UNK         0.1400 
     71 CB         -3.4523  -23.0280  -47.5316 C.3       12 UNK        -0.1800 
     72 C          -1.9547  -25.0394  -47.2185 C.2       12 UNK         0.5000 
     73 O          -2.2193  -26.0746  -47.8305 O.2       12 UNK        -0.5000 
     74 N          -1.5026  -25.0043  -45.9557 N.am      13 UNK        -0.5000 
     75 CA         -1.2400  -26.1494  -45.0811 C.3       13 UNK         0.1400 
     76 CB          0.0158  -26.9074  -45.5678 C.3       13 UNK        -0.1800 
     77 C          -2.4897  -27.0422  -44.9102 C.2       13 UNK         0.5000 
     78 O          -3.5947  -26.5180  -44.7512 O.2       13 UNK        -0.5000 
     79 N          -2.3171  -28.3680  -44.9775 N.am      14 UNK        -0.5000 
     80 CA         -3.3865  -29.3683  -44.9468 C.3       14 UNK         0.1400 
     81 CB         -2.8121  -30.6830  -44.3880 C.3       14 UNK        -0.1800 
     82 C          -4.0379  -29.5427  -46.3373 C.2       14 UNK         0.5000 
     83 O          -4.1173  -30.6623  -46.8462 O.2       14 UNK        -0.5000 
     84 N          -4.4674  -28.4203  -46.9333 N.am      15 UNK        -0.5000 
     85 CA         -5.0502  -28.2829  -48.2737 C.3       15 UNK         0.1400 
     86 CB         -6.4387  -28.9526  -48.3378 C.3       15 UNK        -0.1800 
     87 C          -4.0975  -28.7499  -49.3969 C.2       15 UNK         0.5000 
     88 O          -4.5298  -29.3836  -50.3617 O.2       15 UNK        -0.5000 
     89 N          -2.8092  -28.4176  -49.2484 N.am      16 UNK        -0.5000 
     90 CA         -1.7580  -28.6580  -50.2366 C.3       16 UNK         0.1400 
     91 CB         -0.3957  -28.6313  -49.5262 C.3       16 UNK        -0.1800 
     92 C          -1.7929  -27.6217  -51.3761 C.2       16 UNK         0.5000 
     93 O          -1.3559  -27.9229  -52.4875 O.2       16 UNK        -0.5000 
     94 N          -2.3258  -26.4313  -51.0833 N.am      17 UNK        -0.5000 
     95 CA         -2.5636  -25.3354  -52.0130 C.3       17 UNK         0.1400 
     96 CB         -1.3007  -24.4612  -52.1178 C.3       17 UNK        -0.1800 
     97 C          -3.7649  -24.5243  -51.5062 C.2       17 UNK         0.5000 
     98 O          -4.1856  -24.7020  -50.3600 O.2       17 UNK        -0.5000 
     99 N          -4.2943  -23.6431  -52.3618 N.am      18 UNK        -0.5000 
    100 CA        -5.3736  -22.7208  -52.0046 C.3       18 UNK         0.1400 
    101 CB        -6.1461  -22.3279  -53.2732 C.3       18 UNK        -0.1800 
    102 C         -4.8496  -21.4644  -51.2861 C.2       18 UNK         0.5000 
    103 O         -5.5074  -20.9777  -50.3664 O.2       18 UNK        -0.5000 
    104 N         -3.6959  -20.9502  -51.7446 N.am      19 UNK        -0.5000 
    105 CA        -2.9873  -19.7263  -51.3313 C.3       19 UNK         0.1400 
    106 CB        -2.5228  -19.8066  -49.8685 C.3       19 UNK        -0.1800 
    107 C         -3.7586  -18.4169  -51.6040 C.2       19 UNK         0.5000 
    108 O         -3.2100  -17.4946  -52.2050 O.2       19 UNK        -0.5000 
    109 N         -5.0368  -18.3645  -51.2158 N.am      20 UNK        -0.5000 
    110 CA        -5.9516  -17.2480  -51.4630 C.3       20 UNK         0.1400 
    111 CB        -7.2484  -17.4872  -50.6754 C.3       20 UNK        -0.1800 
    112 C         -6.2582  -17.0252  -52.9586 C.2       20 UNK         0.5000 
    113 O         -6.6119  -15.9103  -53.3433 O.2       20 UNK        -0.5000 
    114 N         -6.1131  -18.0823  -53.7711 N.am      21 UNK        -0.5000 
    115 CA        -6.2821  -18.0453  -55.2225 C.3       21 UNK         0.1400 
    116 CB        -6.4282  -19.4792  -55.7543 C.3       21 UNK        -0.1800 
    117 C         -5.1259  -17.3210  -55.9367 C.2       21 UNK         0.5000 
    118 O         -5.3805  -16.5759  -56.8842 O.2       21 UNK        -0.5000 
    119 N         -3.8865  -17.5543  -55.4814 N.am      22 UNK        -0.5000 
    120 CA        -2.6768  -16.9089  -56.0173 C.3       22 UNK         0.1400 
    121 C         -2.3399  -15.5536  -55.3340 C.2       22 UNK         0.5000 
    122 N         -2.7275  -15.3271  -54.0849 N.am      22 UNK        -0.7600 
    123 O         -1.7312  -14.6872  -55.9557 O.2       22 UNK        -0.5000 
    124 C124       -1.4584  -17.8706  -56.0592 C.3       23 UNK        -0.0398 
    125 S125       -0.9792  -18.5735  -54.4419 S.3       23 UNK        -0.2404 
    126 C126        0.4382  -17.5150  -54.0139 C.3       23 UNK        -0.0205 
    127 H127        1.0602   -8.4016  -48.8049 H         1 UNK         0.0600 
    128 H128       -0.4978   -9.1745  -49.1163 H         1 UNK         0.0600 
    129 H129        0.8002   -9.2930  -50.3078 H         1 UNK         0.0600 
    130 H130        1.7868  -11.2771  -50.2890 H         1 UNK         0.3000 
    131 H131        2.6128  -13.2421  -49.7521 H         1 UNK         0.0600 
    132 H132        1.3960  -14.7293  -48.2078 H         1 UNK         0.0800 
    133 H133        0.5527  -13.3846  -47.4889 H         1 UNK         0.0800 
    134 H134       -0.6854  -15.9562  -48.4246 H         1 UNK         0.0800 
    135 H135       -1.7952  -15.8224  -49.7654 H         1 UNK         0.0800 
    136 H136       -0.8924  -16.0628  -52.1489 H         1 UNK         0.1150 
    137 H137        2.3068  -18.8763  -52.5573 H         1 UNK         0.1150 
    138 H138        1.3525  -17.2459  -48.7010 H         1 UNK         0.1150 
    139 H139        3.3622  -19.8038  -50.6355 H         1 UNK         0.0800 
    140 H140        3.9827  -18.3358  -49.9209 H         1 UNK         0.0800 
    141 H141        1.3498  -21.0409  -49.6516 H         1 UNK         0.0800 
    142 H142        0.4291  -20.1166  -48.4862 H         1 UNK         0.0800 
    143 H143        2.2740  -22.4461  -47.7539 H         1 UNK         0.0600 
    144 H144        0.8888  -20.5918  -46.0800 H         1 UNK         0.3000 
    145 H145        0.9958  -22.6322  -43.1236 H         1 UNK         0.0600 
    146 H146        2.0913  -20.5609  -42.3109 H         1 UNK         0.0600 
    147 H147        3.1943  -21.4856  -43.3198 H         1 UNK         0.0600 
    148 H148        2.4125  -20.0494  -43.9658 H         1 UNK         0.0600 
    149 H149       -0.0639  -20.0247  -43.6003 H         1 UNK         0.3000 
    150 H150       -3.4152  -21.0842  -44.3429 H         1 UNK         0.0600 
    151 H151       -3.8421  -19.5978  -42.4154 H         1 UNK         0.0600 
    152 H152       -2.1451  -19.6568  -41.9458 H         1 UNK         0.0600 
    153 H153       -3.1393  -21.1067  -41.8517 H         1 UNK         0.0600 
    154 H154       -2.3458  -18.4786  -44.1329 H         1 UNK         0.3000 
    155 H155       -1.2329  -18.1420  -47.5413 H         1 UNK         0.0600 
    156 H156       -3.6160  -17.5791  -47.5338 H         1 UNK         0.0600 
    157 H157       -3.5334  -16.9838  -45.8844 H         1 UNK         0.0600 
    158 H158       -2.7161  -16.1125  -47.1777 H         1 UNK         0.0600 
    159 H159       -0.9797  -16.2809  -45.4738 H         1 UNK         0.3000 
    160 H160        2.1512  -17.4605  -44.1237 H         1 UNK         0.0600 
    161 H161        2.8056  -15.2055  -44.7445 H         1 UNK         0.0600 
    162 H162        1.3192  -14.9482  -45.6548 H         1 UNK         0.0600 
    163 H163        2.5205  -16.1006  -46.2202 H         1 UNK         0.0600 
    164 H164        0.3721  -15.2859  -43.4446 H         1 UNK         0.3000 
    165 H165       -1.4723  -17.0529  -40.9574 H         1 UNK         0.0600 
    166 H166       -0.7259  -15.0720  -39.6438 H         1 UNK         0.0600 
    167 H167        0.5638  -16.2555  -39.7941 H         1 UNK         0.0600 
    168 H168        0.5983  -14.7983  -40.7751 H         1 UNK         0.0600 
    169 H169       -1.5198  -14.3764  -42.0635 H         1 UNK         0.3000 
    170 H170       -3.8978  -15.0562  -44.6128 H         1 UNK         0.0600 
    171 H171       -4.4315  -13.7537  -41.8921 H         1 UNK         0.0600 
    172 H172       -5.3595  -13.4965  -43.3705 H         1 UNK         0.0600 
    173 H173       -5.3663  -15.0702  -42.5916 H         1 UNK         0.0600 
    174 H174       -3.0128  -12.5912  -43.5701 H         1 UNK         0.3000 
    175 H175       -1.1125  -11.8803  -46.1554 H         1 UNK         0.0600 
    176 H176       -1.2245   -9.9401  -44.6225 H         1 UNK         0.0600 
    177 H177       -1.6236  -10.9866  -43.2669 H         1 UNK         0.0600 
    178 H178       -2.7464  -10.8039  -44.6192 H         1 UNK         0.0600 
    179 H179        0.9769  -11.5437  -45.4885 H         1 UNK         0.3000 
    180 H180        2.5110  -11.1012  -43.0647 H         1 UNK         0.0600 
    181 H181        3.2931  -14.0567  -42.8805 H         1 UNK         0.0600 
    182 H182        2.8134  -13.0177  -41.5489 H         1 UNK         0.0600 
    183 H183        4.3117  -12.7020  -42.4031 H         1 UNK         0.0600 
    184 H184        3.0038  -12.7350  -45.4829 H         1 UNK         0.3000 
    185 H185        5.1186  -10.1732  -46.7457 H         1 UNK         0.0600 
    186 H186        5.8774  -13.0964  -46.2420 H         1 UNK         0.0600 
    187 H187        6.5343  -12.0792  -47.5247 H         1 UNK         0.0600 
    188 H188        6.8271  -11.6774  -45.8397 H         1 UNK         0.0600 
    189 H189        3.5505  -10.7904  -48.1460 H         1 UNK         0.3000 
    190 H190       -1.2309  -21.9412  -47.1158 H         1 UNK         0.3000 
    191 H191       -2.1405  -23.8735  -48.9991 H         1 UNK         0.0600 
    192 H192       -3.6341  -22.1262  -48.1161 H         1 UNK         0.0600 
    193 H193       -4.2896  -23.7031  -47.7126 H         1 UNK         0.0600 
    194 H194       -3.4702  -22.7556  -46.4758 H         1 UNK         0.0600 
    195 H195       -1.3903  -24.0973  -45.5125 H         1 UNK         0.3000 
    196 H196       -1.0209  -25.7356  -44.0959 H         1 UNK         0.0600 
    197 H197        0.3282  -27.6652  -44.8486 H         1 UNK         0.0600 
    198 H198        0.8563  -26.2240  -45.6916 H         1 UNK         0.0600 
    199 H199       -0.1490  -27.3996  -46.5269 H         1 UNK         0.0600 
    200 H200       -1.3859  -28.7195  -45.1475 H         1 UNK         0.3000 
    201 H201       -4.1708  -29.0349  -44.2640 H         1 UNK         0.0600 
    202 H202       -2.3921  -30.5377  -43.3925 H         1 UNK         0.0600 
    203 H203       -2.0257  -31.0841  -45.0286 H         1 UNK         0.0600 
    204 H204       -3.5881  -31.4447  -44.3019 H         1 UNK         0.0600 
    205 H205       -4.3262  -27.5535  -46.4257 H         1 UNK         0.3000 
    206 H206       -5.1945  -27.2129  -48.4320 H         1 UNK         0.0600 
    207 H207       -7.0908  -28.5840  -47.5461 H         1 UNK         0.0600 
    208 H208       -6.9314  -28.7400  -49.2872 H         1 UNK         0.0600 
    209 H209       -6.3716  -30.0365  -48.2402 H         1 UNK         0.0600 
    210 H210       -2.5597  -27.8083  -48.4732 H         1 UNK         0.3000 
    211 H211       -1.9002  -29.6485  -50.6736 H         1 UNK         0.0600 
    212 H212       -0.1912  -27.6541  -49.0863 H         1 UNK         0.0600 
    213 H213        0.4125  -28.8523  -50.2245 H         1 UNK         0.0600 
    214 H214       -0.3509  -29.3741  -48.7296 H         1 UNK         0.0600 
    215 H215       -2.6926  -26.2738  -50.1510 H         1 UNK         0.3000 
    216 H216       -2.8163  -25.7394  -52.9955 H         1 UNK         0.0600 
    217 H217       -1.4433  -23.6410  -52.8220 H         1 UNK         0.0600 
    218 H218       -0.4473  -25.0417  -52.4684 H         1 UNK         0.0600 
    219 H219       -1.0318  -24.0250  -51.1554 H         1 UNK         0.0600 
    220 H220       -3.9215  -23.5747  -53.2978 H         1 UNK         0.3000 
    221 H221       -6.0721  -23.2225  -51.3308 H         1 UNK         0.0600 
    222 H222       -5.4944  -21.8656  -54.0144 H         1 UNK         0.0600 
    223 H223       -6.6103  -23.1994  -53.7351 H         1 UNK         0.0600 
    224 H224       -6.9436  -21.6194  -53.0448 H         1 UNK         0.0600 
    225 H225       -3.2598  -21.4384  -52.5128 H         1 UNK         0.3000 
    226 H226       -2.0865  -19.6890  -51.9445 H         1 UNK         0.0600 
    227 H227       -1.9419  -20.7107  -49.6864 H         1 UNK         0.0600 
    228 H228       -1.8849  -18.9569  -49.6258 H         1 UNK         0.0600 
    229 H229       -3.3601  -19.8000  -49.1703 H         1 UNK         0.0600 
    230 H230       -5.4150  -19.1841  -50.7457 H         1 UNK         0.3000 
    231 H231       -5.4813  -16.3378  -51.0853 H         1 UNK         0.0600 
    232 H232       -7.7480  -18.4031  -50.9939 H         1 UNK         0.0600 
    233 H233       -7.9494  -16.6633  -50.8150 H         1 UNK         0.0600 
    234 H234       -7.0507  -17.5676  -49.6063 H         1 UNK         0.0600 
    235 H235       -5.8306  -18.9597  -53.3630 H         1 UNK         0.3000 
    236 H236       -7.2055  -17.5064  -55.4456 H         1 UNK         0.0600 
    237 H237       -7.2589  -19.9977  -55.2751 H         1 UNK         0.0600 
    238 H238       -6.6237  -19.4765  -56.8274 H         1 UNK         0.0600 
    239 H239       -5.5230  -20.0642  -55.5901 H         1 UNK         0.0600 
    240 H240       -3.7534  -18.1386  -54.6696 H         1 UNK         0.3000 
    241 H241       -2.8732  -16.6546  -57.0610 H         1 UNK         0.0600 
    242 H242       -2.5207  -14.4389  -53.6588 H         1 UNK         0.3800 
    243 H243       -3.1128  -16.0776  -53.5194 H         1 UNK         0.3800 
    244 H244       -1.6926  -18.7079  -56.7177 H         1 UNK         0.0800 
    245 H245       -0.5982  -17.3793  -56.5174 H         1 UNK         0.0800 
    246 H246        0.2652  -16.4970  -54.3649 H         1 UNK         0.0800 
    247 H247        1.3247  -17.8726  -54.5397 H         1 UNK         0.0800 
@<TRIPOS>BOND
     1    1    2 1    
     2    1  127 1    
     3    1  128 1    
     4    1  129 1    
     5    2    3 2    
     6    2    4 am   BACKBONE|DICT|INTERRES
     7    4    5 1    
     8    4  130 1    
     9    5    6 1    
    10    5   65 1    
    11    5  131 1    
    12    6    7 1    
    13    6  132 1    
    14    6  133 1    
    15    7    8 1    
    16    8    9 1    
    17    8  134 1    
    18    8  135 1    
    19    9   10 ar   
    20    9   14 ar   
    21   10   11 ar   
    22   10  136 1    
    23   11   12 ar   
    24   11  126 1    
    25   12   13 ar   
    26   12  137 1    
    27   13   14 ar   
    28   13   15 1    
    29   14  138 1    
    30   15   16 1    
    31   15  139 1    
    32   15  140 1    
    33   16   17 1    
    34   17   18 1    
    35   17  141 1    
    36   17  142 1    
    37   18   19 1    
    38   18   67 1    
    39   18  143 1    
    40   19   20 am   BACKBONE|DICT|INTERRES
    41   19  144 1    
    42   20   21 2    
    43   20   22 1    
    44   22   23 1    
    45   22   24 1    
    46   22  145 1    
    47   23  146 1    
    48   23  147 1    
    49   23  148 1    
    50   24   25 am   BACKBONE|DICT|INTERRES
    51   24  149 1    
    52   25   26 2    
    53   25   27 1    
    54   27   28 1    
    55   27   29 1    
    56   27  150 1    
    57   28  151 1    
    58   28  152 1    
    59   28  153 1    
    60   29   30 am   BACKBONE|DICT|INTERRES
    61   29  154 1    
    62   30   31 2    
    63   30   32 1    
    64   32   33 1    
    65   32   34 1    
    66   32  155 1    
    67   33  156 1    
    68   33  157 1    
    69   33  158 1    
    70   34   35 am   BACKBONE|DICT|INTERRES
    71   34  159 1    
    72   35   36 2    
    73   35   37 1    
    74   37   38 1    
    75   37   39 1    
    76   37  160 1    
    77   38  161 1    
    78   38  162 1    
    79   38  163 1    
    80   39   40 am   BACKBONE|DICT|INTERRES
    81   39  164 1    
    82   40   41 2    
    83   40   42 1    
    84   42   43 1    
    85   42   44 1    
    86   42  165 1    
    87   43  166 1    
    88   43  167 1    
    89   43  168 1    
    90   44   45 am   BACKBONE|DICT|INTERRES
    91   44  169 1    
    92   45   46 2    
    93   45   47 1    
    94   47   48 1    
    95   47   49 1    
    96   47  170 1    
    97   48  171 1    
    98   48  172 1    
    99   48  173 1    
   100   49   50 am   BACKBONE|DICT|INTERRES
   101   49  174 1    
   102   50   51 2    
   103   50   52 1    
   104   52   53 1    
   105   52   54 1    
   106   52  175 1    
   107   53  176 1    
   108   53  177 1    
   109   53  178 1    
   110   54   55 am   BACKBONE|DICT|INTERRES
   111   54  179 1    
   112   55   56 2    
   113   55   57 1    
   114   57   58 1    
   115   57   59 1    
   116   57  180 1    
   117   58  181 1    
   118   58  182 1    
   119   58  183 1    
   120   59   60 am   BACKBONE|DICT|INTERRES
   121   59  184 1    
   122   60   61 2    
   123   60   62 1    
   124   62   63 1    
   125   62   64 1    
   126   62  185 1    
   127   63  186 1    
   128   63  187 1    
   129   63  188 1    
   130   64   65 am   BACKBONE|DICT|INTERRES
   131   64  189 1    
   132   65   66 2    
   133   67   68 2    
   134   67   69 am   BACKBONE|DICT|INTERRES
   135   69   70 1    
   136   69  190 1    
   137   70   71 1    
   138   70   72 1    
   139   70  191 1    
   140   71  192 1    
   141   71  193 1    
   142   71  194 1    
   143   72   73 2    
   144   72   74 am   BACKBONE|DICT|INTERRES
   145   74   75 1    
   146   74  195 1    
   147   75   76 1    
   148   75   77 1    
   149   75  196 1    
   150   76  197 1    
   151   76  198 1    
   152   76  199 1    
   153   77   78 2    
   154   77   79 am   BACKBONE|DICT|INTERRES
   155   79   80 1    
   156   79  200 1    
   157   80   81 1    
   158   80   82 1    
   159   80  201 1    
   160   81  202 1    
   161   81  203 1    
   162   81  204 1    
   163   82   83 2    
   164   82   84 am   BACKBONE|DICT|INTERRES
   165   84   85 1    
   166   84  205 1    
   167   85   86 1    
   168   85   87 1    
   169   85  206 1    
   170   86  207 1    
   171   86  208 1    
   172   86  209 1    
   173   87   88 2    
   174   87   89 am   BACKBONE|DICT|INTERRES
   175   89   90 1    
   176   89  210 1    
   177   90   91 1    
   178   90   92 1    
   179   90  211 1    
   180   91  212 1    
   181   91  213 1    
   182   91  214 1    
   183   92   93 2    
   184   92   94 am   BACKBONE|DICT|INTERRES
   185   94   95 1    
   186   94  215 1    
   187   95   96 1    
   188   95   97 1    
   189   95  216 1    
   190   96  217 1    
   191   96  218 1    
   192   96  219 1    
   193   97   98 2    
   194   97   99 am   BACKBONE|DICT|INTERRES
   195   99  100 1    
   196   99  220 1    
   197  100  101 1    
   198  100  102 1    
   199  100  221 1    
   200  101  222 1    
   201  101  223 1    
   202  101  224 1    
   203  102  103 2    
   204  102  104 am   BACKBONE|DICT|INTERRES
   205  104  105 1    
   206  104  225 1    
   207  105  106 1    
   208  105  107 1    
   209  105  226 1    
   210  106  227 1    
   211  106  228 1    
   212  106  229 1    
   213  107  108 2    
   214  107  109 am   BACKBONE|DICT|INTERRES
   215  109  110 1    
   216  109  230 1    
   217  110  111 1    
   218  110  112 1    
   219  110  231 1    
   220  111  232 1    
   221  111  233 1    
   222  111  234 1    
   223  112  113 2    
   224  112  114 am   BACKBONE|DICT|INTERRES
   225  114  115 1    
   226  114  235 1    
   227  115  116 1    
   228  115  117 1    
   229  115  236 1    
   230  116  237 1    
   231  116  238 1    
   232  116  239 1    
   233  117  118 2    
   234  117  119 am   BACKBONE|DICT|INTERRES
   235  119  120 1    
   236  119  240 1    
   237  120  121 1    
   238  120  124 1    
   239  120  241 1    
   240  121  122 am   BACKBONE|DICT|INTERRES
   241  121  123 2    
   242  122  242 1    
   243  122  243 1    
   244  124  125 1    
   245  124  244 1    
   246  124  245 1    
   247  125  126 1    
   248  126  246 1    
   249  126  247 1    
@<TRIPOS>SUBSTRUCTURE
     1 UNK         1 GROUP             0       ****    0 ROOT    
