@<TRIPOS>MOLECULE
3R540
247   249    1
SMALL
USER_CHARGES


@<TRIPOS>ATOM
      1 CA         -6.2919  -15.7452  -48.6338 C.3       0 UNK        -0.1800 
      2 C          -4.9604  -15.3167  -48.0348 C.2       0 UNK         0.5000 
      3 O          -4.7507  -14.1307  -47.7807 O.2       0 UNK        -0.5000 
      4 N          -4.0643  -16.2815  -47.7876 N.am      1 UNK        -0.5000 
      5 CA         -2.6882  -16.0805  -47.3031 C.3       1 UNK         0.1400 
      6 C6         -1.8361  -17.3708  -47.3913 C.3       23 UNK        -0.0398 
      7 S7         -1.9418  -18.1477  -49.0387 S.3       23 UNK        -0.2404 
      8 C8         -0.5637  -17.3620  -49.9255 C.3       23 UNK        -0.0205 
      9 C9          0.6327  -18.2926  -50.0223 C.ar      23 UNK        -0.0193 
     10 C10         0.6366  -19.3154  -50.9719 C.ar      23 UNK        -0.1150 
     11 C11         1.7342  -20.1688  -51.1053 C.ar      23 UNK        -0.0193 
     12 C12         2.8366  -19.9973  -50.2623 C.ar      23 UNK        -0.1150 
     13 C13         2.8392  -18.9871  -49.2937 C.ar      23 UNK        -0.0193 
     14 C14         1.7368  -18.1328  -49.1829 C.ar      23 UNK        -0.1150 
     15 C15         4.0304  -18.8199  -48.3613 C.3       23 UNK        -0.0205 
     16 S16         4.1136  -20.1362  -47.1044 S.3       23 UNK        -0.2404 
     17 C17         2.5022  -19.9592  -46.2666 C.3       23 UNK        -0.0398 
     18 CA          1.5369  -21.1207  -46.5973 C.3       11 UNK         0.1400 
     19 N           2.0575  -22.4094  -46.1344 N.am      11 UNK        -0.5000 
     20 C           1.5860  -23.6088  -46.4947 C.2       10 UNK         0.5000 
     21 O           0.6652  -23.7718  -47.2931 O.2       10 UNK        -0.5000 
     22 CA          2.2323  -24.8301  -45.8148 C.3       10 UNK         0.1400 
     23 CB          3.5222  -25.2349  -46.5439 C.3       10 UNK        -0.1800 
     24 N           2.5287  -24.5924  -44.4003 N.am      10 UNK        -0.5000 
     25 C           1.5957  -24.4310  -43.4512 C.2       9 UNK         0.5000 
     26 O           0.3860  -24.5128  -43.6630 O.2       9 UNK        -0.5000 
     27 CA          2.0980  -24.0642  -42.0400 C.3       9 UNK         0.1400 
     28 CB          2.4692  -25.3298  -41.2530 C.3       9 UNK        -0.1800 
     29 N           3.2361  -23.1363  -42.0377 N.am      9 UNK        -0.5000 
     30 C           3.2172  -21.9124  -42.5826 C.2       8 UNK         0.5000 
     31 O           2.2432  -21.4609  -43.1841 O.2       8 UNK        -0.5000 
     32 CA          4.5172  -21.0893  -42.4905 C.3       8 UNK         0.1400 
     33 CB          5.5618  -21.6372  -43.4768 C.3       8 UNK        -0.1800 
     34 N           4.3122  -19.6679  -42.7824 N.am      8 UNK        -0.5000 
     35 C           3.6013  -18.8125  -42.0346 C.2       7 UNK         0.5000 
     36 O           3.0868  -19.1173  -40.9559 O.2       7 UNK        -0.5000 
     37 CA          3.4750  -17.3572  -42.5402 C.3       7 UNK         0.1400 
     38 CB          4.0992  -17.0962  -43.9313 C.3       7 UNK        -0.1800 
     39 N           2.0906  -16.8812  -42.4919 N.am      7 UNK        -0.5000 
     40 C           1.0389  -17.3543  -43.1727 C.2       6 UNK         0.5000 
     41 O           1.1093  -18.2543  -44.0050 O.2       6 UNK        -0.5000 
     42 CA         -0.3314  -16.6997  -42.9165 C.3       6 UNK         0.1400 
     43 CB         -1.0605  -17.3594  -41.7311 C.3       6 UNK        -0.1800 
     44 N          -0.3058  -15.2361  -42.7901 N.am      6 UNK        -0.5000 
     45 C           0.2140  -14.4787  -41.8118 C.2       5 UNK         0.5000 
     46 O           0.8175  -14.9404  -40.8418 O.2       5 UNK        -0.5000 
     47 CA          0.0160  -12.9529  -41.9309 C.3       5 UNK         0.1400 
     48 CB          1.1227  -12.1431  -41.2226 C.3       5 UNK        -0.1800 
     49 N          -0.1890  -12.4904  -43.3080 N.am      5 UNK        -0.5000 
     50 C           0.6953  -12.4832  -44.3189 C.2       4 UNK         0.5000 
     51 O           1.8585  -12.8720  -44.2088 O.2       4 UNK        -0.5000 
     52 CA          0.1906  -11.9684  -45.6855 C.3       4 UNK         0.1400 
     53 CB          0.7660  -12.7904  -46.8535 C.3       4 UNK        -0.1800 
     54 N          -1.2709  -12.0042  -45.7623 N.am      4 UNK        -0.5000 
     55 C          -2.0946  -10.9637  -45.5741 C.2       3 UNK         0.5000 
     56 O          -1.7057   -9.8095  -45.3955 O.2       3 UNK        -0.5000 
     57 CA         -3.6088  -11.2648  -45.5433 C.3       3 UNK         0.1400 
     58 CB         -4.2506  -10.9202  -46.8953 C.3       3 UNK        -0.1800 
     59 N          -3.9191  -12.6579  -45.2050 N.am      3 UNK        -0.5000 
     60 C          -3.6912  -13.2225  -44.0077 C.2       2 UNK         0.5000 
     61 O          -3.2552  -12.6010  -43.0389 O.2       2 UNK        -0.5000 
     62 CA         -3.9117  -14.7458  -43.8855 C.3       2 UNK         0.1400 
     63 CB         -5.3147  -15.0456  -43.3395 C.3       2 UNK        -0.1800 
     64 N          -3.7262  -15.4660  -45.1476 N.am      2 UNK        -0.5000 
     65 C          -2.6087  -15.4647  -45.8891 C.2       1 UNK         0.5000 
     66 O          -1.5574  -14.9464  -45.5125 O.2       1 UNK        -0.5000 
     67 C           0.1289  -20.8572  -46.0270 C.2       11 UNK         0.5000 
     68 O          -0.7506  -20.4114  -46.7601 O.2       11 UNK        -0.5000 
     69 N          -0.0812  -21.1919  -44.7470 N.am      12 UNK        -0.5000 
     70 CA         -1.3744  -21.1182  -44.0710 C.3       12 UNK         0.1400 
     71 CB         -1.1835  -21.3961  -42.5725 C.3       12 UNK        -0.1800 
     72 C          -2.4083  -22.0797  -44.6865 C.2       12 UNK         0.5000 
     73 O          -3.5568  -21.6862  -44.8896 O.2       12 UNK        -0.5000 
     74 N          -1.9737  -23.3071  -45.0084 N.am      13 UNK        -0.5000 
     75 CA         -2.7794  -24.3225  -45.6877 C.3       13 UNK         0.1400 
     76 CB         -2.0434  -25.6699  -45.6527 C.3       13 UNK        -0.1800 
     77 C          -3.1421  -23.9404  -47.1350 C.2       13 UNK         0.5000 
     78 O          -4.2529  -24.2392  -47.5756 O.2       13 UNK        -0.5000 
     79 N          -2.2235  -23.2620  -47.8403 N.am      14 UNK        -0.5000 
     80 CA         -2.3895  -22.8141  -49.2264 C.3       14 UNK         0.1400 
     81 CB         -1.0871  -22.1908  -49.7443 C.3       14 UNK        -0.1800 
     82 C          -3.5649  -21.8459  -49.4460 C.2       14 UNK         0.5000 
     83 O          -4.0960  -21.7972  -50.5546 O.2       14 UNK        -0.5000 
     84 N          -4.0044  -21.1417  -48.3932 N.am      15 UNK        -0.5000 
     85 CA         -5.1887  -20.2790  -48.4027 C.3       15 UNK         0.1400 
     86 CB         -5.3294  -19.5983  -47.0333 C.3       15 UNK        -0.1800 
     87 C          -6.4899  -21.0229  -48.7732 C.2       15 UNK         0.5000 
     88 O          -7.3724  -20.4244  -49.3879 O.2       15 UNK        -0.5000 
     89 N          -6.5671  -22.3198  -48.4386 N.am      16 UNK        -0.5000 
     90 CA         -7.6678  -23.2119  -48.8099 C.3       16 UNK         0.1400 
     91 CB         -7.7427  -24.3570  -47.7877 C.3       16 UNK        -0.1800 
     92 C          -7.5341  -23.7731  -50.2419 C.2       16 UNK         0.5000 
     93 O          -8.4987  -24.3396  -50.7560 O.2       16 UNK        -0.5000 
     94 N          -6.3591  -23.6070  -50.8635 N.am      17 UNK        -0.5000 
     95 CA         -6.0174  -24.0692  -52.2096 C.3       17 UNK         0.1400 
     96 CB         -4.7064  -24.8732  -52.1357 C.3       17 UNK        -0.1800 
     97 C          -5.9199  -22.8851  -53.1940 C.2       17 UNK         0.5000 
     98 O          -5.1306  -22.9347  -54.1378 O.2       17 UNK        -0.5000 
     99 N          -6.7284  -21.8423  -52.9518 N.am      18 UNK        -0.5000 
    100 CA        -6.8497  -20.6031  -53.7288 C.3       18 UNK         0.1400 
    101 CB        -7.3097  -20.8839  -55.1756 C.3       18 UNK        -0.1800 
    102 C         -5.6157  -19.6785  -53.6467 C.2       18 UNK         0.5000 
    103 O         -5.4015  -18.8638  -54.5467 O.2       18 UNK        -0.5000 
    104 N         -4.8590  -19.7808  -52.5443 N.am      19 UNK        -0.5000 
    105 CA        -3.7518  -18.9120  -52.1433 C.3       19 UNK         0.1400 
    106 CB        -4.2900  -17.5209  -51.7329 C.3       19 UNK        -0.1800 
    107 C         -2.6231  -18.8740  -53.1907 C.2       19 UNK         0.5000 
    108 O         -1.9659  -19.8930  -53.4032 O.2       19 UNK        -0.5000 
    109 N         -2.4288  -17.7141  -53.8349 N.am      20 UNK        -0.5000 
    110 CA        -1.3900  -17.4208  -54.8290 C.3       20 UNK         0.1400 
    111 CB        -1.4701  -15.9301  -55.1926 C.3       20 UNK        -0.1800 
    112 C         -1.4200  -18.2941  -56.1025 C.2       20 UNK         0.5000 
    113 O         -0.4671  -18.2507  -56.8831 O.2       20 UNK        -0.5000 
    114 N         -2.4752  -19.1033  -56.2758 N.am      21 UNK        -0.5000 
    115 CA        -2.6194  -20.1400  -57.3014 C.3       21 UNK         0.1400 
    116 CB        -3.9866  -20.8158  -57.1235 C.3       21 UNK        -0.1800 
    117 C         -1.4921  -21.1984  -57.3137 C.2       21 UNK         0.5000 
    118 O         -1.3183  -21.8707  -58.3313 O.2       21 UNK        -0.5000 
    119 N         -0.7283  -21.3105  -56.2163 N.am      22 UNK        -0.5000 
    120 CA         0.5399  -22.0550  -56.1487 C.3       22 UNK         0.1400 
    121 C          1.6818  -21.5061  -57.0607 C.2       22 UNK         0.5000 
    122 N          1.6155  -20.2727  -57.5515 N.am      22 UNK        -0.7600 
    123 O          2.6414  -22.2214  -57.3363 O.2       22 UNK        -0.5000 
    124 C124        1.0227  -22.2393  -54.6858 C.3       23 UNK        -0.0398 
    125 S125        1.4092  -20.6744  -53.8226 S.3       23 UNK        -0.2404 
    126 C126        1.7041  -21.2921  -52.1342 C.3       23 UNK        -0.0205 
    127 H127       -6.3530  -16.8268  -48.7580 H         1 UNK         0.0600 
    128 H128       -6.4275  -15.2827  -49.6114 H         1 UNK         0.0600 
    129 H129       -7.1121  -15.4299  -47.9890 H         1 UNK         0.0600 
    130 H130       -4.2873  -17.2333  -48.0365 H         1 UNK         0.3000 
    131 H131       -2.2317  -15.3466  -47.9707 H         1 UNK         0.0600 
    132 H132       -2.1743  -18.1031  -46.6565 H         1 UNK         0.0800 
    133 H133       -0.7893  -17.1704  -47.1546 H         1 UNK         0.0800 
    134 H134       -0.8978  -17.1042  -50.9315 H         1 UNK         0.0800 
    135 H135       -0.2883  -16.4197  -49.4498 H         1 UNK         0.0800 
    136 H136       -0.2211  -19.4512  -51.6117 H         1 UNK         0.1150 
    137 H137        3.6877  -20.6587  -50.3443 H         1 UNK         0.1150 
    138 H138        1.7349  -17.3468  -48.4409 H         1 UNK         0.1150 
    139 H139        4.9508  -18.8309  -48.9466 H         1 UNK         0.0800 
    140 H140        3.9985  -17.8505  -47.8613 H         1 UNK         0.0800 
    141 H141        2.0571  -18.9973  -46.5236 H         1 UNK         0.0800 
    142 H142        2.6915  -19.9183  -45.1953 H         1 UNK         0.0800 
    143 H143        1.4338  -21.1735  -47.6837 H         1 UNK         0.0600 
    144 H144        2.7821  -22.3658  -45.4346 H         1 UNK         0.3000 
    145 H145        1.5268  -25.6612  -45.8811 H         1 UNK         0.0600 
    146 H146        3.9492  -26.1420  -46.1156 H         1 UNK         0.0600 
    147 H147        3.3269  -25.4350  -47.5983 H         1 UNK         0.0600 
    148 H148        4.2784  -24.4504  -46.4933 H         1 UNK         0.0600 
    149 H149        3.5006  -24.5105  -44.1412 H         1 UNK         0.3000 
    150 H150        1.2738  -23.5716  -41.5201 H         1 UNK         0.0600 
    151 H151        3.3171  -25.8494  -41.7010 H         1 UNK         0.0600 
    152 H152        1.6333  -26.0300  -41.2231 H         1 UNK         0.0600 
    153 H153        2.7278  -25.0912  -40.2212 H         1 UNK         0.0600 
    154 H154        4.0734  -23.4531  -41.5702 H         1 UNK         0.3000 
    155 H155        4.9065  -21.1764  -41.4743 H         1 UNK         0.0600 
    156 H156        5.2123  -21.5768  -44.5083 H         1 UNK         0.0600 
    157 H157        5.7936  -22.6826  -43.2700 H         1 UNK         0.0600 
    158 H158        6.4978  -21.0824  -43.4084 H         1 UNK         0.0600 
    159 H159        4.6831  -19.3360  -43.6598 H         1 UNK         0.3000 
    160 H160        4.0236  -16.7468  -41.8218 H         1 UNK         0.0600 
    161 H161        3.6323  -17.6926  -44.7146 H         1 UNK         0.0600 
    162 H162        5.1672  -17.3168  -43.9349 H         1 UNK         0.0600 
    163 H163        3.9919  -16.0482  -44.2122 H         1 UNK         0.0600 
    164 H164        1.8911  -16.1646  -41.7994 H         1 UNK         0.3000 
    165 H165       -0.9310  -16.9033  -43.8040 H         1 UNK         0.0600 
    166 H166       -2.0508  -16.9279  -41.5862 H         1 UNK         0.0600 
    167 H167       -1.1951  -18.4265  -41.9072 H         1 UNK         0.0600 
    168 H168       -0.5059  -17.2530  -40.7986 H         1 UNK         0.0600 
    169 H169       -0.7058  -14.7527  -43.5861 H         1 UNK         0.3000 
    170 H170       -0.9185  -12.7406  -41.4098 H         1 UNK         0.0600 
    171 H171        1.1441  -12.3625  -40.1546 H         1 UNK         0.0600 
    172 H172        2.1122  -12.3710  -41.6195 H         1 UNK         0.0600 
    173 H173        0.9563  -11.0710  -41.3278 H         1 UNK         0.0600 
    174 H174       -1.1297  -12.1736  -43.5069 H         1 UNK         0.3000 
    175 H175        0.5459  -10.9416  -45.7910 H         1 UNK         0.0600 
    176 H176        0.5199  -13.8487  -46.7646 H         1 UNK         0.0600 
    177 H177        0.3829  -12.4365  -47.8107 H         1 UNK         0.0600 
    178 H178        1.8529  -12.7098  -46.8921 H         1 UNK         0.0600 
    179 H179       -1.6707  -12.9306  -45.8565 H         1 UNK         0.3000 
    180 H180       -4.0561  -10.6249  -44.7800 H         1 UNK         0.0600 
    181 H181       -3.8292  -11.5189  -47.7038 H         1 UNK         0.0600 
    182 H182       -4.0923   -9.8709  -47.1472 H         1 UNK         0.0600 
    183 H183       -5.3270  -11.0918  -46.8774 H         1 UNK         0.0600 
    184 H184       -4.2644  -13.2354  -45.9652 H         1 UNK         0.3000 
    185 H185       -3.1790  -15.1281  -43.1728 H         1 UNK         0.0600 
    186 H186       -5.4780  -14.5433  -42.3850 H         1 UNK         0.0600 
    187 H187       -6.0935  -14.7095  -44.0254 H         1 UNK         0.0600 
    188 H188       -5.4527  -16.1137  -43.1706 H         1 UNK         0.0600 
    189 H189       -4.5475  -15.9020  -45.5402 H         1 UNK         0.3000 
    190 H190        0.7189  -21.4687  -44.1817 H         1 UNK         0.3000 
    191 H191       -1.7493  -20.0988  -44.1850 H         1 UNK         0.0600 
    192 H192       -0.4419  -20.7253  -42.1380 H         1 UNK         0.0600 
    193 H193       -2.1172  -21.2520  -42.0278 H         1 UNK         0.0600 
    194 H194       -0.8510  -22.4181  -42.3907 H         1 UNK         0.0600 
    195 H195       -1.0274  -23.5723  -44.7542 H         1 UNK         0.3000 
    196 H196       -3.7136  -24.4333  -45.1333 H         1 UNK         0.0600 
    197 H197       -2.6331  -26.4504  -46.1351 H         1 UNK         0.0600 
    198 H198       -1.8567  -25.9903  -44.6275 H         1 UNK         0.0600 
    199 H199       -1.0834  -25.6179  -46.1667 H         1 UNK         0.0600 
    200 H200       -1.3145  -23.0984  -47.4218 H         1 UNK         0.3000 
    201 H201       -2.5940  -23.7034  -49.8250 H         1 UNK         0.0600 
    202 H202       -1.1967  -21.8850  -50.7857 H         1 UNK         0.0600 
    203 H203       -0.2588  -22.8971  -49.6968 H         1 UNK         0.0600 
    204 H204       -0.8080  -21.3033  -49.1777 H         1 UNK         0.0600 
    205 H205       -3.5121  -21.2370  -47.5149 H         1 UNK         0.3000 
    206 H206       -5.0233  -19.5066  -49.1562 H         1 UNK         0.0600 
    207 H207       -4.4186  -19.0701  -46.7543 H         1 UNK         0.0600 
    208 H208       -6.1436  -18.8725  -47.0383 H         1 UNK         0.0600 
    209 H209       -5.5434  -20.3241  -46.2477 H         1 UNK         0.0600 
    210 H210       -5.7796  -22.7539  -47.9695 H         1 UNK         0.3000 
    211 H211       -8.6065  -22.6559  -48.7622 H         1 UNK         0.0600 
    212 H212       -6.8470  -24.9784  -47.8123 H         1 UNK         0.0600 
    213 H213       -8.5961  -25.0057  -47.9891 H         1 UNK         0.0600 
    214 H214       -7.8585  -23.9746  -46.7734 H         1 UNK         0.0600 
    215 H215       -5.6365  -23.0649  -50.4034 H         1 UNK         0.3000 
    216 H216       -6.7956  -24.7333  -52.5904 H         1 UNK         0.0600 
    217 H217       -4.4738  -25.3325  -53.0971 H         1 UNK         0.0600 
    218 H218       -4.7756  -25.6763  -51.4018 H         1 UNK         0.0600 
    219 H219       -3.8620  -24.2401  -51.8628 H         1 UNK         0.0600 
    220 H220       -7.3211  -21.9005  -52.1357 H         1 UNK         0.3000 
    221 H221       -7.6522  -20.0417  -53.2485 H         1 UNK         0.0600 
    222 H222       -6.5481  -21.4063  -55.7533 H         1 UNK         0.0600 
    223 H223       -8.2146  -21.4911  -55.1895 H         1 UNK         0.0600 
    224 H224       -7.5367  -19.9564  -55.7025 H         1 UNK         0.0600 
    225 H225       -5.0297  -20.5579  -51.9160 H         1 UNK         0.3000 
    226 H226       -3.3126  -19.3685  -51.2578 H         1 UNK         0.0600 
    227 H227       -4.8025  -17.0153  -52.5518 H         1 UNK         0.0600 
    228 H228       -4.9989  -17.6096  -50.9101 H         1 UNK         0.0600 
    229 H229       -3.4863  -16.8688  -51.3890 H         1 UNK         0.0600 
    230 H230       -3.0569  -16.9532  -53.6211 H         1 UNK         0.3000 
    231 H231       -0.4261  -17.6040  -54.3497 H         1 UNK         0.0600 
    232 H232       -2.4272  -15.6810  -55.6525 H         1 UNK         0.0600 
    233 H233       -0.6852  -15.6543  -55.8982 H         1 UNK         0.0600 
    234 H234       -1.3453  -15.3007  -54.3111 H         1 UNK         0.0600 
    235 H235       -3.2108  -19.0631  -55.5822 H         1 UNK         0.3000 
    236 H236       -2.6045  -19.6419  -58.2726 H         1 UNK         0.0600 
    237 H237       -4.1549  -21.5743  -57.8890 H         1 UNK         0.0600 
    238 H238       -4.0629  -21.3060  -56.1520 H         1 UNK         0.0600 
    239 H239       -4.7985  -20.0922  -57.1989 H         1 UNK         0.0600 
    240 H240       -0.9511  -20.7410  -55.4094 H         1 UNK         0.3000 
    241 H241        0.3234  -23.0541  -56.5315 H         1 UNK         0.0600 
    242 H242        0.8460  -19.6543  -57.3139 H         1 UNK         0.3800 
    243 H243        2.3585  -19.9356  -58.1424 H         1 UNK         0.3800 
    244 H244        0.2519  -22.7630  -54.1185 H         1 UNK         0.0800 
    245 H245        1.9038  -22.8825  -54.6535 H         1 UNK         0.0800 
    246 H246        0.9167  -21.9944  -51.8623 H         1 UNK         0.0800 
    247 H247        2.6389  -21.8544  -52.1227 H         1 UNK         0.0800 
@<TRIPOS>BOND
     1    1    2 1    
     2    1  127 1    
     3    1  128 1    
     4    1  129 1    
     5    2    3 2    
     6    2    4 am   BACKBONE|DICT|INTERRES
     7    4    5 1    
     8    4  130 1    
     9    5    6 1    
    10    5   65 1    
    11    5  131 1    
    12    6    7 1    
    13    6  132 1    
    14    6  133 1    
    15    7    8 1    
    16    8    9 1    
    17    8  134 1    
    18    8  135 1    
    19    9   10 ar   
    20    9   14 ar   
    21   10   11 ar   
    22   10  136 1    
    23   11   12 ar   
    24   11  126 1    
    25   12   13 ar   
    26   12  137 1    
    27   13   14 ar   
    28   13   15 1    
    29   14  138 1    
    30   15   16 1    
    31   15  139 1    
    32   15  140 1    
    33   16   17 1    
    34   17   18 1    
    35   17  141 1    
    36   17  142 1    
    37   18   19 1    
    38   18   67 1    
    39   18  143 1    
    40   19   20 am   BACKBONE|DICT|INTERRES
    41   19  144 1    
    42   20   21 2    
    43   20   22 1    
    44   22   23 1    
    45   22   24 1    
    46   22  145 1    
    47   23  146 1    
    48   23  147 1    
    49   23  148 1    
    50   24   25 am   BACKBONE|DICT|INTERRES
    51   24  149 1    
    52   25   26 2    
    53   25   27 1    
    54   27   28 1    
    55   27   29 1    
    56   27  150 1    
    57   28  151 1    
    58   28  152 1    
    59   28  153 1    
    60   29   30 am   BACKBONE|DICT|INTERRES
    61   29  154 1    
    62   30   31 2    
    63   30   32 1    
    64   32   33 1    
    65   32   34 1    
    66   32  155 1    
    67   33  156 1    
    68   33  157 1    
    69   33  158 1    
    70   34   35 am   BACKBONE|DICT|INTERRES
    71   34  159 1    
    72   35   36 2    
    73   35   37 1    
    74   37   38 1    
    75   37   39 1    
    76   37  160 1    
    77   38  161 1    
    78   38  162 1    
    79   38  163 1    
    80   39   40 am   BACKBONE|DICT|INTERRES
    81   39  164 1    
    82   40   41 2    
    83   40   42 1    
    84   42   43 1    
    85   42   44 1    
    86   42  165 1    
    87   43  166 1    
    88   43  167 1    
    89   43  168 1    
    90   44   45 am   BACKBONE|DICT|INTERRES
    91   44  169 1    
    92   45   46 2    
    93   45   47 1    
    94   47   48 1    
    95   47   49 1    
    96   47  170 1    
    97   48  171 1    
    98   48  172 1    
    99   48  173 1    
   100   49   50 am   BACKBONE|DICT|INTERRES
   101   49  174 1    
   102   50   51 2    
   103   50   52 1    
   104   52   53 1    
   105   52   54 1    
   106   52  175 1    
   107   53  176 1    
   108   53  177 1    
   109   53  178 1    
   110   54   55 am   BACKBONE|DICT|INTERRES
   111   54  179 1    
   112   55   56 2    
   113   55   57 1    
   114   57   58 1    
   115   57   59 1    
   116   57  180 1    
   117   58  181 1    
   118   58  182 1    
   119   58  183 1    
   120   59   60 am   BACKBONE|DICT|INTERRES
   121   59  184 1    
   122   60   61 2    
   123   60   62 1    
   124   62   63 1    
   125   62   64 1    
   126   62  185 1    
   127   63  186 1    
   128   63  187 1    
   129   63  188 1    
   130   64   65 am   BACKBONE|DICT|INTERRES
   131   64  189 1    
   132   65   66 2    
   133   67   68 2    
   134   67   69 am   BACKBONE|DICT|INTERRES
   135   69   70 1    
   136   69  190 1    
   137   70   71 1    
   138   70   72 1    
   139   70  191 1    
   140   71  192 1    
   141   71  193 1    
   142   71  194 1    
   143   72   73 2    
   144   72   74 am   BACKBONE|DICT|INTERRES
   145   74   75 1    
   146   74  195 1    
   147   75   76 1    
   148   75   77 1    
   149   75  196 1    
   150   76  197 1    
   151   76  198 1    
   152   76  199 1    
   153   77   78 2    
   154   77   79 am   BACKBONE|DICT|INTERRES
   155   79   80 1    
   156   79  200 1    
   157   80   81 1    
   158   80   82 1    
   159   80  201 1    
   160   81  202 1    
   161   81  203 1    
   162   81  204 1    
   163   82   83 2    
   164   82   84 am   BACKBONE|DICT|INTERRES
   165   84   85 1    
   166   84  205 1    
   167   85   86 1    
   168   85   87 1    
   169   85  206 1    
   170   86  207 1    
   171   86  208 1    
   172   86  209 1    
   173   87   88 2    
   174   87   89 am   BACKBONE|DICT|INTERRES
   175   89   90 1    
   176   89  210 1    
   177   90   91 1    
   178   90   92 1    
   179   90  211 1    
   180   91  212 1    
   181   91  213 1    
   182   91  214 1    
   183   92   93 2    
   184   92   94 am   BACKBONE|DICT|INTERRES
   185   94   95 1    
   186   94  215 1    
   187   95   96 1    
   188   95   97 1    
   189   95  216 1    
   190   96  217 1    
   191   96  218 1    
   192   96  219 1    
   193   97   98 2    
   194   97   99 am   BACKBONE|DICT|INTERRES
   195   99  100 1    
   196   99  220 1    
   197  100  101 1    
   198  100  102 1    
   199  100  221 1    
   200  101  222 1    
   201  101  223 1    
   202  101  224 1    
   203  102  103 2    
   204  102  104 am   BACKBONE|DICT|INTERRES
   205  104  105 1    
   206  104  225 1    
   207  105  106 1    
   208  105  107 1    
   209  105  226 1    
   210  106  227 1    
   211  106  228 1    
   212  106  229 1    
   213  107  108 2    
   214  107  109 am   BACKBONE|DICT|INTERRES
   215  109  110 1    
   216  109  230 1    
   217  110  111 1    
   218  110  112 1    
   219  110  231 1    
   220  111  232 1    
   221  111  233 1    
   222  111  234 1    
   223  112  113 2    
   224  112  114 am   BACKBONE|DICT|INTERRES
   225  114  115 1    
   226  114  235 1    
   227  115  116 1    
   228  115  117 1    
   229  115  236 1    
   230  116  237 1    
   231  116  238 1    
   232  116  239 1    
   233  117  118 2    
   234  117  119 am   BACKBONE|DICT|INTERRES
   235  119  120 1    
   236  119  240 1    
   237  120  121 1    
   238  120  124 1    
   239  120  241 1    
   240  121  122 am   BACKBONE|DICT|INTERRES
   241  121  123 2    
   242  122  242 1    
   243  122  243 1    
   244  124  125 1    
   245  124  244 1    
   246  124  245 1    
   247  125  126 1    
   248  126  246 1    
   249  126  247 1    
@<TRIPOS>SUBSTRUCTURE
     1 UNK         1 GROUP             0       ****    0 ROOT    
