@<TRIPOS>MOLECULE
3R540
247   249    1
SMALL
USER_CHARGES


@<TRIPOS>ATOM
      1 CA          4.4959  -17.1003  -43.3319 C.3       0 UNK        -0.1800 
      2 C           3.9570  -16.2088  -44.4407 C.2       0 UNK         0.5000 
      3 O           2.8635  -15.6595  -44.3133 O.2       0 UNK        -0.5000 
      4 N           4.7239  -16.0454  -45.5254 N.am      1 UNK        -0.5000 
      5 CA          4.3945  -15.2191  -46.6957 C.3       1 UNK         0.1400 
      6 C6          5.1564  -15.6907  -47.9623 C.3       23 UNK        -0.0398 
      7 S7          4.7075  -17.4018  -48.4240 S.3       23 UNK        -0.2404 
      8 C8          3.8930  -17.1761  -50.0386 C.3       23 UNK        -0.0205 
      9 C9          2.7804  -18.1946  -50.2299 C.ar      23 UNK        -0.0193 
     10 C10         1.4527  -17.8226  -50.0103 C.ar      23 UNK        -0.1150 
     11 C11         0.4177  -18.7509  -50.1335 C.ar      23 UNK        -0.0193 
     12 C12         0.7269  -20.0734  -50.4719 C.ar      23 UNK        -0.1150 
     13 C13         2.0493  -20.4587  -50.7182 C.ar      23 UNK        -0.0193 
     14 C14         3.0713  -19.5086  -50.6076 C.ar      23 UNK        -0.1150 
     15 C15         2.3596  -21.9070  -51.0884 C.3       23 UNK        -0.0205 
     16 S16         3.6715  -22.6806  -50.0737 S.3       23 UNK        -0.2404 
     17 C17         3.1866  -22.2463  -48.3664 C.3       23 UNK        -0.0398 
     18 CA          2.4011  -23.3313  -47.5927 C.3       11 UNK         0.1400 
     19 N           2.2784  -22.9244  -46.1931 N.am      11 UNK        -0.5000 
     20 C           1.5928  -23.5309  -45.2160 C.2       10 UNK         0.5000 
     21 O           1.0702  -24.6385  -45.3288 O.2       10 UNK        -0.5000 
     22 CA          1.4107  -22.7219  -43.9142 C.3       10 UNK         0.1400 
     23 CB          2.3604  -23.2372  -42.8234 C.3       10 UNK        -0.1800 
     24 N           1.6195  -21.2772  -44.0930 N.am      10 UNK        -0.5000 
     25 C           0.8726  -20.4803  -44.8721 C.2       9 UNK         0.5000 
     26 O          -0.1214  -20.8674  -45.4898 O.2       9 UNK        -0.5000 
     27 CA          1.3691  -19.0364  -45.0484 C.3       9 UNK         0.1400 
     28 CB          1.6104  -18.7095  -46.5303 C.3       9 UNK        -0.1800 
     29 N           0.4298  -18.0798  -44.4693 N.am      9 UNK        -0.5000 
     30 C           0.3463  -17.8438  -43.1522 C.2       8 UNK         0.5000 
     31 O           1.0299  -18.4363  -42.3152 O.2       8 UNK        -0.5000 
     32 CA         -0.6395  -16.7658  -42.6674 C.3       8 UNK         0.1400 
     33 CB          0.0693  -15.4113  -42.5144 C.3       8 UNK        -0.1800 
     34 N          -1.8172  -16.5959  -43.5162 N.am      8 UNK        -0.5000 
     35 C          -2.8489  -17.4502  -43.5554 C.2       7 UNK         0.5000 
     36 O          -2.8654  -18.5259  -42.9561 O.2       7 UNK        -0.5000 
     37 CA         -4.0851  -17.0235  -44.3647 C.3       7 UNK         0.1400 
     38 CB         -5.0120  -16.1552  -43.4994 C.3       7 UNK        -0.1800 
     39 N          -3.7155  -16.2682  -45.5592 N.am      7 UNK        -0.5000 
     40 C          -3.8401  -16.7193  -46.8140 C.2       6 UNK         0.5000 
     41 O          -4.3238  -17.8116  -47.1082 O.2       6 UNK        -0.5000 
     42 CA         -3.3251  -15.7946  -47.9360 C.3       6 UNK         0.1400 
     43 CB         -4.4335  -14.8202  -48.3626 C.3       6 UNK        -0.1800 
     44 N          -2.1389  -15.0151  -47.5721 N.am      6 UNK        -0.5000 
     45 C          -0.9885  -15.5072  -47.0912 C.2       5 UNK         0.5000 
     46 O          -0.7721  -16.7030  -46.9115 O.2       5 UNK        -0.5000 
     47 CA          0.0918  -14.4852  -46.6957 C.3       5 UNK         0.1400 
     48 CB          0.9655  -14.1798  -47.9208 C.3       5 UNK        -0.1800 
     49 N          -0.4005  -13.2229  -46.1225 N.am      5 UNK        -0.5000 
     50 C          -1.3224  -13.0753  -45.1554 C.2       4 UNK         0.5000 
     51 O          -1.9681  -14.0126  -44.6812 O.2       4 UNK        -0.5000 
     52 CA         -1.5571  -11.6481  -44.6226 C.3       4 UNK         0.1400 
     53 CB         -2.0552  -11.6533  -43.1656 C.3       4 UNK        -0.1800 
     54 N          -0.3348  -10.8456  -44.6955 N.am      4 UNK        -0.5000 
     55 C          -0.1423   -9.7783  -45.4813 C.2       3 UNK         0.5000 
     56 O          -0.9891   -9.3388  -46.2597 O.2       3 UNK        -0.5000 
     57 CA          1.2344   -9.0854  -45.3898 C.3       3 UNK         0.1400 
     58 CB          1.1518   -7.8505  -44.4793 C.3       3 UNK        -0.1800 
     59 N           2.3085   -9.9608  -44.9058 N.am      3 UNK        -0.5000 
     60 C           2.7956  -11.0122  -45.5786 C.2       2 UNK         0.5000 
     61 O           2.3892  -11.3288  -46.6973 O.2       2 UNK        -0.5000 
     62 CA          3.8978  -11.8432  -44.8854 C.3       2 UNK         0.1400 
     63 CB          3.7437  -11.8780  -43.3517 C.3       2 UNK        -0.1800 
     64 N           3.8971  -13.2226  -45.3673 N.am      2 UNK        -0.5000 
     65 C           4.6009  -13.7133  -46.3938 C.2       1 UNK         0.5000 
     66 O           5.3961  -13.0451  -47.0573 O.2       1 UNK        -0.5000 
     67 C           1.0295  -23.6185  -48.2460 C.2       11 UNK         0.5000 
     68 O           0.9019  -24.6129  -48.9593 O.2       11 UNK        -0.5000 
     69 N           0.0184  -22.7809  -47.9612 N.am      12 UNK        -0.5000 
     70 CA         -1.3435  -22.9526  -48.4707 C.3       12 UNK         0.1400 
     71 CB         -2.1762  -21.6995  -48.1718 C.3       12 UNK        -0.1800 
     72 C          -2.0297  -24.2019  -47.8969 C.2       12 UNK         0.5000 
     73 O          -2.6754  -24.9342  -48.6445 O.2       12 UNK        -0.5000 
     74 N          -1.8415  -24.4455  -46.5926 N.am      13 UNK        -0.5000 
     75 CA         -2.3509  -25.6247  -45.8931 C.3       13 UNK         0.1400 
     76 CB         -2.2143  -25.4275  -44.3756 C.3       13 UNK        -0.1800 
     77 C          -1.6527  -26.9172  -46.3512 C.2       13 UNK         0.5000 
     78 O          -2.3247  -27.9300  -46.5447 O.2       13 UNK        -0.5000 
     79 N          -0.3304  -26.8460  -46.5606 N.am      14 UNK        -0.5000 
     80 CA          0.4967  -27.9333  -47.0875 C.3       14 UNK         0.1400 
     81 CB          1.9787  -27.5420  -46.9849 C.3       14 UNK        -0.1800 
     82 C           0.1297  -28.3165  -48.5341 C.2       14 UNK         0.5000 
     83 O           0.0797  -29.5045  -48.8545 O.2       14 UNK        -0.5000 
     84 N          -0.1513  -27.3077  -49.3702 N.am      15 UNK        -0.5000 
     85 CA         -0.6237  -27.4691  -50.7473 C.3       15 UNK         0.1400 
     86 CB         -0.4131  -26.1443  -51.4987 C.3       15 UNK        -0.1800 
     87 C          -2.1016  -27.9006  -50.8455 C.2       15 UNK         0.5000 
     88 O          -2.5239  -28.3440  -51.9141 O.2       15 UNK        -0.5000 
     89 N          -2.8578  -27.7354  -49.7493 N.am      16 UNK        -0.5000 
     90 CA         -4.3118  -27.8908  -49.6282 C.3       16 UNK         0.1400 
     91 CB         -4.7338  -29.3609  -49.8299 C.3       16 UNK        -0.1800 
     92 C          -5.0787  -26.9004  -50.5322 C.2       16 UNK         0.5000 
     93 O          -6.0966  -27.2553  -51.1304 O.2       16 UNK        -0.5000 
     94 N          -4.5539  -25.6738  -50.6239 N.am      17 UNK        -0.5000 
     95 CA         -5.0924  -24.5751  -51.4151 C.3       17 UNK         0.1400 
     96 CB         -3.9167  -23.7234  -51.9221 C.3       17 UNK        -0.1800 
     97 C          -6.0433  -23.7138  -50.5699 C.2       17 UNK         0.5000 
     98 O          -5.8768  -23.6148  -49.3512 O.2       17 UNK        -0.5000 
     99 N          -6.9999  -23.0675  -51.2446 N.am      18 UNK        -0.5000 
    100 CA        -7.8386  -22.0168  -50.6712 C.3       18 UNK         0.1400 
    101 CB        -9.0864  -21.8428  -51.5515 C.3       18 UNK        -0.1800 
    102 C         -7.0553  -20.6949  -50.5961 C.2       18 UNK         0.5000 
    103 O         -6.1768  -20.4604  -51.4282 O.2       18 UNK        -0.5000 
    104 N         -7.4232  -19.8256  -49.6460 N.am      19 UNK        -0.5000 
    105 CA        -6.8082  -18.5078  -49.4414 C.3       19 UNK         0.1400 
    106 CB        -7.4572  -17.8349  -48.2220 C.3       19 UNK        -0.1800 
    107 C         -6.8976  -17.5895  -50.6761 C.2       19 UNK         0.5000 
    108 O         -5.9576  -16.8491  -50.9640 O.2       19 UNK        -0.5000 
    109 N         -8.0038  -17.7033  -51.4228 N.am      20 UNK        -0.5000 
    110 CA        -8.2589  -16.9837  -52.6715 C.3       20 UNK         0.1400 
    111 CB        -9.7160  -17.2335  -53.0909 C.3       20 UNK        -0.1800 
    112 C         -7.2982  -17.3462  -53.8243 C.2       20 UNK         0.5000 
    113 O         -7.2004  -16.5767  -54.7810 O.2       20 UNK        -0.5000 
    114 N         -6.6113  -18.4945  -53.7293 N.am      21 UNK        -0.5000 
    115 CA        -5.6553  -18.9630  -54.7324 C.3       21 UNK         0.1400 
    116 CB        -5.5401  -20.4938  -54.6454 C.3       21 UNK        -0.1800 
    117 C         -4.2645  -18.3119  -54.6011 C.2       21 UNK         0.5000 
    118 O         -3.4747  -18.4224  -55.5406 O.2       21 UNK        -0.5000 
    119 N         -3.9696  -17.6671  -53.4633 N.am      22 UNK        -0.5000 
    120 CA        -2.6429  -17.0998  -53.1678 C.3       22 UNK         0.1400 
    121 C         -2.6406  -15.7894  -52.3324 C.2       22 UNK         0.5000 
    122 N         -3.7439  -15.3512  -51.7424 N.am      22 UNK        -0.7600 
    123 O         -1.6111  -15.1261  -52.2458 O.2       22 UNK        -0.5000 
    124 C124       -1.6607  -18.1654  -52.6155 C.3       23 UNK        -0.0398 
    125 S125       -2.2263  -18.9600  -51.0684 S.3       23 UNK        -0.2404 
    126 C126       -1.0178  -18.3021  -49.8719 C.3       23 UNK        -0.0205 
    127 H127        5.3220  -17.7210  -43.6794 H         1 UNK         0.0600 
    128 H128        3.7116  -17.7569  -42.9570 H         1 UNK         0.0600 
    129 H129        4.8500  -16.4887  -42.5023 H         1 UNK         0.0600 
    130 H130        5.6196  -16.5099  -45.5667 H         1 UNK         0.3000 
    131 H131        3.3307  -15.3469  -46.9001 H         1 UNK         0.0600 
    132 H132        6.2343  -15.6495  -47.7974 H         1 UNK         0.0800 
    133 H133        4.9567  -15.0246  -48.8030 H         1 UNK         0.0800 
    134 H134        3.4835  -16.1683  -50.1198 H         1 UNK         0.0800 
    135 H135        4.6326  -17.2740  -50.8345 H         1 UNK         0.0800 
    136 H136        1.2217  -16.8063  -49.7323 H         1 UNK         0.1150 
    137 H137       -0.0667  -20.8027  -50.5503 H         1 UNK         0.1150 
    138 H138        4.0975  -19.7998  -50.7827 H         1 UNK         0.1150 
    139 H139        1.4612  -22.5218  -51.0154 H         1 UNK         0.0800 
    140 H140        2.6638  -21.9407  -52.1351 H         1 UNK         0.0800 
    141 H141        2.6409  -21.3037  -48.3499 H         1 UNK         0.0800 
    142 H142        4.1190  -22.0399  -47.8389 H         1 UNK         0.0800 
    143 H143        2.9774  -24.2582  -47.6091 H         1 UNK         0.0600 
    144 H144        2.6816  -22.0289  -45.9646 H         1 UNK         0.3000 
    145 H145        0.3831  -22.8742  -43.5780 H         1 UNK         0.0600 
    146 H146        2.1879  -22.7258  -41.8761 H         1 UNK         0.0600 
    147 H147        2.2105  -24.3034  -42.6471 H         1 UNK         0.0600 
    148 H148        3.4060  -23.0937  -43.0985 H         1 UNK         0.0600 
    149 H149        2.4009  -20.8755  -43.5944 H         1 UNK         0.3000 
    150 H150        2.3291  -18.9285  -44.5411 H         1 UNK         0.0600 
    151 H151        2.4013  -19.3338  -46.9457 H         1 UNK         0.0600 
    152 H152        1.9183  -17.6720  -46.6627 H         1 UNK         0.0600 
    153 H153        0.7165  -18.8723  -47.1330 H         1 UNK         0.0600 
    154 H154       -0.1772  -17.5890  -45.1166 H         1 UNK         0.3000 
    155 H155       -0.9823  -17.0696  -41.6759 H         1 UNK         0.0600 
    156 H156       -0.5891  -14.6695  -42.0622 H         1 UNK         0.0600 
    157 H157        0.9506  -15.4982  -41.8774 H         1 UNK         0.0600 
    158 H158        0.4006  -15.0222  -43.4766 H         1 UNK         0.0600 
    159 H159       -1.8866  -15.7103  -44.0103 H         1 UNK         0.3000 
    160 H160       -4.6293  -17.9312  -44.6338 H         1 UNK         0.0600 
    161 H161       -4.5270  -15.2261  -43.1964 H         1 UNK         0.0600 
    162 H162       -5.3093  -16.6833  -42.5924 H         1 UNK         0.0600 
    163 H163       -5.9234  -15.8965  -44.0387 H         1 UNK         0.0600 
    164 H164       -3.2620  -15.3734  -45.4084 H         1 UNK         0.3000 
    165 H165       -3.0659  -16.4189  -48.7924 H         1 UNK         0.0600 
    166 H166       -4.0961  -14.1555  -49.1569 H         1 UNK         0.0600 
    167 H167       -5.3024  -15.3588  -48.7398 H         1 UNK         0.0600 
    168 H168       -4.7669  -14.2000  -47.5295 H         1 UNK         0.0600 
    169 H169       -2.2170  -14.0135  -47.6639 H         1 UNK         0.3000 
    170 H170        0.7196  -14.9571  -45.9379 H         1 UNK         0.0600 
    171 H171        1.8185  -13.5592  -47.6612 H         1 UNK         0.0600 
    172 H172        1.3674  -15.0958  -48.3504 H         1 UNK         0.0600 
    173 H173        0.4025  -13.6669  -48.7016 H         1 UNK         0.0600 
    174 H174        0.0750  -12.3889  -46.4394 H         1 UNK         0.3000 
    175 H175       -2.3411  -11.2106  -45.2434 H         1 UNK         0.0600 
    176 H176       -3.0032  -12.1851  -43.0737 H         1 UNK         0.0600 
    177 H177       -1.3404  -12.1362  -42.4982 H         1 UNK         0.0600 
    178 H178       -2.2197  -10.6386  -42.8029 H         1 UNK         0.0600 
    179 H179        0.4276  -11.1407  -44.1030 H         1 UNK         0.3000 
    180 H180        1.4982   -8.7503  -46.3952 H         1 UNK         0.0600 
    181 H181        0.9086   -8.1236  -43.4517 H         1 UNK         0.0600 
    182 H182        0.3821   -7.1596  -44.8261 H         1 UNK         0.0600 
    183 H183        2.0950   -7.3039  -44.4685 H         1 UNK         0.0600 
    184 H184        2.6872   -9.7474  -43.9943 H         1 UNK         0.3000 
    185 H185        4.8555  -11.3761  -45.1226 H         1 UNK         0.0600 
    186 H186        4.4951  -12.5258  -42.8993 H         1 UNK         0.0600 
    187 H187        3.8759  -10.8899  -42.9100 H         1 UNK         0.0600 
    188 H188        2.7637  -12.2526  -43.0525 H         1 UNK         0.0600 
    189 H189        3.2887  -13.8732  -44.8783 H         1 UNK         0.3000 
    190 H190        0.1651  -22.0166  -47.3123 H         1 UNK         0.3000 
    191 H191       -1.2851  -23.0701  -49.5549 H         1 UNK         0.0600 
    192 H192       -2.2827  -21.5266  -47.1003 H         1 UNK         0.0600 
    193 H193       -3.1785  -21.7859  -48.5941 H         1 UNK         0.0600 
    194 H194       -1.7162  -20.8161  -48.6070 H         1 UNK         0.0600 
    195 H195       -1.2580  -23.8156  -46.0620 H         1 UNK         0.3000 
    196 H196       -3.4136  -25.7206  -46.1264 H         1 UNK         0.0600 
    197 H197       -2.6309  -26.2784  -43.8351 H         1 UNK         0.0600 
    198 H198       -2.7504  -24.5383  -44.0437 H         1 UNK         0.0600 
    199 H199       -1.1732  -25.3251  -44.0694 H         1 UNK         0.0600 
    200 H200        0.1507  -25.9840  -46.3174 H         1 UNK         0.3000 
    201 H201        0.3324  -28.8108  -46.4588 H         1 UNK         0.0600 
    202 H202        2.2582  -27.3224  -45.9542 H         1 UNK         0.0600 
    203 H203        2.2054  -26.6619  -47.5868 H         1 UNK         0.0600 
    204 H204        2.6213  -28.3519  -47.3320 H         1 UNK         0.0600 
    205 H205       -0.0101  -26.3530  -49.0523 H         1 UNK         0.3000 
    206 H206       -0.0216  -28.2389  -51.2340 H         1 UNK         0.0600 
    207 H207       -0.9867  -25.3330  -51.0484 H         1 UNK         0.0600 
    208 H208       -0.7254  -26.2283  -52.5404 H         1 UNK         0.0600 
    209 H209        0.6372  -25.8521  -51.4973 H         1 UNK         0.0600 
    210 H210       -2.4035  -27.3390  -48.9376 H         1 UNK         0.3000 
    211 H211       -4.5586  -27.6162  -48.6016 H         1 UNK         0.0600 
    212 H212       -4.5787  -29.6926  -50.8568 H         1 UNK         0.0600 
    213 H213       -5.7909  -29.4974  -49.5997 H         1 UNK         0.0600 
    214 H214       -4.1709  -30.0246  -49.1735 H         1 UNK         0.0600 
    215 H215       -3.7816  -25.4372  -50.0036 H         1 UNK         0.3000 
    216 H216       -5.6351  -24.9712  -52.2761 H         1 UNK         0.0600 
    217 H217       -3.3487  -23.2910  -51.0973 H         1 UNK         0.0600 
    218 H218       -4.2687  -22.8990  -52.5433 H         1 UNK         0.0600 
    219 H219       -3.2303  -24.3173  -52.5260 H         1 UNK         0.0600 
    220 H220       -7.0391  -23.1659  -52.2484 H         1 UNK         0.3000 
    221 H221       -8.1507  -22.3085  -49.6661 H         1 UNK         0.0600 
    222 H222       -9.6519  -22.7722  -51.6215 H         1 UNK         0.0600 
    223 H223       -8.8261  -21.5314  -52.5643 H         1 UNK         0.0600 
    224 H224       -9.7559  -21.0874  -51.1383 H         1 UNK         0.0600 
    225 H225       -8.1608  -20.0811  -49.0053 H         1 UNK         0.3000 
    226 H226       -5.7487  -18.6657  -49.2304 H         1 UNK         0.0600 
    227 H227       -7.3046  -18.4270  -47.3194 H         1 UNK         0.0600 
    228 H228       -7.0220  -16.8527  -48.0368 H         1 UNK         0.0600 
    229 H229       -8.5304  -17.6975  -48.3590 H         1 UNK         0.0600 
    230 H230       -8.7172  -18.3499  -51.1209 H         1 UNK         0.3000 
    231 H231       -8.1368  -15.9170  -52.4727 H         1 UNK         0.0600 
    232 H232       -9.9030  -18.2911  -53.2819 H         1 UNK         0.0600 
    233 H233       -9.9609  -16.6870  -54.0027 H         1 UNK         0.0600 
    234 H234      -10.4117  -16.9022  -52.3197 H         1 UNK         0.0600 
    235 H235       -6.7013  -19.0661  -52.8966 H         1 UNK         0.3000 
    236 H236       -6.0404  -18.7163  -55.7241 H         1 UNK         0.0600 
    237 H237       -6.5196  -20.9710  -54.6806 H         1 UNK         0.0600 
    238 H238       -4.9564  -20.8863  -55.4788 H         1 UNK         0.0600 
    239 H239       -5.0428  -20.8085  -53.7281 H         1 UNK         0.0600 
    240 H240       -4.6579  -17.6190  -52.7246 H         1 UNK         0.3000 
    241 H241       -2.2246  -16.7669  -54.1197 H         1 UNK         0.0600 
    242 H242       -3.7008  -14.4751  -51.2504 H         1 UNK         0.3800 
    243 H243       -4.5911  -15.9091  -51.6740 H         1 UNK         0.3800 
    244 H244       -0.6683  -17.7331  -52.4786 H         1 UNK         0.0800 
    245 H245       -1.5275  -18.9541  -53.3567 H         1 UNK         0.0800 
    246 H246       -1.0812  -17.2132  -49.8916 H         1 UNK         0.0800 
    247 H247       -1.3048  -18.6008  -48.8638 H         1 UNK         0.0800 
@<TRIPOS>BOND
     1    1    2 1    
     2    1  127 1    
     3    1  128 1    
     4    1  129 1    
     5    2    3 2    
     6    2    4 am   BACKBONE|DICT|INTERRES
     7    4    5 1    
     8    4  130 1    
     9    5    6 1    
    10    5   65 1    
    11    5  131 1    
    12    6    7 1    
    13    6  132 1    
    14    6  133 1    
    15    7    8 1    
    16    8    9 1    
    17    8  134 1    
    18    8  135 1    
    19    9   10 ar   
    20    9   14 ar   
    21   10   11 ar   
    22   10  136 1    
    23   11   12 ar   
    24   11  126 1    
    25   12   13 ar   
    26   12  137 1    
    27   13   14 ar   
    28   13   15 1    
    29   14  138 1    
    30   15   16 1    
    31   15  139 1    
    32   15  140 1    
    33   16   17 1    
    34   17   18 1    
    35   17  141 1    
    36   17  142 1    
    37   18   19 1    
    38   18   67 1    
    39   18  143 1    
    40   19   20 am   BACKBONE|DICT|INTERRES
    41   19  144 1    
    42   20   21 2    
    43   20   22 1    
    44   22   23 1    
    45   22   24 1    
    46   22  145 1    
    47   23  146 1    
    48   23  147 1    
    49   23  148 1    
    50   24   25 am   BACKBONE|DICT|INTERRES
    51   24  149 1    
    52   25   26 2    
    53   25   27 1    
    54   27   28 1    
    55   27   29 1    
    56   27  150 1    
    57   28  151 1    
    58   28  152 1    
    59   28  153 1    
    60   29   30 am   BACKBONE|DICT|INTERRES
    61   29  154 1    
    62   30   31 2    
    63   30   32 1    
    64   32   33 1    
    65   32   34 1    
    66   32  155 1    
    67   33  156 1    
    68   33  157 1    
    69   33  158 1    
    70   34   35 am   BACKBONE|DICT|INTERRES
    71   34  159 1    
    72   35   36 2    
    73   35   37 1    
    74   37   38 1    
    75   37   39 1    
    76   37  160 1    
    77   38  161 1    
    78   38  162 1    
    79   38  163 1    
    80   39   40 am   BACKBONE|DICT|INTERRES
    81   39  164 1    
    82   40   41 2    
    83   40   42 1    
    84   42   43 1    
    85   42   44 1    
    86   42  165 1    
    87   43  166 1    
    88   43  167 1    
    89   43  168 1    
    90   44   45 am   BACKBONE|DICT|INTERRES
    91   44  169 1    
    92   45   46 2    
    93   45   47 1    
    94   47   48 1    
    95   47   49 1    
    96   47  170 1    
    97   48  171 1    
    98   48  172 1    
    99   48  173 1    
   100   49   50 am   BACKBONE|DICT|INTERRES
   101   49  174 1    
   102   50   51 2    
   103   50   52 1    
   104   52   53 1    
   105   52   54 1    
   106   52  175 1    
   107   53  176 1    
   108   53  177 1    
   109   53  178 1    
   110   54   55 am   BACKBONE|DICT|INTERRES
   111   54  179 1    
   112   55   56 2    
   113   55   57 1    
   114   57   58 1    
   115   57   59 1    
   116   57  180 1    
   117   58  181 1    
   118   58  182 1    
   119   58  183 1    
   120   59   60 am   BACKBONE|DICT|INTERRES
   121   59  184 1    
   122   60   61 2    
   123   60   62 1    
   124   62   63 1    
   125   62   64 1    
   126   62  185 1    
   127   63  186 1    
   128   63  187 1    
   129   63  188 1    
   130   64   65 am   BACKBONE|DICT|INTERRES
   131   64  189 1    
   132   65   66 2    
   133   67   68 2    
   134   67   69 am   BACKBONE|DICT|INTERRES
   135   69   70 1    
   136   69  190 1    
   137   70   71 1    
   138   70   72 1    
   139   70  191 1    
   140   71  192 1    
   141   71  193 1    
   142   71  194 1    
   143   72   73 2    
   144   72   74 am   BACKBONE|DICT|INTERRES
   145   74   75 1    
   146   74  195 1    
   147   75   76 1    
   148   75   77 1    
   149   75  196 1    
   150   76  197 1    
   151   76  198 1    
   152   76  199 1    
   153   77   78 2    
   154   77   79 am   BACKBONE|DICT|INTERRES
   155   79   80 1    
   156   79  200 1    
   157   80   81 1    
   158   80   82 1    
   159   80  201 1    
   160   81  202 1    
   161   81  203 1    
   162   81  204 1    
   163   82   83 2    
   164   82   84 am   BACKBONE|DICT|INTERRES
   165   84   85 1    
   166   84  205 1    
   167   85   86 1    
   168   85   87 1    
   169   85  206 1    
   170   86  207 1    
   171   86  208 1    
   172   86  209 1    
   173   87   88 2    
   174   87   89 am   BACKBONE|DICT|INTERRES
   175   89   90 1    
   176   89  210 1    
   177   90   91 1    
   178   90   92 1    
   179   90  211 1    
   180   91  212 1    
   181   91  213 1    
   182   91  214 1    
   183   92   93 2    
   184   92   94 am   BACKBONE|DICT|INTERRES
   185   94   95 1    
   186   94  215 1    
   187   95   96 1    
   188   95   97 1    
   189   95  216 1    
   190   96  217 1    
   191   96  218 1    
   192   96  219 1    
   193   97   98 2    
   194   97   99 am   BACKBONE|DICT|INTERRES
   195   99  100 1    
   196   99  220 1    
   197  100  101 1    
   198  100  102 1    
   199  100  221 1    
   200  101  222 1    
   201  101  223 1    
   202  101  224 1    
   203  102  103 2    
   204  102  104 am   BACKBONE|DICT|INTERRES
   205  104  105 1    
   206  104  225 1    
   207  105  106 1    
   208  105  107 1    
   209  105  226 1    
   210  106  227 1    
   211  106  228 1    
   212  106  229 1    
   213  107  108 2    
   214  107  109 am   BACKBONE|DICT|INTERRES
   215  109  110 1    
   216  109  230 1    
   217  110  111 1    
   218  110  112 1    
   219  110  231 1    
   220  111  232 1    
   221  111  233 1    
   222  111  234 1    
   223  112  113 2    
   224  112  114 am   BACKBONE|DICT|INTERRES
   225  114  115 1    
   226  114  235 1    
   227  115  116 1    
   228  115  117 1    
   229  115  236 1    
   230  116  237 1    
   231  116  238 1    
   232  116  239 1    
   233  117  118 2    
   234  117  119 am   BACKBONE|DICT|INTERRES
   235  119  120 1    
   236  119  240 1    
   237  120  121 1    
   238  120  124 1    
   239  120  241 1    
   240  121  122 am   BACKBONE|DICT|INTERRES
   241  121  123 2    
   242  122  242 1    
   243  122  243 1    
   244  124  125 1    
   245  124  244 1    
   246  124  245 1    
   247  125  126 1    
   248  126  246 1    
   249  126  247 1    
@<TRIPOS>SUBSTRUCTURE
     1 UNK         1 GROUP             0       ****    0 ROOT    
