@<TRIPOS>MOLECULE
3R540
247   249    1
SMALL
USER_CHARGES


@<TRIPOS>ATOM
      1 CA         -2.5285  -13.3754  -47.8967 C.3       0 UNK        -0.1800 
      2 C          -1.2411  -12.9657  -48.5967 C.2       0 UNK         0.5000 
      3 O          -0.5827  -12.0218  -48.1581 O.2       0 UNK        -0.5000 
      4 N          -0.8577  -13.6826  -49.6632 N.am      1 UNK        -0.5000 
      5 CA          0.3592  -13.4346  -50.4588 C.3       1 UNK         0.1400 
      6 C6          0.3898  -14.2675  -51.7634 C.3       23 UNK        -0.0398 
      7 S7          0.3313  -16.0692  -51.4807 S.3       23 UNK        -0.2404 
      8 C8          2.0051  -16.5878  -51.9502 C.3       23 UNK        -0.0205 
      9 C9          2.1768  -18.0740  -51.6901 C.ar      23 UNK        -0.0193 
     10 C10         1.8892  -19.0072  -52.6911 C.ar      23 UNK        -0.1150 
     11 C11         2.0220  -20.3759  -52.4402 C.ar      23 UNK        -0.0193 
     12 C12         2.4357  -20.8069  -51.1756 C.ar      23 UNK        -0.1150 
     13 C13         2.7310  -19.8833  -50.1681 C.ar      23 UNK        -0.0193 
     14 C14         2.6067  -18.5167  -50.4362 C.ar      23 UNK        -0.1150 
     15 C15         3.2119  -20.3660  -48.8043 C.3       23 UNK        -0.0205 
     16 S16         2.2316  -19.7053  -47.4166 S.3       23 UNK        -0.2404 
     17 C17         0.6126  -20.5008  -47.6794 C.3       23 UNK        -0.0398 
     18 CA          0.4293  -21.7844  -46.8349 C.3       11 UNK         0.1400 
     19 N           0.4938  -21.5498  -45.3860 N.am      11 UNK        -0.5000 
     20 C           0.5231  -22.5225  -44.4619 C.2       10 UNK         0.5000 
     21 O           0.5735  -23.7202  -44.7395 O.2       10 UNK        -0.5000 
     22 CA          0.4207  -22.1000  -42.9846 C.3       10 UNK         0.1400 
     23 CB          1.7908  -21.7008  -42.4157 C.3       10 UNK        -0.1800 
     24 N          -0.5444  -21.0171  -42.7922 N.am      10 UNK        -0.5000 
     25 C          -1.8719  -21.1704  -42.9054 C.2       9 UNK         0.5000 
     26 O          -2.4164  -22.2585  -43.0929 O.2       9 UNK        -0.5000 
     27 CA         -2.7391  -19.8984  -42.8287 C.3       9 UNK         0.1400 
     28 CB         -3.1265  -19.5941  -41.3742 C.3       9 UNK        -0.1800 
     29 N          -2.0956  -18.7248  -43.4224 N.am      9 UNK        -0.5000 
     30 C          -1.7845  -18.6031  -44.7210 C.2       8 UNK         0.5000 
     31 O          -2.0659  -19.4477  -45.5694 O.2       8 UNK        -0.5000 
     32 CA         -0.9619  -17.3676  -45.1322 C.3       8 UNK         0.1400 
     33 CB         -1.8668  -16.1519  -45.3763 C.3       8 UNK        -0.1800 
     34 N           0.0694  -17.0262  -44.1516 N.am      8 UNK        -0.5000 
     35 C           1.0922  -17.8274  -43.8211 C.2       7 UNK         0.5000 
     36 O           1.2808  -18.9299  -44.3294 O.2       7 UNK        -0.5000 
     37 CA          2.0150  -17.3528  -42.6869 C.3       7 UNK         0.1400 
     38 CB          3.0354  -16.3191  -43.1823 C.3       7 UNK        -0.1800 
     39 N           1.2479  -16.7964  -41.5755 N.am      7 UNK        -0.5000 
     40 C           0.5119  -17.5317  -40.7308 C.2       6 UNK         0.5000 
     41 O           0.4432  -18.7600  -40.7737 O.2       6 UNK        -0.5000 
     42 CA         -0.3106  -16.7579  -39.6847 C.3       6 UNK         0.1400 
     43 CB          0.5369  -16.4663  -38.4374 C.3       6 UNK        -0.1800 
     44 N          -0.8487  -15.5014  -40.2099 N.am      6 UNK        -0.5000 
     45 C          -1.7896  -15.4235  -41.1612 C.2       5 UNK         0.5000 
     46 O          -2.3146  -16.4041  -41.6864 O.2       5 UNK        -0.5000 
     47 CA         -2.1719  -14.0118  -41.6378 C.3       5 UNK         0.1400 
     48 CB         -3.2063  -13.3817  -40.6933 C.3       5 UNK        -0.1800 
     49 N          -1.0197  -13.1156  -41.7704 N.am      5 UNK        -0.5000 
     50 C          -0.0188  -13.2979  -42.6404 C.2       4 UNK         0.5000 
     51 O           0.0762  -14.2771  -43.3847 O.2       4 UNK        -0.5000 
     52 CA          1.0671  -12.2199  -42.6836 C.3       4 UNK         0.1400 
     53 CB          2.2747  -12.6106  -41.8145 C.3       4 UNK        -0.1800 
     54 N           1.4674  -12.0611  -44.0753 N.am      4 UNK        -0.5000 
     55 C           2.0178  -10.9684  -44.6125 C.2       3 UNK         0.5000 
     56 O           2.3384   -9.9791  -43.9511 O.2       3 UNK        -0.5000 
     57 CA          2.1938  -10.9509  -46.1460 C.3       3 UNK         0.1400 
     58 CB          3.4622  -10.1938  -46.5934 C.3       3 UNK        -0.1800 
     59 N           2.1031  -12.2682  -46.7890 N.am      3 UNK        -0.5000 
     60 C           2.9809  -13.2833  -46.7216 C.2       2 UNK         0.5000 
     61 O           3.9909  -13.2680  -46.0181 O.2       2 UNK        -0.5000 
     62 CA          2.6906  -14.5340  -47.5833 C.3       2 UNK         0.1400 
     63 CB          2.3331  -15.7353  -46.6989 C.3       2 UNK        -0.1800 
     64 N           1.6094  -14.3446  -48.5482 N.am      2 UNK        -0.5000 
     65 C           1.6728  -13.5990  -49.6594 C.2       1 UNK         0.5000 
     66 O           2.6972  -13.0357  -50.0467 O.2       1 UNK        -0.5000 
     67 C          -0.8725  -22.5071  -47.2370 C.2       11 UNK         0.5000 
     68 O          -0.8178  -23.4408  -48.0335 O.2       11 UNK        -0.5000 
     69 N          -2.0062  -22.1076  -46.6419 N.am      12 UNK        -0.5000 
     70 CA         -3.3378  -22.6834  -46.8631 C.3       12 UNK         0.1400 
     71 CB         -4.3835  -21.8354  -46.1232 C.3       12 UNK        -0.1800 
     72 C          -3.4779  -24.1738  -46.4854 C.2       12 UNK         0.5000 
     73 O          -4.4363  -24.8140  -46.9189 O.2       12 UNK        -0.5000 
     74 N          -2.5355  -24.7096  -45.6971 N.am      13 UNK        -0.5000 
     75 CA         -2.4473  -26.1339  -45.3753 C.3       13 UNK         0.1400 
     76 CB         -1.6210  -26.3091  -44.0919 C.3       13 UNK        -0.1800 
     77 C          -1.8532  -26.9758  -46.5251 C.2       13 UNK         0.5000 
     78 O          -2.0444  -28.1931  -46.5315 O.2       13 UNK        -0.5000 
     79 N          -1.1412  -26.3372  -47.4648 N.am      14 UNK        -0.5000 
     80 CA         -0.5683  -26.9730  -48.6504 C.3       14 UNK         0.1400 
     81 CB          0.6870  -26.1915  -49.0762 C.3       14 UNK        -0.1800 
     82 C          -1.5885  -27.0355  -49.8031 C.2       14 UNK         0.5000 
     83 O          -2.6459  -26.4020  -49.7462 O.2       14 UNK        -0.5000 
     84 N          -1.2368  -27.7952  -50.8481 N.am      15 UNK        -0.5000 
     85 CA         -1.9913  -27.9003  -52.0982 C.3       15 UNK         0.1400 
     86 CB         -1.3770  -29.0206  -52.9522 C.3       15 UNK        -0.1800 
     87 C          -2.0116  -26.5734  -52.8841 C.2       15 UNK         0.5000 
     88 O          -1.1056  -25.7522  -52.7316 O.2       15 UNK        -0.5000 
     89 N          -3.0517  -26.3973  -53.7105 N.am      16 UNK        -0.5000 
     90 CA         -3.3500  -25.2542  -54.5896 C.3       16 UNK         0.1400 
     91 CB         -2.2054  -24.9866  -55.5869 C.3       16 UNK        -0.1800 
     92 C          -3.7614  -23.9544  -53.8687 C.2       16 UNK         0.5000 
     93 O          -4.4542  -23.1345  -54.4755 O.2       16 UNK        -0.5000 
     94 N          -3.3617  -23.7779  -52.6040 N.am      17 UNK        -0.5000 
     95 CA         -3.6744  -22.6404  -51.7374 C.3       17 UNK         0.1400 
     96 CB         -2.6216  -22.5760  -50.6213 C.3       17 UNK        -0.1800 
     97 C          -5.1195  -22.6992  -51.2023 C.2       17 UNK         0.5000 
     98 O          -5.3414  -22.7794  -49.9939 O.2       17 UNK        -0.5000 
     99 N          -6.0839  -22.6737  -52.1290 N.am      18 UNK        -0.5000 
    100 CA        -7.5222  -22.7209  -51.8628 C.3       18 UNK         0.1400 
    101 CB        -8.2403  -23.1444  -53.1539 C.3       18 UNK        -0.1800 
    102 C         -8.0971  -21.3901  -51.3360 C.2       18 UNK         0.5000 
    103 O         -9.2216  -21.3789  -50.8327 O.2       18 UNK        -0.5000 
    104 N         -7.3346  -20.2994  -51.4689 N.am      19 UNK        -0.5000 
    105 CA        -7.6832  -18.9566  -51.0179 C.3       19 UNK         0.1400 
    106 CB        -8.3133  -18.1759  -52.1902 C.3       19 UNK        -0.1800 
    107 C         -6.4337  -18.2844  -50.4192 C.2       19 UNK         0.5000 
    108 O         -5.5733  -18.9728  -49.8669 O.2       19 UNK        -0.5000 
    109 N         -6.3434  -16.9535  -50.5431 N.am      20 UNK        -0.5000 
    110 CA        -5.2373  -16.1199  -50.0572 C.3       20 UNK         0.1400 
    111 CB        -5.6814  -14.6488  -50.1037 C.3       20 UNK        -0.1800 
    112 C         -3.9079  -16.3065  -50.8210 C.2       20 UNK         0.5000 
    113 O         -2.8903  -15.7585  -50.3943 O.2       20 UNK        -0.5000 
    114 N         -3.9358  -17.0556  -51.9280 N.am      21 UNK        -0.5000 
    115 CA        -2.7848  -17.4330  -52.7339 C.3       21 UNK         0.1400 
    116 CB        -2.4902  -16.3274  -53.7643 C.3       21 UNK        -0.1800 
    117 C         -3.0645  -18.7773  -53.4174 C.2       21 UNK         0.5000 
    118 O         -4.2107  -19.2383  -53.4274 O.2       21 UNK        -0.5000 
    119 N         -2.0067  -19.3736  -53.9776 N.am      22 UNK        -0.5000 
    120 CA        -2.0696  -20.5852  -54.8037 C.3       22 UNK         0.1400 
    121 C         -2.8054  -20.3379  -56.1479 C.2       22 UNK         0.5000 
    122 N         -3.8104  -21.1417  -56.4668 N.am      22 UNK        -0.7600 
    123 O         -2.4457  -19.4475  -56.9143 O.2       22 UNK        -0.5000 
    124 C124       -0.6668  -21.1938  -55.0409 C.3       23 UNK        -0.0398 
    125 S125        0.0111  -21.9449  -53.5212 S.3       23 UNK        -0.2404 
    126 C126        1.7455  -21.3936  -53.5360 C.3       23 UNK        -0.0205 
    127 H127       -3.3459  -12.7243  -48.2053 H         1 UNK         0.0600 
    128 H128       -2.4143  -13.2893  -46.8162 H         1 UNK         0.0600 
    129 H129       -2.8005  -14.4058  -48.1228 H         1 UNK         0.0600 
    130 H130       -1.4379  -14.4589  -49.9749 H         1 UNK         0.3000 
    131 H131        0.3217  -12.3841  -50.7547 H         1 UNK         0.0600 
    132 H132       -0.4703  -14.0014  -52.3784 H         1 UNK         0.0800 
    133 H133        1.2649  -14.0132  -52.3642 H         1 UNK         0.0800 
    134 H134        2.7416  -16.0186  -51.3808 H         1 UNK         0.0800 
    135 H135        2.1782  -16.3628  -53.0037 H         1 UNK         0.0800 
    136 H136        1.5618  -18.6684  -53.6639 H         1 UNK         0.1150 
    137 H137        2.5365  -21.8656  -50.9811 H         1 UNK         0.1150 
    138 H138        2.8301  -17.7965  -49.6613 H         1 UNK         0.1150 
    139 H139        3.2063  -21.4558  -48.7510 H         1 UNK         0.0800 
    140 H140        4.2500  -20.0580  -48.6744 H         1 UNK         0.0800 
    141 H141        0.4952  -20.7196  -48.7423 H         1 UNK         0.0800 
    142 H142       -0.1618  -19.7716  -47.4393 H         1 UNK         0.0800 
    143 H143        1.2512  -22.4593  -47.0840 H         1 UNK         0.0600 
    144 H144        0.5345  -20.5818  -45.0797 H         1 UNK         0.3000 
    145 H145        0.0700  -22.9654  -42.4179 H         1 UNK         0.0600 
    146 H146        1.7126  -21.4068  -41.3688 H         1 UNK         0.0600 
    147 H147        2.4885  -22.5373  -42.4682 H         1 UNK         0.0600 
    148 H148        2.2382  -20.8723  -42.9627 H         1 UNK         0.0600 
    149 H149       -0.1686  -20.0939  -42.6184 H         1 UNK         0.3000 
    150 H150       -3.6565  -20.0908  -43.3883 H         1 UNK         0.0600 
    151 H151       -3.6241  -20.4491  -40.9149 H         1 UNK         0.0600 
    152 H152       -3.8137  -18.7498  -41.3178 H         1 UNK         0.0600 
    153 H153       -2.2533  -19.3564  -40.7664 H         1 UNK         0.0600 
    154 H154       -1.8923  -17.9517  -42.7956 H         1 UNK         0.3000 
    155 H155       -0.4563  -17.6053  -46.0705 H         1 UNK         0.0600 
    156 H156       -2.3919  -15.8527  -44.4690 H         1 UNK         0.0600 
    157 H157       -2.6179  -16.3698  -46.1366 H         1 UNK         0.0600 
    158 H158       -1.2877  -15.2967  -45.7246 H         1 UNK         0.0600 
    159 H159       -0.0016  -16.1099  -43.7163 H         1 UNK         0.3000 
    160 H160        2.5689  -18.2197  -42.3197 H         1 UNK         0.0600 
    161 H161        2.5527  -15.4546  -43.6387 H         1 UNK         0.0600 
    162 H162        3.6976  -16.7616  -43.9266 H         1 UNK         0.0600 
    163 H163        3.6642  -15.9620  -42.3667 H         1 UNK         0.0600 
    164 H164        1.2134  -15.7912  -41.5008 H         1 UNK         0.3000 
    165 H165       -1.1500  -17.3904  -39.3877 H         1 UNK         0.0600 
    166 H166       -0.0573  -15.9844  -37.6608 H         1 UNK         0.0600 
    167 H167        0.9369  -17.3885  -38.0138 H         1 UNK         0.0600 
    168 H168        1.3824  -15.8161  -38.6662 H         1 UNK         0.0600 
    169 H169       -0.4683  -14.6453  -39.8342 H         1 UNK         0.3000 
    170 H170       -2.6310  -14.1118  -42.6237 H         1 UNK         0.0600 
    171 H171       -4.0823  -14.0236  -40.5901 H         1 UNK         0.0600 
    172 H172       -2.7976  -13.2210  -39.6949 H         1 UNK         0.0600 
    173 H173       -3.5531  -12.4205  -41.0732 H         1 UNK         0.0600 
    174 H174       -1.0224  -12.2901  -41.1886 H         1 UNK         0.3000 
    175 H175        0.6442  -11.2808  -42.3203 H         1 UNK         0.0600 
    176 H176        2.7510  -13.5227  -42.1730 H         1 UNK         0.0600 
    177 H177        3.0284  -11.8231  -41.8106 H         1 UNK         0.0600 
    178 H178        1.9758  -12.7779  -40.7791 H         1 UNK         0.0600 
    179 H179        1.2062  -12.8320  -44.6763 H         1 UNK         0.3000 
    180 H180        1.3386  -10.3902  -46.5260 H         1 UNK         0.0600 
    181 H181        4.3679  -10.6370  -46.1789 H         1 UNK         0.0600 
    182 H182        3.4324   -9.1535  -46.2679 H         1 UNK         0.0600 
    183 H183        3.5561  -10.1890  -47.6794 H         1 UNK         0.0600 
    184 H184        1.2842  -12.3888  -47.3764 H         1 UNK         0.3000 
    185 H185        3.6015  -14.7730  -48.1358 H         1 UNK         0.0600 
    186 H186        3.1758  -16.0080  -46.0655 H         1 UNK         0.0600 
    187 H187        1.4832  -15.5162  -46.0522 H         1 UNK         0.0600 
    188 H188        2.0849  -16.6126  -47.2965 H         1 UNK         0.0600 
    189 H189        0.7243  -14.7766  -48.3274 H         1 UNK         0.3000 
    190 H190       -1.9694  -21.2895  -46.0391 H         1 UNK         0.3000 
    191 H191       -3.5506  -22.6103  -47.9287 H         1 UNK         0.0600 
    192 H192       -4.2331  -21.8633  -45.0446 H         1 UNK         0.0600 
    193 H193       -5.3923  -22.1987  -46.3232 H         1 UNK         0.0600 
    194 H194       -4.3473  -20.7941  -46.4438 H         1 UNK         0.0600 
    195 H195       -1.7812  -24.1207  -45.3704 H         1 UNK         0.3000 
    196 H196       -3.4537  -26.5090  -45.1779 H         1 UNK         0.0600 
    197 H197       -1.6346  -27.3481  -43.7606 H         1 UNK         0.0600 
    198 H198       -2.0178  -25.7020  -43.2778 H         1 UNK         0.0600 
    199 H199       -0.5781  -26.0305  -44.2428 H         1 UNK         0.0600 
    200 H200       -1.0917  -25.3234  -47.4450 H         1 UNK         0.3000 
    201 H201       -0.2678  -27.9926  -48.4005 H         1 UNK         0.0600 
    202 H202        1.3694  -26.0473  -48.2383 H         1 UNK         0.0600 
    203 H203        0.4353  -25.2095  -49.4779 H         1 UNK         0.0600 
    204 H204        1.2363  -26.7247  -49.8526 H         1 UNK         0.0600 
    205 H205       -0.3391  -28.2561  -50.8327 H         1 UNK         0.3000 
    206 H206       -3.0192  -28.1724  -51.8494 H         1 UNK         0.0600 
    207 H207       -1.9322  -29.1561  -53.8813 H         1 UNK         0.0600 
    208 H208       -0.3422  -28.8012  -53.2184 H         1 UNK         0.0600 
    209 H209       -1.3937  -29.9744  -52.4244 H         1 UNK         0.0600 
    210 H210       -3.7470  -27.1307  -53.7386 H         1 UNK         0.3000 
    211 H211       -4.2202  -25.5594  -55.1728 H         1 UNK         0.0600 
    212 H212       -1.3082  -24.6156  -55.0906 H         1 UNK         0.0600 
    213 H213       -2.4987  -24.2359  -56.3219 H         1 UNK         0.0600 
    214 H214       -1.9385  -25.8903  -56.1346 H         1 UNK         0.0600 
    215 H215       -2.7595  -24.4874  -52.2055 H         1 UNK         0.3000 
    216 H216       -3.5943  -21.7179  -52.3105 H         1 UNK         0.0600 
    217 H217       -2.7843  -21.7105  -49.9783 H         1 UNK         0.0600 
    218 H218       -1.6144  -22.4887  -51.0276 H         1 UNK         0.0600 
    219 H219       -2.6500  -23.4712  -49.9988 H         1 UNK         0.0600 
    220 H220       -5.7978  -22.6432  -53.1027 H         1 UNK         0.3000 
    221 H221       -7.7085  -23.4816  -51.1018 H         1 UNK         0.0600 
    222 H222       -8.0820  -22.4225  -53.9562 H         1 UNK         0.0600 
    223 H223       -7.8869  -24.1154  -53.5016 H         1 UNK         0.0600 
    224 H224       -9.3161  -23.2292  -52.9951 H         1 UNK         0.0600 
    225 H225       -6.4001  -20.4070  -51.8392 H         1 UNK         0.3000 
    226 H226       -8.4128  -19.0182  -50.2079 H         1 UNK         0.0600 
    227 H227       -9.1586  -18.7201  -52.6121 H         1 UNK         0.0600 
    228 H228       -8.6940  -17.2058  -51.8692 H         1 UNK         0.0600 
    229 H229       -7.5949  -18.0081  -52.9940 H         1 UNK         0.0600 
    230 H230       -7.0874  -16.4660  -51.0211 H         1 UNK         0.3000 
    231 H231       -5.0449  -16.3857  -49.0158 H         1 UNK         0.0600 
    232 H232       -6.5684  -14.4841  -49.4916 H         1 UNK         0.0600 
    233 H233       -5.9101  -14.3310  -51.1217 H         1 UNK         0.0600 
    234 H234       -4.9013  -13.9887  -49.7237 H         1 UNK         0.0600 
    235 H235       -4.7950  -17.5201  -52.1899 H         1 UNK         0.3000 
    236 H236       -1.9280  -17.5807  -52.0771 H         1 UNK         0.0600 
    237 H237       -1.5955  -16.5565  -54.3441 H         1 UNK         0.0600 
    238 H238       -3.3163  -16.2037  -54.4654 H         1 UNK         0.0600 
    239 H239       -2.3208  -15.3678  -53.2766 H         1 UNK         0.0600 
    240 H240       -1.1052  -18.9246  -53.9221 H         1 UNK         0.3000 
    241 H241       -2.6473  -21.3174  -54.2480 H         1 UNK         0.0600 
    242 H242       -4.2959  -21.0064  -57.3393 H         1 UNK         0.3800 
    243 H243       -4.1261  -21.8629  -55.8225 H         1 UNK         0.3800 
    244 H244        0.0117  -20.4374  -55.4376 H         1 UNK         0.0800 
    245 H245       -0.7120  -21.9862  -55.7905 H         1 UNK         0.0800 
    246 H246        2.0209  -20.9872  -54.5098 H         1 UNK         0.0800 
    247 H247        2.3835  -22.2669  -53.3920 H         1 UNK         0.0800 
@<TRIPOS>BOND
     1    1    2 1    
     2    1  127 1    
     3    1  128 1    
     4    1  129 1    
     5    2    3 2    
     6    2    4 am   BACKBONE|DICT|INTERRES
     7    4    5 1    
     8    4  130 1    
     9    5    6 1    
    10    5   65 1    
    11    5  131 1    
    12    6    7 1    
    13    6  132 1    
    14    6  133 1    
    15    7    8 1    
    16    8    9 1    
    17    8  134 1    
    18    8  135 1    
    19    9   10 ar   
    20    9   14 ar   
    21   10   11 ar   
    22   10  136 1    
    23   11   12 ar   
    24   11  126 1    
    25   12   13 ar   
    26   12  137 1    
    27   13   14 ar   
    28   13   15 1    
    29   14  138 1    
    30   15   16 1    
    31   15  139 1    
    32   15  140 1    
    33   16   17 1    
    34   17   18 1    
    35   17  141 1    
    36   17  142 1    
    37   18   19 1    
    38   18   67 1    
    39   18  143 1    
    40   19   20 am   BACKBONE|DICT|INTERRES
    41   19  144 1    
    42   20   21 2    
    43   20   22 1    
    44   22   23 1    
    45   22   24 1    
    46   22  145 1    
    47   23  146 1    
    48   23  147 1    
    49   23  148 1    
    50   24   25 am   BACKBONE|DICT|INTERRES
    51   24  149 1    
    52   25   26 2    
    53   25   27 1    
    54   27   28 1    
    55   27   29 1    
    56   27  150 1    
    57   28  151 1    
    58   28  152 1    
    59   28  153 1    
    60   29   30 am   BACKBONE|DICT|INTERRES
    61   29  154 1    
    62   30   31 2    
    63   30   32 1    
    64   32   33 1    
    65   32   34 1    
    66   32  155 1    
    67   33  156 1    
    68   33  157 1    
    69   33  158 1    
    70   34   35 am   BACKBONE|DICT|INTERRES
    71   34  159 1    
    72   35   36 2    
    73   35   37 1    
    74   37   38 1    
    75   37   39 1    
    76   37  160 1    
    77   38  161 1    
    78   38  162 1    
    79   38  163 1    
    80   39   40 am   BACKBONE|DICT|INTERRES
    81   39  164 1    
    82   40   41 2    
    83   40   42 1    
    84   42   43 1    
    85   42   44 1    
    86   42  165 1    
    87   43  166 1    
    88   43  167 1    
    89   43  168 1    
    90   44   45 am   BACKBONE|DICT|INTERRES
    91   44  169 1    
    92   45   46 2    
    93   45   47 1    
    94   47   48 1    
    95   47   49 1    
    96   47  170 1    
    97   48  171 1    
    98   48  172 1    
    99   48  173 1    
   100   49   50 am   BACKBONE|DICT|INTERRES
   101   49  174 1    
   102   50   51 2    
   103   50   52 1    
   104   52   53 1    
   105   52   54 1    
   106   52  175 1    
   107   53  176 1    
   108   53  177 1    
   109   53  178 1    
   110   54   55 am   BACKBONE|DICT|INTERRES
   111   54  179 1    
   112   55   56 2    
   113   55   57 1    
   114   57   58 1    
   115   57   59 1    
   116   57  180 1    
   117   58  181 1    
   118   58  182 1    
   119   58  183 1    
   120   59   60 am   BACKBONE|DICT|INTERRES
   121   59  184 1    
   122   60   61 2    
   123   60   62 1    
   124   62   63 1    
   125   62   64 1    
   126   62  185 1    
   127   63  186 1    
   128   63  187 1    
   129   63  188 1    
   130   64   65 am   BACKBONE|DICT|INTERRES
   131   64  189 1    
   132   65   66 2    
   133   67   68 2    
   134   67   69 am   BACKBONE|DICT|INTERRES
   135   69   70 1    
   136   69  190 1    
   137   70   71 1    
   138   70   72 1    
   139   70  191 1    
   140   71  192 1    
   141   71  193 1    
   142   71  194 1    
   143   72   73 2    
   144   72   74 am   BACKBONE|DICT|INTERRES
   145   74   75 1    
   146   74  195 1    
   147   75   76 1    
   148   75   77 1    
   149   75  196 1    
   150   76  197 1    
   151   76  198 1    
   152   76  199 1    
   153   77   78 2    
   154   77   79 am   BACKBONE|DICT|INTERRES
   155   79   80 1    
   156   79  200 1    
   157   80   81 1    
   158   80   82 1    
   159   80  201 1    
   160   81  202 1    
   161   81  203 1    
   162   81  204 1    
   163   82   83 2    
   164   82   84 am   BACKBONE|DICT|INTERRES
   165   84   85 1    
   166   84  205 1    
   167   85   86 1    
   168   85   87 1    
   169   85  206 1    
   170   86  207 1    
   171   86  208 1    
   172   86  209 1    
   173   87   88 2    
   174   87   89 am   BACKBONE|DICT|INTERRES
   175   89   90 1    
   176   89  210 1    
   177   90   91 1    
   178   90   92 1    
   179   90  211 1    
   180   91  212 1    
   181   91  213 1    
   182   91  214 1    
   183   92   93 2    
   184   92   94 am   BACKBONE|DICT|INTERRES
   185   94   95 1    
   186   94  215 1    
   187   95   96 1    
   188   95   97 1    
   189   95  216 1    
   190   96  217 1    
   191   96  218 1    
   192   96  219 1    
   193   97   98 2    
   194   97   99 am   BACKBONE|DICT|INTERRES
   195   99  100 1    
   196   99  220 1    
   197  100  101 1    
   198  100  102 1    
   199  100  221 1    
   200  101  222 1    
   201  101  223 1    
   202  101  224 1    
   203  102  103 2    
   204  102  104 am   BACKBONE|DICT|INTERRES
   205  104  105 1    
   206  104  225 1    
   207  105  106 1    
   208  105  107 1    
   209  105  226 1    
   210  106  227 1    
   211  106  228 1    
   212  106  229 1    
   213  107  108 2    
   214  107  109 am   BACKBONE|DICT|INTERRES
   215  109  110 1    
   216  109  230 1    
   217  110  111 1    
   218  110  112 1    
   219  110  231 1    
   220  111  232 1    
   221  111  233 1    
   222  111  234 1    
   223  112  113 2    
   224  112  114 am   BACKBONE|DICT|INTERRES
   225  114  115 1    
   226  114  235 1    
   227  115  116 1    
   228  115  117 1    
   229  115  236 1    
   230  116  237 1    
   231  116  238 1    
   232  116  239 1    
   233  117  118 2    
   234  117  119 am   BACKBONE|DICT|INTERRES
   235  119  120 1    
   236  119  240 1    
   237  120  121 1    
   238  120  124 1    
   239  120  241 1    
   240  121  122 am   BACKBONE|DICT|INTERRES
   241  121  123 2    
   242  122  242 1    
   243  122  243 1    
   244  124  125 1    
   245  124  244 1    
   246  124  245 1    
   247  125  126 1    
   248  126  246 1    
   249  126  247 1    
@<TRIPOS>SUBSTRUCTURE
     1 UNK         1 GROUP             0       ****    0 ROOT    
