@<TRIPOS>MOLECULE
3R540
247   249    1
SMALL
USER_CHARGES


@<TRIPOS>ATOM
      1 CA         -2.5778  -15.7617  -48.5437 C.3       0 UNK        -0.1800 
      2 C          -1.8399  -14.4368  -48.4074 C.2       0 UNK         0.5000 
      3 O          -2.4525  -13.3751  -48.5260 O.2       0 UNK        -0.5000 
      4 N          -0.5277  -14.4952  -48.1517 N.am      1 UNK        -0.5000 
      5 CA          0.3553  -13.3497  -47.9122 C.3       1 UNK         0.1400 
      6 C6          1.8442  -13.7371  -48.0988 C.3       23 UNK        -0.0398 
      7 S7          2.2712  -14.0789  -49.8391 S.3       23 UNK        -0.2404 
      8 C8          2.6483  -15.8688  -49.8269 C.3       23 UNK        -0.0205 
      9 C9          1.4879  -16.8037  -50.1776 C.ar      23 UNK        -0.0193 
     10 C10         0.3506  -16.3701  -50.8710 C.ar      23 UNK        -0.1150 
     11 C11        -0.6437  -17.2750  -51.2508 C.ar      23 UNK        -0.0193 
     12 C12        -0.5028  -18.6265  -50.9291 C.ar      23 UNK        -0.1150 
     13 C13         0.6269  -19.0860  -50.2462 C.ar      23 UNK        -0.0193 
     14 C14         1.6131  -18.1629  -49.8704 C.ar      23 UNK        -0.1150 
     15 C15         0.7623  -20.5921  -50.0131 C.3       23 UNK        -0.0205 
     16 S16         2.0325  -21.1195  -48.8147 S.3       23 UNK        -0.2404 
     17 C17         1.2048  -20.7568  -47.2338 C.3       23 UNK        -0.0398 
     18 CA          0.7012  -22.0382  -46.5189 C.3       11 UNK         0.1400 
     19 N           0.7656  -21.8978  -45.0606 N.am      11 UNK        -0.5000 
     20 C           0.5858  -22.8896  -44.1777 C.2       10 UNK         0.5000 
     21 O           0.3859  -24.0599  -44.4990 O.2       10 UNK        -0.5000 
     22 CA          0.5894  -22.5016  -42.6872 C.3       10 UNK         0.1400 
     23 CB          2.0211  -22.4217  -42.1361 C.3       10 UNK        -0.1800 
     24 N          -0.1021  -21.2339  -42.4510 N.am      10 UNK        -0.5000 
     25 C          -1.4298  -21.0748  -42.5490 C.2       9 UNK         0.5000 
     26 O          -2.2139  -21.9976  -42.7709 O.2       9 UNK        -0.5000 
     27 CA         -1.9697  -19.6385  -42.4141 C.3       9 UNK         0.1400 
     28 CB         -2.1728  -19.2749  -40.9357 C.3       9 UNK        -0.1800 
     29 N          -1.1083  -18.6392  -43.0498 N.am      9 UNK        -0.5000 
     30 C          -0.8339  -18.5933  -44.3611 C.2       8 UNK         0.5000 
     31 O          -1.3134  -19.3672  -45.1854 O.2       8 UNK        -0.5000 
     32 CA          0.1932  -17.5512  -44.8314 C.3       8 UNK         0.1400 
     33 CB         -0.4736  -16.1888  -45.0377 C.3       8 UNK        -0.1800 
     34 N           1.3277  -17.4164  -43.9184 N.am      8 UNK        -0.5000 
     35 C           2.1872  -18.4023  -43.6257 C.2       7 UNK         0.5000 
     36 O           2.1266  -19.5278  -44.1183 O.2       7 UNK        -0.5000 
     37 CA          3.2592  -18.0961  -42.5693 C.3       7 UNK         0.1400 
     38 CB          4.4517  -17.3551  -43.1930 C.3       7 UNK        -0.1800 
     39 N           2.7032  -17.3095  -41.4699 N.am      7 UNK        -0.5000 
     40 C           1.9257  -17.8160  -40.5029 C.2       6 UNK         0.5000 
     41 O           1.6488  -19.0122  -40.4056 O.2       6 UNK        -0.5000 
     42 CA          1.3345  -16.8134  -39.4927 C.3       6 UNK         0.1400 
     43 CB          2.3247  -16.5522  -38.3480 C.3       6 UNK        -0.1800 
     44 N           0.9545  -15.5376  -40.1044 N.am      6 UNK        -0.5000 
     45 C          -0.0410  -15.3943  -40.9900 C.2       5 UNK         0.5000 
     46 O          -0.7526  -16.3230  -41.3695 O.2       5 UNK        -0.5000 
     47 CA         -0.2589  -13.9889  -41.5830 C.3       5 UNK         0.1400 
     48 CB         -1.1829  -13.1666  -40.6728 C.3       5 UNK        -0.1800 
     49 N           0.9634  -13.2232  -41.8509 N.am      5 UNK        -0.5000 
     50 C           2.0247  -13.6451  -42.5540 C.2       4 UNK         0.5000 
     51 O           2.1541  -14.7961  -42.9735 O.2       4 UNK        -0.5000 
     52 CA          3.0841  -12.5778  -42.8704 C.3       4 UNK         0.1400 
     53 CB          4.2821  -13.1368  -43.6592 C.3       4 UNK        -0.1800 
     54 N           2.4354  -11.5378  -43.6593 N.am      4 UNK        -0.5000 
     55 C           2.4495  -10.2235  -43.4069 C.2       3 UNK         0.5000 
     56 O           3.0990   -9.7104  -42.4950 O.2       3 UNK        -0.5000 
     57 CA          1.5769   -9.3256  -44.3130 C.3       3 UNK         0.1400 
     58 CB          2.4348   -8.6780  -45.4106 C.3       3 UNK        -0.1800 
     59 N           0.4618  -10.0381  -44.9440 N.am      3 UNK        -0.5000 
     60 C          -0.5726  -10.5829  -44.2882 C.2       2 UNK         0.5000 
     61 O          -0.7643  -10.4293  -43.0818 O.2       2 UNK        -0.5000 
     62 CA         -1.5378  -11.4789  -45.0949 C.3       2 UNK         0.1400 
     63 CB         -2.8440  -10.7268  -45.3908 C.3       2 UNK        -0.1800 
     64 N          -1.0140  -12.0258  -46.3547 N.am      2 UNK        -0.5000 
     65 C           0.0982  -12.7570  -46.5087 C.2       1 UNK         0.5000 
     66 O           0.8920  -12.9789  -45.5949 O.2       1 UNK        -0.5000 
     67 C          -0.7094  -22.4511  -46.9999 C.2       11 UNK         0.5000 
     68 O          -0.8366  -23.3099  -47.8718 O.2       11 UNK        -0.5000 
     69 N          -1.7438  -21.8572  -46.3888 N.am      12 UNK        -0.5000 
     70 CA         -3.1595  -22.1166  -46.6487 C.3       12 UNK         0.1400 
     71 CB         -4.0047  -21.0391  -45.9531 C.3       12 UNK        -0.1800 
     72 C          -3.6377  -23.5229  -46.2416 C.2       12 UNK         0.5000 
     73 O          -4.6772  -23.9616  -46.7344 O.2       12 UNK        -0.5000 
     74 N          -2.8862  -24.2201  -45.3784 N.am      13 UNK        -0.5000 
     75 CA         -3.1514  -25.5935  -44.9433 C.3       13 UNK         0.1400 
     76 CB         -2.4973  -25.8185  -43.5683 C.3       13 UNK        -0.1800 
     77 C          -2.7019  -26.6255  -46.0027 C.2       13 UNK         0.5000 
     78 O          -1.9032  -27.5176  -45.7103 O.2       13 UNK        -0.5000 
     79 N          -3.2242  -26.4774  -47.2226 N.am      14 UNK        -0.5000 
     80 CA         -2.9738  -27.3062  -48.3948 C.3       14 UNK         0.1400 
     81 CB         -1.6312  -26.9128  -49.0375 C.3       14 UNK        -0.1800 
     82 C          -4.1363  -27.1085  -49.3779 C.2       14 UNK         0.5000 
     83 O          -4.8661  -26.1184  -49.2668 O.2       14 UNK        -0.5000 
     84 N          -4.2816  -28.0395  -50.3306 N.am      15 UNK        -0.5000 
     85 CA         -5.3018  -28.0305  -51.3837 C.3       15 UNK         0.1400 
     86 CB         -5.1497  -29.2962  -52.2426 C.3       15 UNK        -0.1800 
     87 C          -5.2151  -26.7572  -52.2459 C.2       15 UNK         0.5000 
     88 O          -4.2559  -26.6006  -53.0043 O.2       15 UNK        -0.5000 
     89 N          -6.1735  -25.8409  -52.0421 N.am      16 UNK        -0.5000 
     90 CA         -6.2328  -24.4831  -52.5999 C.3       16 UNK         0.1400 
     91 CB         -6.5758  -24.5301  -54.1013 C.3       16 UNK        -0.1800 
     92 C          -4.9585  -23.6623  -52.3025 C.2       16 UNK         0.5000 
     93 O          -4.4569  -22.9497  -53.1757 O.2       16 UNK        -0.5000 
     94 N          -4.4081  -23.8422  -51.0916 N.am      17 UNK        -0.5000 
     95 CA         -3.1493  -23.2698  -50.5972 C.3       17 UNK         0.1400 
     96 CB         -3.2725  -21.7333  -50.4969 C.3       17 UNK        -0.1800 
     97 C          -1.9050  -23.6933  -51.4134 C.2       17 UNK         0.5000 
     98 O          -0.8619  -23.0535  -51.2963 O.2       17 UNK        -0.5000 
     99 N          -2.0449  -24.7265  -52.2625 N.am      18 UNK        -0.5000 
    100 CA        -1.0919  -25.1756  -53.2838 C.3       18 UNK         0.1400 
    101 CB         0.1592  -25.7928  -52.6251 C.3       18 UNK        -0.1800 
    102 C         -0.7457  -24.0839  -54.3259 C.2       18 UNK         0.5000 
    103 O          0.3186  -24.1474  -54.9443 O.2       18 UNK        -0.5000 
    104 N         -1.6377  -23.0967  -54.4959 N.am      19 UNK        -0.5000 
    105 CA        -1.3946  -21.8767  -55.2685 C.3       19 UNK         0.1400 
    106 CB        -0.7976  -20.8082  -54.3300 C.3       19 UNK        -0.1800 
    107 C         -2.6652  -21.3647  -55.9706 C.2       19 UNK         0.5000 
    108 O         -2.6986  -20.2018  -56.3749 O.2       19 UNK        -0.5000 
    109 N         -3.7071  -22.2078  -56.0668 N.am      20 UNK        -0.5000 
    110 CA        -5.0535  -21.8861  -56.5690 C.3       20 UNK         0.1400 
    111 CB        -5.0217  -21.6417  -58.0919 C.3       20 UNK        -0.1800 
    112 C         -5.7121  -20.7238  -55.7887 C.2       20 UNK         0.5000 
    113 O         -6.3784  -19.8699  -56.3783 O.2       20 UNK        -0.5000 
    114 N         -5.4349  -20.6784  -54.4759 N.am      21 UNK        -0.5000 
    115 CA        -5.7637  -19.6251  -53.5085 C.3       21 UNK         0.1400 
    116 CB        -7.2813  -19.6115  -53.2370 C.3       21 UNK        -0.1800 
    117 C         -5.2177  -18.2263  -53.8835 C.2       21 UNK         0.5000 
    118 O         -5.7127  -17.2244  -53.3649 O.2       21 UNK        -0.5000 
    119 N         -4.2271  -18.1787  -54.7871 N.am      22 UNK        -0.5000 
    120 CA        -3.7211  -16.9756  -55.4671 C.3       22 UNK         0.1400 
    121 C         -4.7777  -16.2685  -56.3745 C.2       22 UNK         0.5000 
    122 N         -5.8222  -16.9530  -56.8303 N.am      22 UNK        -0.7600 
    123 O         -4.6413  -15.0921  -56.7005 O.2       22 UNK        -0.5000 
    124 C124       -2.9659  -16.0030  -54.5187 C.3       23 UNK        -0.0398 
    125 S125       -1.4592  -16.7616  -53.8221 S.3       23 UNK        -0.2404 
    126 C126       -1.8463  -16.7945  -52.0472 C.3       23 UNK        -0.0205 
    127 H127       -3.2613  -15.8959  -47.7055 H         1 UNK         0.0600 
    128 H128       -3.1614  -15.7765  -49.4637 H         1 UNK         0.0600 
    129 H129       -1.8912  -16.6086  -48.5619 H         1 UNK         0.0600 
    130 H130       -0.0832  -15.3990  -48.0884 H         1 UNK         0.3000 
    131 H131        0.1188  -12.5694  -48.6390 H         1 UNK         0.0600 
    132 H132        2.4922  -12.9190  -47.7782 H         1 UNK         0.0800 
    133 H133        2.1049  -14.5874  -47.4663 H         1 UNK         0.0800 
    134 H134        3.0751  -16.1467  -48.8623 H         1 UNK         0.0800 
    135 H135        3.4361  -16.0411  -50.5612 H         1 UNK         0.0800 
    136 H136        0.2417  -15.3329  -51.1520 H         1 UNK         0.1150 
    137 H137       -1.2602  -19.3305  -51.2446 H         1 UNK         0.1150 
    138 H138        2.5086  -18.4996  -49.3693 H         1 UNK         0.1150 
    139 H139       -0.1959  -21.0013  -49.6960 H         1 UNK         0.0800 
    140 H140        0.9912  -21.0592  -50.9719 H         1 UNK         0.0800 
    141 H141        0.4084  -20.0226  -47.3711 H         1 UNK         0.0800 
    142 H142        1.9563  -20.2571  -46.6224 H         1 UNK         0.0800 
    143 H143        1.3767  -22.8597  -46.7680 H         1 UNK         0.0600 
    144 H144        0.9935  -20.9743  -44.7040 H         1 UNK         0.3000 
    145 H145        0.0621  -23.2850  -42.1384 H         1 UNK         0.0600 
    146 H146        2.0208  -22.1820  -41.0726 H         1 UNK         0.0600 
    147 H147        2.5365  -23.3755  -42.2552 H         1 UNK         0.0600 
    148 H148        2.6142  -21.6642  -42.6480 H         1 UNK         0.0600 
    149 H149        0.4743  -20.4244  -42.2652 H         1 UNK         0.3000 
    150 H150       -2.9417  -19.6032  -42.9102 H         1 UNK         0.0600 
    151 H151       -2.8079  -20.0070  -40.4354 H         1 UNK         0.0600 
    152 H152       -2.6551  -18.3028  -40.8326 H         1 UNK         0.0600 
    153 H153       -1.2251  -19.2368  -40.3972 H         1 UNK         0.0600 
    154 H154       -0.7296  -17.9159  -42.4445 H         1 UNK         0.3000 
    155 H155        0.5858  -17.8832  -45.7948 H         1 UNK         0.0600 
    156 H156       -0.9063  -15.8064  -44.1147 H         1 UNK         0.0600 
    157 H157       -1.2750  -16.2518  -45.7741 H         1 UNK         0.0600 
    158 H158        0.2517  -15.4629  -45.3974 H         1 UNK         0.0600 
    159 H159        1.4787  -16.5029  -43.4982 H         1 UNK         0.3000 
    160 H160        3.6230  -19.0465  -42.1726 H         1 UNK         0.0600 
    161 H161        5.2203  -17.1477  -42.4485 H         1 UNK         0.0600 
    162 H162        4.1543  -16.4070  -43.6413 H         1 UNK         0.0600 
    163 H163        4.9126  -17.9558  -43.9780 H         1 UNK         0.0600 
    164 H164        2.8041  -16.3054  -41.5399 H         1 UNK         0.3000 
    165 H165        0.4353  -17.2653  -39.0682 H         1 UNK         0.0600 
    166 H166        1.8850  -15.9091  -37.5853 H         1 UNK         0.0600 
    167 H167        2.6111  -17.4846  -37.8596 H         1 UNK         0.0600 
    168 H168        3.2378  -16.0746  -38.7054 H         1 UNK         0.0600 
    169 H169        1.4973  -14.7250  -39.8519 H         1 UNK         0.3000 
    170 H170       -0.7640  -14.1157  -42.5414 H         1 UNK         0.0600 
    171 H171       -2.1099  -13.7039  -40.4674 H         1 UNK         0.0600 
    172 H172       -0.7113  -12.9463  -39.7145 H         1 UNK         0.0600 
    173 H173       -1.4569  -12.2197  -41.1376 H         1 UNK         0.0600 
    174 H174        0.9390  -12.2510  -41.5780 H         1 UNK         0.3000 
    175 H175        3.4444  -12.1815  -41.9192 H         1 UNK         0.0600 
    176 H176        3.9706  -13.5623  -44.6144 H         1 UNK         0.0600 
    177 H177        5.0155  -12.3569  -43.8641 H         1 UNK         0.0600 
    178 H178        4.7889  -13.9216  -43.0965 H         1 UNK         0.0600 
    179 H179        1.8421  -11.8895  -44.4085 H         1 UNK         0.3000 
    180 H180        1.1611   -8.5327  -43.6879 H         1 UNK         0.0600 
    181 H181        2.8637   -9.4257  -46.0791 H         1 UNK         0.0600 
    182 H182        3.2610   -8.1121  -44.9779 H         1 UNK         0.0600 
    183 H183        1.8481   -7.9842  -46.0130 H         1 UNK         0.0600 
    184 H184        0.5383  -10.2124  -45.9349 H         1 UNK         0.3000 
    185 H185       -1.7757  -12.3319  -44.4563 H         1 UNK         0.0600 
    186 H186       -3.2897  -10.3366  -44.4747 H         1 UNK         0.0600 
    187 H187       -2.6767   -9.8827  -46.0609 H         1 UNK         0.0600 
    188 H188       -3.5811  -11.3830  -45.8543 H         1 UNK         0.0600 
    189 H189       -1.6338  -11.9662  -47.1548 H         1 UNK         0.3000 
    190 H190       -1.5460  -21.1034  -45.7339 H         1 UNK         0.3000 
    191 H191       -3.3203  -22.0253  -47.7221 H         1 UNK         0.0600 
    192 H192       -3.8575  -21.0506  -44.8728 H         1 UNK         0.0600 
    193 H193       -5.0682  -21.1900  -46.1422 H         1 UNK         0.0600 
    194 H194       -3.7506  -20.0431  -46.3163 H         1 UNK         0.0600 
    195 H195       -2.0273  -23.8033  -45.0457 H         1 UNK         0.3000 
    196 H196       -4.2286  -25.7167  -44.8134 H         1 UNK         0.0600 
    197 H197       -2.7596  -26.7985  -43.1682 H         1 UNK         0.0600 
    198 H198       -2.8296  -25.0727  -42.8457 H         1 UNK         0.0600 
    199 H199       -1.4101  -25.7690  -43.6239 H         1 UNK         0.0600 
    200 H200       -3.9059  -25.7371  -47.3742 H         1 UNK         0.3000 
    201 H201       -2.9491  -28.3560  -48.0954 H         1 UNK         0.0600 
    202 H202       -0.7984  -27.1003  -48.3598 H         1 UNK         0.0600 
    203 H203       -1.6083  -25.8557  -49.3031 H         1 UNK         0.0600 
    204 H204       -1.4437  -27.4861  -49.9459 H         1 UNK         0.0600 
    205 H205       -3.6229  -28.8039  -50.3640 H         1 UNK         0.3000 
    206 H206       -6.2813  -28.0655  -50.9024 H         1 UNK         0.0600 
    207 H207       -5.2857  -30.1977  -51.6449 H         1 UNK         0.0600 
    208 H208       -5.8955  -29.3192  -53.0382 H         1 UNK         0.0600 
    209 H209       -4.1669  -29.3503  -52.7127 H         1 UNK         0.0600 
    210 H210       -6.8856  -26.0528  -51.3567 H         1 UNK         0.3000 
    211 H211       -7.0502  -23.9728  -52.0887 H         1 UNK         0.0600 
    212 H212       -5.7534  -24.9328  -54.6937 H         1 UNK         0.0600 
    213 H213       -6.7998  -23.5310  -54.4746 H         1 UNK         0.0600 
    214 H214       -7.4555  -25.1463  -54.2864 H         1 UNK         0.0600 
    215 H215       -4.8484  -24.5089  -50.4632 H         1 UNK         0.3000 
    216 H216       -3.0098  -23.6678  -49.5914 H         1 UNK         0.0600 
    217 H217       -3.2553  -21.2591  -51.4787 H         1 UNK         0.0600 
    218 H218       -2.4504  -21.3131  -49.9195 H         1 UNK         0.0600 
    219 H219       -4.1970  -21.4401  -49.9997 H         1 UNK         0.0600 
    220 H220       -2.9467  -25.1890  -52.3064 H         1 UNK         0.3000 
    221 H221       -1.5967  -25.9681  -53.8377 H         1 UNK         0.0600 
    222 H222        0.7538  -25.0429  -52.1028 H         1 UNK         0.0600 
    223 H223       -0.1146  -26.5642  -51.9057 H         1 UNK         0.0600 
    224 H224        0.8042  -26.2608  -53.3694 H         1 UNK         0.0600 
    225 H225       -2.4884  -23.1130  -53.9432 H         1 UNK         0.3000 
    226 H226       -0.6758  -22.0810  -56.0643 H         1 UNK         0.0600 
    227 H227        0.1160  -21.1639  -53.8532 H         1 UNK         0.0600 
    228 H228       -0.5430  -19.8968  -54.8724 H         1 UNK         0.0600 
    229 H229       -1.4987  -20.5352  -53.5402 H         1 UNK         0.0600 
    230 H230       -3.5922  -23.1392  -55.6934 H         1 UNK         0.3000 
    231 H231       -5.6707  -22.7667  -56.3929 H         1 UNK         0.0600 
    232 H232       -4.5566  -22.4769  -58.6152 H         1 UNK         0.0600 
    233 H233       -4.4696  -20.7366  -58.3470 H         1 UNK         0.0600 
    234 H234       -6.0307  -21.5313  -58.4908 H         1 UNK         0.0600 
    235 H235       -4.9036  -21.4570  -54.0896 H         1 UNK         0.3000 
    236 H236       -5.2635  -19.9032  -52.5798 H         1 UNK         0.0600 
    237 H237       -7.5287  -18.9370  -52.4165 H         1 UNK         0.0600 
    238 H238       -7.8441  -19.2839  -54.1115 H         1 UNK         0.0600 
    239 H239       -7.6398  -20.6026  -52.9587 H         1 UNK         0.0600 
    240 H240       -3.8743  -19.0494  -55.1681 H         1 UNK         0.3000 
    241 H241       -2.9859  -17.3479  -56.1814 H         1 UNK         0.0600 
    242 H242       -5.9515  -17.9332  -56.5983 H         1 UNK         0.3800 
    243 H243       -6.4930  -16.4914  -57.4236 H         1 UNK         0.3800 
    244 H244       -2.6404  -15.1137  -55.0603 H         1 UNK         0.0800 
    245 H245       -3.6197  -15.6450  -53.7230 H         1 UNK         0.0800 
    246 H246       -2.1317  -15.7939  -51.7192 H         1 UNK         0.0800 
    247 H247       -2.7075  -17.4413  -51.8717 H         1 UNK         0.0800 
@<TRIPOS>BOND
     1    1    2 1    
     2    1  127 1    
     3    1  128 1    
     4    1  129 1    
     5    2    3 2    
     6    2    4 am   BACKBONE|DICT|INTERRES
     7    4    5 1    
     8    4  130 1    
     9    5    6 1    
    10    5   65 1    
    11    5  131 1    
    12    6    7 1    
    13    6  132 1    
    14    6  133 1    
    15    7    8 1    
    16    8    9 1    
    17    8  134 1    
    18    8  135 1    
    19    9   10 ar   
    20    9   14 ar   
    21   10   11 ar   
    22   10  136 1    
    23   11   12 ar   
    24   11  126 1    
    25   12   13 ar   
    26   12  137 1    
    27   13   14 ar   
    28   13   15 1    
    29   14  138 1    
    30   15   16 1    
    31   15  139 1    
    32   15  140 1    
    33   16   17 1    
    34   17   18 1    
    35   17  141 1    
    36   17  142 1    
    37   18   19 1    
    38   18   67 1    
    39   18  143 1    
    40   19   20 am   BACKBONE|DICT|INTERRES
    41   19  144 1    
    42   20   21 2    
    43   20   22 1    
    44   22   23 1    
    45   22   24 1    
    46   22  145 1    
    47   23  146 1    
    48   23  147 1    
    49   23  148 1    
    50   24   25 am   BACKBONE|DICT|INTERRES
    51   24  149 1    
    52   25   26 2    
    53   25   27 1    
    54   27   28 1    
    55   27   29 1    
    56   27  150 1    
    57   28  151 1    
    58   28  152 1    
    59   28  153 1    
    60   29   30 am   BACKBONE|DICT|INTERRES
    61   29  154 1    
    62   30   31 2    
    63   30   32 1    
    64   32   33 1    
    65   32   34 1    
    66   32  155 1    
    67   33  156 1    
    68   33  157 1    
    69   33  158 1    
    70   34   35 am   BACKBONE|DICT|INTERRES
    71   34  159 1    
    72   35   36 2    
    73   35   37 1    
    74   37   38 1    
    75   37   39 1    
    76   37  160 1    
    77   38  161 1    
    78   38  162 1    
    79   38  163 1    
    80   39   40 am   BACKBONE|DICT|INTERRES
    81   39  164 1    
    82   40   41 2    
    83   40   42 1    
    84   42   43 1    
    85   42   44 1    
    86   42  165 1    
    87   43  166 1    
    88   43  167 1    
    89   43  168 1    
    90   44   45 am   BACKBONE|DICT|INTERRES
    91   44  169 1    
    92   45   46 2    
    93   45   47 1    
    94   47   48 1    
    95   47   49 1    
    96   47  170 1    
    97   48  171 1    
    98   48  172 1    
    99   48  173 1    
   100   49   50 am   BACKBONE|DICT|INTERRES
   101   49  174 1    
   102   50   51 2    
   103   50   52 1    
   104   52   53 1    
   105   52   54 1    
   106   52  175 1    
   107   53  176 1    
   108   53  177 1    
   109   53  178 1    
   110   54   55 am   BACKBONE|DICT|INTERRES
   111   54  179 1    
   112   55   56 2    
   113   55   57 1    
   114   57   58 1    
   115   57   59 1    
   116   57  180 1    
   117   58  181 1    
   118   58  182 1    
   119   58  183 1    
   120   59   60 am   BACKBONE|DICT|INTERRES
   121   59  184 1    
   122   60   61 2    
   123   60   62 1    
   124   62   63 1    
   125   62   64 1    
   126   62  185 1    
   127   63  186 1    
   128   63  187 1    
   129   63  188 1    
   130   64   65 am   BACKBONE|DICT|INTERRES
   131   64  189 1    
   132   65   66 2    
   133   67   68 2    
   134   67   69 am   BACKBONE|DICT|INTERRES
   135   69   70 1    
   136   69  190 1    
   137   70   71 1    
   138   70   72 1    
   139   70  191 1    
   140   71  192 1    
   141   71  193 1    
   142   71  194 1    
   143   72   73 2    
   144   72   74 am   BACKBONE|DICT|INTERRES
   145   74   75 1    
   146   74  195 1    
   147   75   76 1    
   148   75   77 1    
   149   75  196 1    
   150   76  197 1    
   151   76  198 1    
   152   76  199 1    
   153   77   78 2    
   154   77   79 am   BACKBONE|DICT|INTERRES
   155   79   80 1    
   156   79  200 1    
   157   80   81 1    
   158   80   82 1    
   159   80  201 1    
   160   81  202 1    
   161   81  203 1    
   162   81  204 1    
   163   82   83 2    
   164   82   84 am   BACKBONE|DICT|INTERRES
   165   84   85 1    
   166   84  205 1    
   167   85   86 1    
   168   85   87 1    
   169   85  206 1    
   170   86  207 1    
   171   86  208 1    
   172   86  209 1    
   173   87   88 2    
   174   87   89 am   BACKBONE|DICT|INTERRES
   175   89   90 1    
   176   89  210 1    
   177   90   91 1    
   178   90   92 1    
   179   90  211 1    
   180   91  212 1    
   181   91  213 1    
   182   91  214 1    
   183   92   93 2    
   184   92   94 am   BACKBONE|DICT|INTERRES
   185   94   95 1    
   186   94  215 1    
   187   95   96 1    
   188   95   97 1    
   189   95  216 1    
   190   96  217 1    
   191   96  218 1    
   192   96  219 1    
   193   97   98 2    
   194   97   99 am   BACKBONE|DICT|INTERRES
   195   99  100 1    
   196   99  220 1    
   197  100  101 1    
   198  100  102 1    
   199  100  221 1    
   200  101  222 1    
   201  101  223 1    
   202  101  224 1    
   203  102  103 2    
   204  102  104 am   BACKBONE|DICT|INTERRES
   205  104  105 1    
   206  104  225 1    
   207  105  106 1    
   208  105  107 1    
   209  105  226 1    
   210  106  227 1    
   211  106  228 1    
   212  106  229 1    
   213  107  108 2    
   214  107  109 am   BACKBONE|DICT|INTERRES
   215  109  110 1    
   216  109  230 1    
   217  110  111 1    
   218  110  112 1    
   219  110  231 1    
   220  111  232 1    
   221  111  233 1    
   222  111  234 1    
   223  112  113 2    
   224  112  114 am   BACKBONE|DICT|INTERRES
   225  114  115 1    
   226  114  235 1    
   227  115  116 1    
   228  115  117 1    
   229  115  236 1    
   230  116  237 1    
   231  116  238 1    
   232  116  239 1    
   233  117  118 2    
   234  117  119 am   BACKBONE|DICT|INTERRES
   235  119  120 1    
   236  119  240 1    
   237  120  121 1    
   238  120  124 1    
   239  120  241 1    
   240  121  122 am   BACKBONE|DICT|INTERRES
   241  121  123 2    
   242  122  242 1    
   243  122  243 1    
   244  124  125 1    
   245  124  244 1    
   246  124  245 1    
   247  125  126 1    
   248  126  246 1    
   249  126  247 1    
@<TRIPOS>SUBSTRUCTURE
     1 UNK         1 GROUP             0       ****    0 ROOT    
