@<TRIPOS>MOLECULE
3R540
247   249    1
SMALL
USER_CHARGES


@<TRIPOS>ATOM
      1 CA          0.2278  -11.5472  -45.3649 C.3       0 UNK        -0.1800 
      2 C           1.4927  -12.1682  -45.9423 C.2       0 UNK         0.5000 
      3 O           2.5944  -11.7314  -45.6110 O.2       0 UNK        -0.5000 
      4 N           1.3316  -13.1583  -46.8288 N.am      1 UNK        -0.5000 
      5 CA          2.4031  -13.7723  -47.6219 C.3       1 UNK         0.1400 
      6 C6          1.8558  -14.6478  -48.7753 C.3       23 UNK        -0.0398 
      7 S7          0.7014  -13.7365  -49.8592 S.3       23 UNK        -0.2404 
      8 C8         -0.7220  -14.8689  -49.9178 C.3       23 UNK        -0.0205 
      9 C9         -0.4682  -16.0230  -50.8750 C.ar      23 UNK        -0.0193 
     10 C10        -0.7746  -15.8851  -52.2335 C.ar      23 UNK        -0.1150 
     11 C11        -0.5417  -16.9349  -53.1277 C.ar      23 UNK        -0.0193 
     12 C12         0.0241  -18.1187  -52.6491 C.ar      23 UNK        -0.1150 
     13 C13         0.2853  -18.2889  -51.2888 C.ar      23 UNK        -0.0193 
     14 C14         0.0469  -17.2350  -50.4047 C.ar      23 UNK        -0.1150 
     15 C15         0.7932  -19.6275  -50.7856 C.3       23 UNK        -0.0205 
     16 S16        -0.5976  -20.7743  -50.5476 S.3       23 UNK        -0.2404 
     17 C17         0.2747  -22.3748  -50.4150 C.3       23 UNK        -0.0398 
     18 CA          0.3151  -22.9641  -48.9873 C.3       11 UNK         0.1400 
     19 N           0.9335  -22.0511  -48.0222 N.am      11 UNK        -0.5000 
     20 C           2.2128  -22.1138  -47.6304 C.2       10 UNK         0.5000 
     21 O           3.0187  -22.9387  -48.0630 O.2       10 UNK        -0.5000 
     22 CA          2.6890  -21.0947  -46.5727 C.3       10 UNK         0.1400 
     23 CB          3.4580  -19.9439  -47.2421 C.3       10 UNK        -0.1800 
     24 N           1.6188  -20.5287  -45.7497 N.am      10 UNK        -0.5000 
     25 C           0.8060  -21.2184  -44.9387 C.2       9 UNK         0.5000 
     26 O           0.8863  -22.4328  -44.7608 O.2       9 UNK        -0.5000 
     27 CA         -0.3187  -20.4297  -44.2383 C.3       9 UNK         0.1400 
     28 CB          0.1410  -20.0324  -42.8297 C.3       9 UNK        -0.1800 
     29 N          -0.8166  -19.2352  -44.9424 N.am      9 UNK        -0.5000 
     30 C          -1.1869  -19.1625  -46.2319 C.2       8 UNK         0.5000 
     31 O          -1.0455  -20.0921  -47.0281 O.2       8 UNK        -0.5000 
     32 CA         -1.8425  -17.8619  -46.7344 C.3       8 UNK         0.1400 
     33 CB         -3.2226  -18.1617  -47.3405 C.3       8 UNK        -0.1800 
     34 N          -2.0070  -16.8352  -45.7062 N.am      8 UNK        -0.5000 
     35 C          -1.0857  -15.9323  -45.3514 C.2       7 UNK         0.5000 
     36 O           0.0569  -15.9029  -45.8103 O.2       7 UNK        -0.5000 
     37 CA         -1.5110  -14.8652  -44.3220 C.3       7 UNK         0.1400 
     38 CB         -3.0400  -14.6934  -44.1844 C.3       7 UNK        -0.1800 
     39 N          -0.9004  -15.0753  -43.0097 N.am      7 UNK        -0.5000 
     40 C          -1.0074  -16.1597  -42.2291 C.2       6 UNK         0.5000 
     41 O          -1.6250  -17.1751  -42.5507 O.2       6 UNK        -0.5000 
     42 CA         -0.3206  -16.1000  -40.8532 C.3       6 UNK         0.1400 
     43 CB          1.1044  -16.6640  -40.9320 C.3       6 UNK        -0.1800 
     44 N          -0.2557  -14.7395  -40.3142 N.am      6 UNK        -0.5000 
     45 C          -1.1545  -14.2094  -39.4739 C.2       5 UNK         0.5000 
     46 O          -2.1772  -14.7947  -39.1153 O.2       5 UNK        -0.5000 
     47 CA         -0.8561  -12.8081  -38.9027 C.3       5 UNK         0.1400 
     48 CB         -0.3612  -12.9238  -37.4520 C.3       5 UNK        -0.1800 
     49 N           0.1472  -12.0735  -39.6762 N.am      5 UNK        -0.5000 
     50 C          -0.1348  -11.2428  -40.6880 C.2       4 UNK         0.5000 
     51 O          -1.2780  -10.9819  -41.0640 O.2       4 UNK        -0.5000 
     52 CA          1.0679  -10.6130  -41.4219 C.3       4 UNK         0.1400 
     53 CB          1.4880   -9.3040  -40.7364 C.3       4 UNK        -0.1800 
     54 N           2.2418  -11.4877  -41.5500 N.am      4 UNK        -0.5000 
     55 C           2.2335  -12.7000  -42.1169 C.2       3 UNK         0.5000 
     56 O           1.2033  -13.2677  -42.4938 O.2       3 UNK        -0.5000 
     57 CA          3.5799  -13.4212  -42.2667 C.3       3 UNK         0.1400 
     58 CB          4.0204  -14.0253  -40.9184 C.3       3 UNK        -0.1800 
     59 N           3.3660  -14.4484  -43.2789 N.am      3 UNK        -0.5000 
     60 C           4.2204  -15.3383  -43.7877 C.2       2 UNK         0.5000 
     61 O           5.3946  -15.4630  -43.4395 O.2       2 UNK        -0.5000 
     62 CA          3.6468  -16.2163  -44.9150 C.3       2 UNK         0.1400 
     63 CB          2.7553  -17.3309  -44.3461 C.3       2 UNK        -0.1800 
     64 N           2.8645  -15.4267  -45.8684 N.am      2 UNK        -0.5000 
     65 C           3.3945  -14.5770  -46.7590 C.2       1 UNK         0.5000 
     66 O           4.6057  -14.4130  -46.9132 O.2       1 UNK        -0.5000 
     67 C          -1.0568  -23.4797  -48.5076 C.2       11 UNK         0.5000 
     68 O          -1.4526  -24.5818  -48.8936 O.2       11 UNK        -0.5000 
     69 N          -1.7471  -22.7338  -47.6311 N.am      12 UNK        -0.5000 
     70 CA         -3.0081  -23.1527  -47.0138 C.3       12 UNK         0.1400 
     71 CB         -3.6471  -21.9691  -46.2755 C.3       12 UNK        -0.1800 
     72 C          -2.8538  -24.3679  -46.0805 C.2       12 UNK         0.5000 
     73 O          -3.7843  -25.1667  -45.9811 O.2       12 UNK        -0.5000 
     74 N          -1.6688  -24.5364  -45.4731 N.am      13 UNK        -0.5000 
     75 CA         -1.3054  -25.7167  -44.6803 C.3       13 UNK         0.1400 
     76 CB          0.0099  -25.4444  -43.9368 C.3       13 UNK        -0.1800 
     77 C          -1.1913  -27.0070  -45.5197 C.2       13 UNK         0.5000 
     78 O          -1.3585  -28.0987  -44.9757 O.2       13 UNK        -0.5000 
     79 N          -0.9395  -26.8590  -46.8279 N.am      14 UNK        -0.5000 
     80 CA         -0.9289  -27.9387  -47.8166 C.3       14 UNK         0.1400 
     81 CB          0.1812  -27.6517  -48.8429 C.3       14 UNK        -0.1800 
     82 C          -2.2978  -28.1040  -48.5120 C.2       14 UNK         0.5000 
     83 O          -2.4050  -28.9110  -49.4360 O.2       14 UNK        -0.5000 
     84 N          -3.3089  -27.3349  -48.0739 N.am      15 UNK        -0.5000 
     85 CA         -4.6714  -27.2497  -48.6104 C.3       15 UNK         0.1400 
     86 CB         -5.4208  -28.5878  -48.4393 C.3       15 UNK        -0.1800 
     87 C          -4.7266  -26.7027  -50.0533 C.2       15 UNK         0.5000 
     88 O          -5.6396  -27.0465  -50.8058 O.2       15 UNK        -0.5000 
     89 N          -3.7605  -25.8464  -50.4083 N.am      16 UNK        -0.5000 
     90 CA         -3.6219  -25.2214  -51.7211 C.3       16 UNK         0.1400 
     91 CB         -2.4046  -25.8369  -52.4363 C.3       16 UNK        -0.1800 
     92 C          -3.5037  -23.6991  -51.5452 C.2       16 UNK         0.5000 
     93 O          -2.5866  -23.0895  -52.0916 O.2       16 UNK        -0.5000 
     94 N          -4.4172  -23.1298  -50.7482 N.am      17 UNK        -0.5000 
     95 CA         -4.4278  -21.7443  -50.2736 C.3       17 UNK         0.1400 
     96 CB         -5.6776  -21.5532  -49.3968 C.3       17 UNK        -0.1800 
     97 C          -4.3728  -20.6546  -51.3646 C.2       17 UNK         0.5000 
     98 O          -4.6201  -20.9178  -52.5461 O.2       17 UNK        -0.5000 
     99 N          -4.0810  -19.4277  -50.9130 N.am      18 UNK        -0.5000 
    100 CA        -4.0392  -18.1961  -51.6994 C.3       18 UNK         0.1400 
    101 CB        -3.7751  -17.0178  -50.7524 C.3       18 UNK        -0.1800 
    102 C         -5.3443  -17.9571  -52.4776 C.2       18 UNK         0.5000 
    103 O         -6.4269  -18.0979  -51.9045 O.2       18 UNK        -0.5000 
    104 N         -5.2130  -17.6419  -53.7714 N.am      19 UNK        -0.5000 
    105 CA        -6.2603  -17.4502  -54.7850 C.3       19 UNK         0.1400 
    106 CB        -7.2209  -16.3092  -54.3990 C.3       19 UNK        -0.1800 
    107 C         -7.0351  -18.7309  -55.1641 C.2       19 UNK         0.5000 
    108 O         -7.4400  -18.8607  -56.3200 O.2       19 UNK        -0.5000 
    109 N         -7.2138  -19.6582  -54.2141 N.am      20 UNK        -0.5000 
    110 CA        -7.8287  -20.9697  -54.4116 C.3       20 UNK         0.1400 
    111 CB        -8.1020  -21.6177  -53.0451 C.3       20 UNK        -0.1800 
    112 C         -6.9669  -21.8921  -55.2919 C.2       20 UNK         0.5000 
    113 O         -7.5119  -22.5927  -56.1464 O.2       20 UNK        -0.5000 
    114 N         -5.6442  -21.8558  -55.0864 N.am      21 UNK        -0.5000 
    115 CA        -4.6657  -22.5930  -55.8837 C.3       21 UNK         0.1400 
    116 CB        -4.5506  -24.0420  -55.3822 C.3       21 UNK        -0.1800 
    117 C         -3.2877  -21.9135  -55.9135 C.2       21 UNK         0.5000 
    118 O         -2.6063  -22.0218  -56.9340 O.2       21 UNK        -0.5000 
    119 N         -2.8950  -21.2351  -54.8237 N.am      22 UNK        -0.5000 
    120 CA        -1.5595  -20.6379  -54.6306 C.3       22 UNK         0.1400 
    121 C         -0.4103  -21.6961  -54.6394 C.2       22 UNK         0.5000 
    122 N         -0.5714  -22.8188  -53.9543 N.am      22 UNK        -0.7600 
    123 O          0.6330  -21.5123  -55.2618 O.2       22 UNK        -0.5000 
    124 C124       -1.2786  -19.4288  -55.5767 C.3       23 UNK        -0.0398 
    125 S125       -2.2190  -17.9261  -55.1392 S.3       23 UNK        -0.2404 
    126 C126       -0.8934  -16.7841  -54.6038 C.3       23 UNK        -0.0205 
    127 H127       -0.6585  -11.8424  -45.9270 H         1 UNK         0.0600 
    128 H128        0.2964  -10.4599  -45.3988 H         1 UNK         0.0600 
    129 H129        0.0898  -11.8437  -44.3273 H         1 UNK         0.0600 
    130 H130        0.4012  -13.4805  -47.0495 H         1 UNK         0.3000 
    131 H131        2.9687  -12.9547  -48.0746 H         1 UNK         0.0600 
    132 H132        2.6735  -15.0185  -49.3960 H         1 UNK         0.0800 
    133 H133        1.3582  -15.5294  -48.3695 H         1 UNK         0.0800 
    134 H134       -0.9548  -15.2370  -48.9173 H         1 UNK         0.0800 
    135 H135       -1.6007  -14.3107  -50.2445 H         1 UNK         0.0800 
    136 H136       -1.1939  -14.9557  -52.5923 H         1 UNK         0.1150 
    137 H137        0.2413  -18.9274  -53.3276 H         1 UNK         0.1150 
    138 H138        0.2576  -17.3645  -49.3537 H         1 UNK         0.1150 
    139 H139        1.5000  -20.0406  -51.5067 H         1 UNK         0.0800 
    140 H140        1.3333  -19.5107  -49.8455 H         1 UNK         0.0800 
    141 H141        1.2948  -22.2606  -50.7823 H         1 UNK         0.0800 
    142 H142       -0.1929  -23.0830  -51.0990 H         1 UNK         0.0800 
    143 H143        0.9240  -23.8689  -49.0448 H         1 UNK         0.0600 
    144 H144        0.3405  -21.3182  -47.6465 H         1 UNK         0.3000 
    145 H145        3.3742  -21.6222  -45.9061 H         1 UNK         0.0600 
    146 H146        3.9392  -19.3067  -46.5003 H         1 UNK         0.0600 
    147 H147        4.2448  -20.3239  -47.8952 H         1 UNK         0.0600 
    148 H148        2.8015  -19.3188  -47.8481 H         1 UNK         0.0600 
    149 H149        1.4458  -19.5408  -45.8533 H         1 UNK         0.3000 
    150 H150       -1.1625  -21.1125  -44.1328 H         1 UNK         0.0600 
    151 H151        0.5121  -20.8968  -42.2770 H         1 UNK         0.0600 
    152 H152       -0.6773  -19.6101  -42.2477 H         1 UNK         0.0600 
    153 H153        0.9469  -19.3006  -42.8728 H         1 UNK         0.0600 
    154 H154       -1.0012  -18.4284  -44.3588 H         1 UNK         0.3000 
    155 H155       -1.2043  -17.4689  -47.5269 H         1 UNK         0.0600 
    156 H156       -3.9025  -18.5875  -46.6015 H         1 UNK         0.0600 
    157 H157       -3.6838  -17.2565  -47.7350 H         1 UNK         0.0600 
    158 H158       -3.1431  -18.8728  -48.1630 H         1 UNK         0.0600 
    159 H159       -2.9028  -16.8070  -45.2407 H         1 UNK         0.3000 
    160 H160       -1.1140  -13.9222  -44.6929 H         1 UNK         0.0600 
    161 H161       -3.2752  -13.8448  -43.5417 H         1 UNK         0.0600 
    162 H162       -3.5213  -15.5716  -43.7532 H         1 UNK         0.0600 
    163 H163       -3.5039  -14.4988  -45.1523 H         1 UNK         0.0600 
    164 H164       -0.2943  -14.3228  -42.6921 H         1 UNK         0.3000 
    165 H165       -0.8907  -16.7369  -40.1734 H         1 UNK         0.0600 
    166 H166        1.5966  -16.6283  -39.9600 H         1 UNK         0.0600 
    167 H167        1.0960  -17.7058  -41.2472 H         1 UNK         0.0600 
    168 H168        1.7178  -16.1081  -41.6392 H         1 UNK         0.0600 
    169 H169        0.5090  -14.1608  -40.6318 H         1 UNK         0.3000 
    170 H170       -1.7955  -12.2511  -38.8932 H         1 UNK         0.0600 
    171 H171       -0.1976  -11.9399  -37.0120 H         1 UNK         0.0600 
    172 H172        0.5745  -13.4806  -37.3882 H         1 UNK         0.0600 
    173 H173       -1.0929  -13.4390  -36.8282 H         1 UNK         0.0600 
    174 H174        1.1146  -12.2192  -39.4271 H         1 UNK         0.3000 
    175 H175        0.7355  -10.3705  -42.4330 H         1 UNK         0.0600 
    176 H176        2.2589   -8.7879  -41.3089 H         1 UNK         0.0600 
    177 H177        1.8762   -9.4820  -39.7328 H         1 UNK         0.0600 
    178 H178        0.6423   -8.6210  -40.6450 H         1 UNK         0.0600 
    179 H179        3.1230  -11.0968  -41.2487 H         1 UNK         0.3000 
    180 H180        4.3284  -12.7159  -42.6317 H         1 UNK         0.0600 
    181 H181        3.2944  -14.7414  -40.5355 H         1 UNK         0.0600 
    182 H182        4.1391  -13.2478  -40.1629 H         1 UNK         0.0600 
    183 H183        4.9802  -14.5344  -40.9985 H         1 UNK         0.0600 
    184 H184        2.4241  -14.4238  -43.6503 H         1 UNK         0.3000 
    185 H185        4.4815  -16.6808  -45.4444 H         1 UNK         0.0600 
    186 H186        1.8816  -16.9291  -43.8335 H         1 UNK         0.0600 
    187 H187        2.3923  -17.9765  -45.1424 H         1 UNK         0.0600 
    188 H188        3.3026  -17.9538  -43.6376 H         1 UNK         0.0600 
    189 H189        1.8515  -15.5213  -45.8227 H         1 UNK         0.3000 
    190 H190       -1.4154  -21.8029  -47.3898 H         1 UNK         0.3000 
    191 H191       -3.6841  -23.4527  -47.8164 H         1 UNK         0.0600 
    192 H192       -3.8118  -21.1286  -46.9487 H         1 UNK         0.0600 
    193 H193       -4.6168  -22.2462  -45.8601 H         1 UNK         0.0600 
    194 H194       -3.0248  -21.6233  -45.4515 H         1 UNK         0.0600 
    195 H195       -0.9490  -23.8365  -45.5957 H         1 UNK         0.3000 
    196 H196       -2.0889  -25.8786  -43.9371 H         1 UNK         0.0600 
    197 H197        0.2972  -26.2984  -43.3220 H         1 UNK         0.0600 
    198 H198       -0.0836  -24.5851  -43.2726 H         1 UNK         0.0600 
    199 H199        0.8295  -25.2470  -44.6290 H         1 UNK         0.0600 
    200 H200       -0.8522  -25.9240  -47.2033 H         1 UNK         0.3000 
    201 H201       -0.6976  -28.8867  -47.3269 H         1 UNK         0.0600 
    202 H202        1.1469  -27.5221  -48.3542 H         1 UNK         0.0600 
    203 H203       -0.0249  -26.7521  -49.4232 H         1 UNK         0.0600 
    204 H204        0.2850  -28.4770  -49.5483 H         1 UNK         0.0600 
    205 H205       -3.1239  -26.7107  -47.2984 H         1 UNK         0.3000 
    206 H206       -5.1873  -26.5107  -47.9961 H         1 UNK         0.0600 
    207 H207       -5.3632  -28.9429  -47.4104 H         1 UNK         0.0600 
    208 H208       -6.4779  -28.4778  -48.6836 H         1 UNK         0.0600 
    209 H209       -5.0169  -29.3663  -49.0869 H         1 UNK         0.0600 
    210 H210       -3.0475  -25.5916  -49.7315 H         1 UNK         0.3000 
    211 H211       -4.5081  -25.4004  -52.3326 H         1 UNK         0.0600 
    212 H212       -1.4821  -25.6549  -51.8830 H         1 UNK         0.0600 
    213 H213       -2.2799  -25.4188  -53.4358 H         1 UNK         0.0600 
    214 H214       -2.5191  -26.9152  -52.5477 H         1 UNK         0.0600 
    215 H215       -5.1448  -23.7243  -50.3820 H         1 UNK         0.3000 
    216 H216       -3.5411  -21.6194  -49.6498 H         1 UNK         0.0600 
    217 H217       -5.6959  -20.5647  -48.9363 H         1 UNK         0.0600 
    218 H218       -5.7145  -22.2818  -48.5872 H         1 UNK         0.0600 
    219 H219       -6.5932  -21.6578  -49.9803 H         1 UNK         0.0600 
    220 H220       -3.9135  -19.3132  -49.9263 H         1 UNK         0.3000 
    221 H221       -3.2034  -18.2844  -52.3944 H         1 UNK         0.0600 
    222 H222       -4.6035  -16.8639  -50.0597 H         1 UNK         0.0600 
    223 H223       -2.8748  -17.1815  -50.1627 H         1 UNK         0.0600 
    224 H224       -3.6382  -16.0914  -51.3113 H         1 UNK         0.0600 
    225 H225       -4.2712  -17.5967  -54.1421 H         1 UNK         0.3000 
    226 H226       -5.7312  -17.1370  -55.6865 H         1 UNK         0.0600 
    227 H227       -6.6753  -15.3923  -54.1761 H         1 UNK         0.0600 
    228 H228       -7.9073  -16.0883  -55.2173 H         1 UNK         0.0600 
    229 H229       -7.8273  -16.5604  -53.5286 H         1 UNK         0.0600 
    230 H230       -6.8805  -19.4410  -53.2810 H         1 UNK         0.3000 
    231 H231       -8.7857  -20.8211  -54.9161 H         1 UNK         0.0600 
    232 H232       -7.1808  -21.7982  -52.4909 H         1 UNK         0.0600 
    233 H233       -8.6051  -22.5781  -53.1639 H         1 UNK         0.0600 
    234 H234       -8.7445  -20.9872  -52.4303 H         1 UNK         0.0600 
    235 H235       -5.2873  -21.2821  -54.3283 H         1 UNK         0.3000 
    236 H236       -5.0138  -22.6183  -56.9188 H         1 UNK         0.0600 
    237 H237       -5.4988  -24.5723  -55.4697 H         1 UNK         0.0600 
    238 H238       -3.8110  -24.6000  -55.9577 H         1 UNK         0.0600 
    239 H239       -4.2446  -24.0705  -54.3391 H         1 UNK         0.0600 
    240 H240       -3.4861  -21.2335  -53.9971 H         1 UNK         0.3000 
    241 H241       -1.5696  -20.2617  -53.6079 H         1 UNK         0.0600 
    242 H242       -1.3859  -22.9423  -53.3512 H         1 UNK         0.3800 
    243 H243        0.1578  -23.5119  -53.9630 H         1 UNK         0.3800 
    244 H244       -0.2200  -19.1695  -55.5782 H         1 UNK         0.0800 
    245 H245       -1.5029  -19.6853  -56.6119 H         1 UNK         0.0800 
    246 H246       -1.2313  -15.7660  -54.8028 H         1 UNK         0.0800 
    247 H247        0.0014  -16.9212  -55.2121 H         1 UNK         0.0800 
@<TRIPOS>BOND
     1    1    2 1    
     2    1  127 1    
     3    1  128 1    
     4    1  129 1    
     5    2    3 2    
     6    2    4 am   BACKBONE|DICT|INTERRES
     7    4    5 1    
     8    4  130 1    
     9    5    6 1    
    10    5   65 1    
    11    5  131 1    
    12    6    7 1    
    13    6  132 1    
    14    6  133 1    
    15    7    8 1    
    16    8    9 1    
    17    8  134 1    
    18    8  135 1    
    19    9   10 ar   
    20    9   14 ar   
    21   10   11 ar   
    22   10  136 1    
    23   11   12 ar   
    24   11  126 1    
    25   12   13 ar   
    26   12  137 1    
    27   13   14 ar   
    28   13   15 1    
    29   14  138 1    
    30   15   16 1    
    31   15  139 1    
    32   15  140 1    
    33   16   17 1    
    34   17   18 1    
    35   17  141 1    
    36   17  142 1    
    37   18   19 1    
    38   18   67 1    
    39   18  143 1    
    40   19   20 am   BACKBONE|DICT|INTERRES
    41   19  144 1    
    42   20   21 2    
    43   20   22 1    
    44   22   23 1    
    45   22   24 1    
    46   22  145 1    
    47   23  146 1    
    48   23  147 1    
    49   23  148 1    
    50   24   25 am   BACKBONE|DICT|INTERRES
    51   24  149 1    
    52   25   26 2    
    53   25   27 1    
    54   27   28 1    
    55   27   29 1    
    56   27  150 1    
    57   28  151 1    
    58   28  152 1    
    59   28  153 1    
    60   29   30 am   BACKBONE|DICT|INTERRES
    61   29  154 1    
    62   30   31 2    
    63   30   32 1    
    64   32   33 1    
    65   32   34 1    
    66   32  155 1    
    67   33  156 1    
    68   33  157 1    
    69   33  158 1    
    70   34   35 am   BACKBONE|DICT|INTERRES
    71   34  159 1    
    72   35   36 2    
    73   35   37 1    
    74   37   38 1    
    75   37   39 1    
    76   37  160 1    
    77   38  161 1    
    78   38  162 1    
    79   38  163 1    
    80   39   40 am   BACKBONE|DICT|INTERRES
    81   39  164 1    
    82   40   41 2    
    83   40   42 1    
    84   42   43 1    
    85   42   44 1    
    86   42  165 1    
    87   43  166 1    
    88   43  167 1    
    89   43  168 1    
    90   44   45 am   BACKBONE|DICT|INTERRES
    91   44  169 1    
    92   45   46 2    
    93   45   47 1    
    94   47   48 1    
    95   47   49 1    
    96   47  170 1    
    97   48  171 1    
    98   48  172 1    
    99   48  173 1    
   100   49   50 am   BACKBONE|DICT|INTERRES
   101   49  174 1    
   102   50   51 2    
   103   50   52 1    
   104   52   53 1    
   105   52   54 1    
   106   52  175 1    
   107   53  176 1    
   108   53  177 1    
   109   53  178 1    
   110   54   55 am   BACKBONE|DICT|INTERRES
   111   54  179 1    
   112   55   56 2    
   113   55   57 1    
   114   57   58 1    
   115   57   59 1    
   116   57  180 1    
   117   58  181 1    
   118   58  182 1    
   119   58  183 1    
   120   59   60 am   BACKBONE|DICT|INTERRES
   121   59  184 1    
   122   60   61 2    
   123   60   62 1    
   124   62   63 1    
   125   62   64 1    
   126   62  185 1    
   127   63  186 1    
   128   63  187 1    
   129   63  188 1    
   130   64   65 am   BACKBONE|DICT|INTERRES
   131   64  189 1    
   132   65   66 2    
   133   67   68 2    
   134   67   69 am   BACKBONE|DICT|INTERRES
   135   69   70 1    
   136   69  190 1    
   137   70   71 1    
   138   70   72 1    
   139   70  191 1    
   140   71  192 1    
   141   71  193 1    
   142   71  194 1    
   143   72   73 2    
   144   72   74 am   BACKBONE|DICT|INTERRES
   145   74   75 1    
   146   74  195 1    
   147   75   76 1    
   148   75   77 1    
   149   75  196 1    
   150   76  197 1    
   151   76  198 1    
   152   76  199 1    
   153   77   78 2    
   154   77   79 am   BACKBONE|DICT|INTERRES
   155   79   80 1    
   156   79  200 1    
   157   80   81 1    
   158   80   82 1    
   159   80  201 1    
   160   81  202 1    
   161   81  203 1    
   162   81  204 1    
   163   82   83 2    
   164   82   84 am   BACKBONE|DICT|INTERRES
   165   84   85 1    
   166   84  205 1    
   167   85   86 1    
   168   85   87 1    
   169   85  206 1    
   170   86  207 1    
   171   86  208 1    
   172   86  209 1    
   173   87   88 2    
   174   87   89 am   BACKBONE|DICT|INTERRES
   175   89   90 1    
   176   89  210 1    
   177   90   91 1    
   178   90   92 1    
   179   90  211 1    
   180   91  212 1    
   181   91  213 1    
   182   91  214 1    
   183   92   93 2    
   184   92   94 am   BACKBONE|DICT|INTERRES
   185   94   95 1    
   186   94  215 1    
   187   95   96 1    
   188   95   97 1    
   189   95  216 1    
   190   96  217 1    
   191   96  218 1    
   192   96  219 1    
   193   97   98 2    
   194   97   99 am   BACKBONE|DICT|INTERRES
   195   99  100 1    
   196   99  220 1    
   197  100  101 1    
   198  100  102 1    
   199  100  221 1    
   200  101  222 1    
   201  101  223 1    
   202  101  224 1    
   203  102  103 2    
   204  102  104 am   BACKBONE|DICT|INTERRES
   205  104  105 1    
   206  104  225 1    
   207  105  106 1    
   208  105  107 1    
   209  105  226 1    
   210  106  227 1    
   211  106  228 1    
   212  106  229 1    
   213  107  108 2    
   214  107  109 am   BACKBONE|DICT|INTERRES
   215  109  110 1    
   216  109  230 1    
   217  110  111 1    
   218  110  112 1    
   219  110  231 1    
   220  111  232 1    
   221  111  233 1    
   222  111  234 1    
   223  112  113 2    
   224  112  114 am   BACKBONE|DICT|INTERRES
   225  114  115 1    
   226  114  235 1    
   227  115  116 1    
   228  115  117 1    
   229  115  236 1    
   230  116  237 1    
   231  116  238 1    
   232  116  239 1    
   233  117  118 2    
   234  117  119 am   BACKBONE|DICT|INTERRES
   235  119  120 1    
   236  119  240 1    
   237  120  121 1    
   238  120  124 1    
   239  120  241 1    
   240  121  122 am   BACKBONE|DICT|INTERRES
   241  121  123 2    
   242  122  242 1    
   243  122  243 1    
   244  124  125 1    
   245  124  244 1    
   246  124  245 1    
   247  125  126 1    
   248  126  246 1    
   249  126  247 1    
@<TRIPOS>SUBSTRUCTURE
     1 UNK         1 GROUP             0       ****    0 ROOT    
