@<TRIPOS>MOLECULE
3R540
247   249    1
SMALL
USER_CHARGES


@<TRIPOS>ATOM
      1 CA          5.1618   -9.3058  -48.4289 C.3       0 UNK        -0.1800 
      2 C           4.5745  -10.7052  -48.5445 C.2       0 UNK         0.5000 
      3 O           4.8230  -11.5482  -47.6818 O.2       0 UNK        -0.5000 
      4 N           3.7993  -10.9611  -49.6065 N.am      1 UNK        -0.5000 
      5 CA          3.1000  -12.2283  -49.8334 C.3       1 UNK         0.1400 
      6 C6          2.5835  -12.3505  -51.2898 C.3       23 UNK        -0.0398 
      7 S7          2.4922  -14.0887  -51.8332 S.3       23 UNK        -0.2404 
      8 C8          0.6956  -14.3604  -51.8927 C.3       23 UNK        -0.0205 
      9 C9          0.3851  -15.8451  -51.9877 C.ar      23 UNK        -0.0193 
     10 C10         0.2208  -16.4681  -53.2290 C.ar      23 UNK        -0.1150 
     11 C11        -0.0310  -17.8432  -53.3064 C.ar      23 UNK        -0.0193 
     12 C12        -0.1270  -18.5915  -52.1276 C.ar      23 UNK        -0.1150 
     13 C13         0.0223  -17.9736  -50.8824 C.ar      23 UNK        -0.0193 
     14 C14         0.2813  -16.6035  -50.8207 C.ar      23 UNK        -0.1150 
     15 C15        -0.0927  -18.7704  -49.5955 C.3       23 UNK        -0.0205 
     16 S16         1.5479  -19.2783  -48.9909 S.3       23 UNK        -0.2404 
     17 C17         1.2086  -19.5393  -47.2166 C.3       23 UNK        -0.0398 
     18 CA          0.8587  -21.0026  -46.8566 C.3       11 UNK         0.1400 
     19 N           0.9576  -21.2496  -45.4186 N.am      11 UNK        -0.5000 
     20 C           0.8342  -22.4460  -44.8267 C.2       10 UNK         0.5000 
     21 O           0.6842  -23.5045  -45.4388 O.2       10 UNK        -0.5000 
     22 CA          0.8234  -22.4475  -43.2868 C.3       10 UNK         0.1400 
     23 CB          2.2492  -22.3416  -42.7254 C.3       10 UNK        -0.1800 
     24 N          -0.0046  -21.3733  -42.7337 N.am      10 UNK        -0.5000 
     25 C          -1.3304  -21.2762  -42.9120 C.2       9 UNK         0.5000 
     26 O          -2.0017  -22.1093  -43.5222 O.2       9 UNK        -0.5000 
     27 CA         -2.0156  -20.0159  -42.3539 C.3       9 UNK         0.1400 
     28 CB         -2.2390  -20.1408  -40.8396 C.3       9 UNK        -0.1800 
     29 N          -1.2706  -18.7899  -42.6450 N.am      9 UNK        -0.5000 
     30 C          -1.0407  -18.3146  -43.8778 C.2       8 UNK         0.5000 
     31 O          -1.4619  -18.8431  -44.9046 O.2       8 UNK        -0.5000 
     32 CA         -0.1465  -17.0692  -43.9939 C.3       8 UNK         0.1400 
     33 CB         -0.9422  -15.7983  -43.6681 C.3       8 UNK        -0.1800 
     34 N           1.0359  -17.1478  -43.1380 N.am      8 UNK        -0.5000 
     35 C           1.9872  -18.0877  -43.2290 C.2       7 UNK         0.5000 
     36 O           1.9957  -18.9715  -44.0838 O.2       7 UNK        -0.5000 
     37 CA          3.0820  -18.0759  -42.1509 C.3       7 UNK         0.1400 
     38 CB          4.1796  -17.0579  -42.4862 C.3       7 UNK        -0.1800 
     39 N           2.5331  -17.7931  -40.8266 N.am      7 UNK        -0.5000 
     40 C           1.7598  -18.6417  -40.1360 C.2       6 UNK         0.5000 
     41 O           1.4557  -19.7688  -40.5298 O.2       6 UNK        -0.5000 
     42 CA          1.2034  -18.1213  -38.7985 C.3       6 UNK         0.1400 
     43 CB          2.2555  -18.2432  -37.6860 C.3       6 UNK        -0.1800 
     44 N           0.7432  -16.7332  -38.8852 N.am      6 UNK        -0.5000 
     45 C          -0.3183  -16.3407  -39.6026 C.2       5 UNK         0.5000 
     46 O          -1.0206  -17.1100  -40.2580 O.2       5 UNK        -0.5000 
     47 CA         -0.6331  -14.8333  -39.6175 C.3       5 UNK         0.1400 
     48 CB         -1.4711  -14.4476  -38.3892 C.3       5 UNK        -0.1800 
     49 N           0.5440  -13.9603  -39.6957 N.am      5 UNK        -0.5000 
     50 C           1.4530  -13.9787  -40.6801 C.2       4 UNK         0.5000 
     51 O           1.4749  -14.8357  -41.5628 O.2       4 UNK        -0.5000 
     52 CA          2.5071  -12.8548  -40.6615 C.3       4 UNK         0.1400 
     53 CB          3.8942  -13.3854  -40.2489 C.3       4 UNK        -0.1800 
     54 N           2.5422  -12.1105  -41.9292 N.am      4 UNK        -0.5000 
     55 C           2.9879  -12.5140  -43.1288 C.2       3 UNK         0.5000 
     56 O           3.5934  -13.5665  -43.3400 O.2       3 UNK        -0.5000 
     57 CA          2.7392  -11.5490  -44.3038 C.3       3 UNK         0.1400 
     58 CB          3.9774  -10.6781  -44.5642 C.3       3 UNK        -0.1800 
     59 N           2.4104  -12.3000  -45.5160 N.am      3 UNK        -0.5000 
     60 C           1.2208  -12.8787  -45.7340 C.2       2 UNK         0.5000 
     61 O           0.2376  -12.6790  -45.0187 O.2       2 UNK        -0.5000 
     62 CA          1.1171  -13.8522  -46.9314 C.3       2 UNK         0.1400 
     63 CB         -0.3358  -14.0583  -47.4116 C.3       2 UNK        -0.1800 
     64 N           2.0059  -13.5109  -48.0500 N.am      2 UNK        -0.5000 
     65 C           1.9701  -12.3968  -48.7954 C.2       1 UNK         0.5000 
     66 O           1.1208  -11.5101  -48.6805 O.2       1 UNK        -0.5000 
     67 C          -0.5233  -21.4093  -47.4001 C.2       11 UNK         0.5000 
     68 O          -0.5819  -22.1504  -48.3769 O.2       11 UNK        -0.5000 
     69 N          -1.6034  -20.9549  -46.7480 N.am      12 UNK        -0.5000 
     70 CA         -2.9881  -21.2745  -47.0978 C.3       12 UNK         0.1400 
     71 CB         -3.9502  -20.5306  -46.1601 C.3       12 UNK        -0.1800 
     72 C          -3.2782  -22.7830  -47.0815 C.2       12 UNK         0.5000 
     73 O          -3.8794  -23.2881  -48.0291 O.2       12 UNK        -0.5000 
     74 N          -2.8105  -23.4754  -46.0335 N.am      13 UNK        -0.5000 
     75 CA         -2.9149  -24.9272  -45.8855 C.3       13 UNK         0.1400 
     76 CB         -2.3841  -25.3426  -44.5054 C.3       13 UNK        -0.1800 
     77 C          -2.1948  -25.6985  -47.0075 C.2       13 UNK         0.5000 
     78 O          -2.7523  -26.6653  -47.5291 O.2       13 UNK        -0.5000 
     79 N          -0.9925  -25.2381  -47.3820 N.am      14 UNK        -0.5000 
     80 CA         -0.2203  -25.7703  -48.5055 C.3       14 UNK         0.1400 
     81 CB          1.2127  -25.2188  -48.4511 C.3       14 UNK        -0.1800 
     82 C          -0.8772  -25.4689  -49.8665 C.2       14 UNK         0.5000 
     83 O          -0.9437  -26.3525  -50.7210 O.2       14 UNK        -0.5000 
     84 N          -1.3901  -24.2432  -50.0293 N.am      15 UNK        -0.5000 
     85 CA         -2.0456  -23.7178  -51.2286 C.3       15 UNK         0.1400 
     86 CB         -1.9152  -22.1830  -51.2275 C.3       15 UNK        -0.1800 
     87 C          -3.5116  -24.1772  -51.3939 C.2       15 UNK         0.5000 
     88 O          -4.3451  -23.3972  -51.8590 O.2       15 UNK        -0.5000 
     89 N          -3.8008  -25.4314  -51.0176 N.am      16 UNK        -0.5000 
     90 CA         -5.0789  -26.1367  -51.1596 C.3       16 UNK         0.1400 
     91 CB         -5.3370  -26.4626  -52.6454 C.3       16 UNK        -0.1800 
     92 C          -6.2636  -25.4152  -50.4806 C.2       16 UNK         0.5000 
     93 O          -7.3320  -25.2818  -51.0796 O.2       16 UNK        -0.5000 
     94 N          -6.0371  -24.9604  -49.2392 N.am      17 UNK        -0.5000 
     95 CA         -6.9498  -24.1676  -48.4054 C.3       17 UNK         0.1400 
     96 CB         -8.2338  -24.9539  -48.0645 C.3       17 UNK        -0.1800 
     97 C          -7.2187  -22.7749  -49.0134 C.2       17 UNK         0.5000 
     98 O          -8.3661  -22.3286  -49.0683 O.2       17 UNK        -0.5000 
     99 N          -6.1313  -22.1277  -49.4579 N.am      18 UNK        -0.5000 
    100 CA        -6.0661  -20.8271  -50.1299 C.3       18 UNK         0.1400 
    101 CB        -6.4049  -19.6859  -49.1488 C.3       18 UNK        -0.1800 
    102 C         -6.9088  -20.7843  -51.4207 C.2       18 UNK         0.5000 
    103 O         -7.7637  -19.9097  -51.5819 O.2       18 UNK        -0.5000 
    104 N         -6.6547  -21.7452  -52.3173 N.am      19 UNK        -0.5000 
    105 CA        -7.2518  -21.8131  -53.6501 C.3       19 UNK         0.1400 
    106 CB        -6.8956  -23.1664  -54.2828 C.3       19 UNK        -0.1800 
    107 C         -6.7633  -20.6603  -54.5466 C.2       19 UNK         0.5000 
    108 O         -5.6309  -20.2005  -54.3877 O.2       19 UNK        -0.5000 
    109 N         -7.5994  -20.2452  -55.5075 N.am      20 UNK        -0.5000 
    110 CA        -7.3144  -19.1494  -56.4437 C.3       20 UNK         0.1400 
    111 CB        -8.5743  -18.8544  -57.2719 C.3       20 UNK        -0.1800 
    112 C         -6.1091  -19.4137  -57.3696 C.2       20 UNK         0.5000 
    113 O         -5.4153  -18.4707  -57.7511 O.2       20 UNK        -0.5000 
    114 N         -5.8741  -20.6923  -57.6905 N.am      21 UNK        -0.5000 
    115 CA        -4.7191  -21.1701  -58.4533 C.3       21 UNK         0.1400 
    116 CB        -5.1626  -22.3825  -59.2894 C.3       21 UNK        -0.1800 
    117 C         -3.5202  -21.5418  -57.5539 C.2       21 UNK         0.5000 
    118 O         -2.4703  -21.9099  -58.0821 O.2       21 UNK        -0.5000 
    119 N         -3.6970  -21.4714  -56.2262 N.am      22 UNK        -0.5000 
    120 CA        -2.7318  -21.8666  -55.1851 C.3       22 UNK         0.1400 
    121 C         -2.3943  -23.3907  -55.1668 C.2       22 UNK         0.5000 
    122 N         -3.2526  -24.2623  -55.6834 N.am      22 UNK        -0.7600 
    123 O         -1.3506  -23.7989  -54.6662 O.2       22 UNK        -0.5000 
    124 C124       -1.4613  -20.9695  -55.1460 C.3       23 UNK        -0.0398 
    125 S125       -1.8335  -19.1927  -54.9447 S.3       23 UNK        -0.2404 
    126 C126       -0.1611  -18.5241  -54.6627 C.3       23 UNK        -0.0205 
    127 H127        4.8714   -8.6734  -49.2682 H         1 UNK         0.0600 
    128 H128        6.2502   -9.3572  -48.4019 H         1 UNK         0.0600 
    129 H129        4.8191   -8.8304  -47.5099 H         1 UNK         0.0600 
    130 H130        3.6025  -10.2220  -50.2661 H         1 UNK         0.3000 
    131 H131        3.8400  -13.0161  -49.6720 H         1 UNK         0.0600 
    132 H132        1.6259  -11.8453  -51.4301 H         1 UNK         0.0800 
    133 H133        3.2775  -11.8571  -51.9718 H         1 UNK         0.0800 
    134 H134        0.2284  -13.9435  -50.9987 H         1 UNK         0.0800 
    135 H135        0.2724  -13.8255  -52.7444 H         1 UNK         0.0800 
    136 H136        0.3085  -15.8837  -54.1343 H         1 UNK         0.1150 
    137 H137       -0.3169  -19.6540  -52.1820 H         1 UNK         0.1150 
    138 H138        0.4209  -16.1301  -49.8603 H         1 UNK         0.1150 
    139 H139       -0.6020  -18.1657  -48.8435 H         1 UNK         0.0800 
    140 H140       -0.7141  -19.6527  -49.7537 H         1 UNK         0.0800 
    141 H141        0.4422  -18.8462  -46.8677 H         1 UNK         0.0800 
    142 H142        2.1211  -19.2508  -46.6941 H         1 UNK         0.0800 
    143 H143        1.5987  -21.6503  -47.3317 H         1 UNK         0.0600 
    144 H144        1.1319  -20.4345  -44.8352 H         1 UNK         0.3000 
    145 H145        0.3990  -23.3988  -42.9591 H         1 UNK         0.0600 
    146 H146        2.2497  -22.4112  -41.6375 H         1 UNK         0.0600 
    147 H147        2.8785  -23.1479  -43.1042 H         1 UNK         0.0600 
    148 H148        2.7227  -21.3985  -42.9989 H         1 UNK         0.0600 
    149 H149        0.4716  -20.6605  -42.1920 H         1 UNK         0.3000 
    150 H150       -2.9930  -19.9316  -42.8330 H         1 UNK         0.0600 
    151 H151       -2.7944  -21.0482  -40.5993 H         1 UNK         0.0600 
    152 H152       -2.8134  -19.2972  -40.4565 H         1 UNK         0.0600 
    153 H153       -1.2957  -20.1771  -40.2938 H         1 UNK         0.0600 
    154 H154       -0.9316  -18.2639  -41.8448 H         1 UNK         0.3000 
    155 H155        0.2001  -16.9976  -45.0268 H         1 UNK         0.0600 
    156 H156       -1.3593  -15.8291  -42.6620 H         1 UNK         0.0600 
    157 H157       -0.3133  -14.9121  -43.7379 H         1 UNK         0.0600 
    158 H158       -1.7717  -15.6677  -44.3640 H         1 UNK         0.0600 
    159 H159        1.1408  -16.4149  -42.4390 H         1 UNK         0.3000 
    160 H160        3.5381  -19.0679  -42.1276 H         1 UNK         0.0600 
    161 H161        3.7879  -16.0418  -42.5073 H         1 UNK         0.0600 
    162 H162        4.6156  -17.2615  -43.4650 H         1 UNK         0.0600 
    163 H163        4.9873  -17.0911  -41.7551 H         1 UNK         0.0600 
    164 H164        2.6795  -16.8630  -40.4633 H         1 UNK         0.3000 
    165 H165        0.3495  -18.7468  -38.5290 H         1 UNK         0.0600 
    166 H166        1.8426  -17.9523  -36.7199 H         1 UNK         0.0600 
    167 H167        2.6057  -19.2721  -37.5921 H         1 UNK         0.0600 
    168 H168        3.1264  -17.6164  -37.8818 H         1 UNK         0.0600 
    169 H169        1.2715  -16.0373  -38.3798 H         1 UNK         0.3000 
    170 H170       -1.2356  -14.6397  -40.5071 H         1 UNK         0.0600 
    171 H171       -0.9088  -14.5705  -37.4627 H         1 UNK         0.0600 
    172 H172       -1.8023  -13.4106  -38.4467 H         1 UNK         0.0600 
    173 H173       -2.3652  -15.0683  -38.3155 H         1 UNK         0.0600 
    174 H174        0.6049  -13.2378  -38.9928 H         1 UNK         0.3000 
    175 H175        2.2064  -12.1251  -39.9081 H         1 UNK         0.0600 
    176 H176        4.6405  -12.5911  -40.2607 H         1 UNK         0.0600 
    177 H177        4.2429  -14.1836  -40.9039 H         1 UNK         0.0600 
    178 H178        3.8664  -13.7910  -39.2370 H         1 UNK         0.0600 
    179 H179        2.0678  -11.2189  -41.8949 H         1 UNK         0.3000 
    180 H180        1.9029  -10.8908  -44.0583 H         1 UNK         0.0600 
    181 H181        4.8465  -11.2825  -44.8274 H         1 UNK         0.0600 
    182 H182        4.2382  -10.0945  -43.6806 H         1 UNK         0.0600 
    183 H183        3.7994   -9.9748  -45.3777 H         1 UNK         0.0600 
    184 H184        3.1787  -12.5018  -46.1415 H         1 UNK         0.3000 
    185 H185        1.4690  -14.8140  -46.5549 H         1 UNK         0.0600 
    186 H186       -0.9564  -14.4673  -46.6136 H         1 UNK         0.0600 
    187 H187       -0.7943  -13.1226  -47.7319 H         1 UNK         0.0600 
    188 H188       -0.3854  -14.7570  -48.2445 H         1 UNK         0.0600 
    189 H189        2.7561  -14.1674  -48.2169 H         1 UNK         0.3000 
    190 H190       -1.4769  -20.3142  -45.9665 H         1 UNK         0.3000 
    191 H191       -3.1623  -20.9176  -48.1146 H         1 UNK         0.0600 
    192 H192       -3.8658  -19.4512  -46.2861 H         1 UNK         0.0600 
    193 H193       -4.9867  -20.8045  -46.3598 H         1 UNK         0.0600 
    194 H194       -3.7513  -20.7606  -45.1137 H         1 UNK         0.0600 
    195 H195       -2.3534  -22.9717  -45.2787 H         1 UNK         0.3000 
    196 H196       -3.9744  -25.1871  -45.9340 H         1 UNK         0.0600 
    197 H197       -2.4662  -26.4207  -44.3626 H         1 UNK         0.0600 
    198 H198       -2.9501  -24.8640  -43.7060 H         1 UNK         0.0600 
    199 H199       -1.3354  -25.0721  -44.3787 H         1 UNK         0.0600 
    200 H200       -0.5941  -24.4479  -46.8867 H         1 UNK         0.3000 
    201 H201       -0.1673  -26.8554  -48.3948 H         1 UNK         0.0600 
    202 H202        1.7014  -25.4856  -47.5138 H         1 UNK         0.0600 
    203 H203        1.2328  -24.1323  -48.5387 H         1 UNK         0.0600 
    204 H204        1.8182  -25.6250  -49.2622 H         1 UNK         0.0600 
    205 H205       -1.2572  -23.5692  -49.2774 H         1 UNK         0.3000 
    206 H206       -1.5017  -24.0958  -52.0944 H         1 UNK         0.0600 
    207 H207       -0.8714  -21.8785  -51.1511 H         1 UNK         0.0600 
    208 H208       -2.3099  -21.7448  -52.1427 H         1 UNK         0.0600 
    209 H209       -2.4569  -21.7386  -50.3922 H         1 UNK         0.0600 
    210 H210       -3.0318  -25.9837  -50.6576 H         1 UNK         0.3000 
    211 H211       -4.9646  -27.0849  -50.6323 H         1 UNK         0.0600 
    212 H212       -5.4477  -25.5588  -53.2438 H         1 UNK         0.0600 
    213 H213       -6.2455  -27.0532  -52.7684 H         1 UNK         0.0600 
    214 H214       -4.5159  -27.0414  -53.0682 H         1 UNK         0.0600 
    215 H215       -5.0985  -25.0524  -48.8708 H         1 UNK         0.3000 
    216 H216       -6.4265  -23.9907  -47.4648 H         1 UNK         0.0600 
    217 H217       -8.8337  -24.4155  -47.3300 H         1 UNK         0.0600 
    218 H218       -7.9975  -25.9287  -47.6380 H         1 UNK         0.0600 
    219 H219       -8.8622  -25.1135  -48.9408 H         1 UNK         0.0600 
    220 H220       -5.2434  -22.6050  -49.3397 H         1 UNK         0.3000 
    221 H221       -5.0284  -20.6949  -50.4405 H         1 UNK         0.0600 
    222 H222       -7.4264  -19.7600  -48.7747 H         1 UNK         0.0600 
    223 H223       -5.7323  -19.6883  -48.2933 H         1 UNK         0.0600 
    224 H224       -6.3031  -18.7133  -49.6317 H         1 UNK         0.0600 
    225 H225       -5.9042  -22.4051  -52.1225 H         1 UNK         0.3000 
    226 H226       -8.3366  -21.7454  -53.5459 H         1 UNK         0.0600 
    227 H227       -7.2833  -23.9904  -53.6836 H         1 UNK         0.0600 
    228 H228       -7.3234  -23.2626  -55.2813 H         1 UNK         0.0600 
    229 H229       -5.8161  -23.2954  -54.3702 H         1 UNK         0.0600 
    230 H230       -8.5088  -20.6776  -55.5877 H         1 UNK         0.3000 
    231 H231       -7.0804  -18.2617  -55.8521 H         1 UNK         0.0600 
    232 H232       -8.8781  -19.7182  -57.8646 H         1 UNK         0.0600 
    233 H233       -8.4036  -18.0267  -57.9617 H         1 UNK         0.0600 
    234 H234       -9.4111  -18.5738  -56.6319 H         1 UNK         0.0600 
    235 H235       -6.5078  -21.3959  -57.3408 H         1 UNK         0.3000 
    236 H236       -4.3822  -20.3902  -59.1393 H         1 UNK         0.0600 
    237 H237       -5.9839  -22.1211  -59.9569 H         1 UNK         0.0600 
    238 H238       -4.3463  -22.7505  -59.9122 H         1 UNK         0.0600 
    239 H239       -5.4923  -23.2088  -58.6585 H         1 UNK         0.0600 
    240 H240       -4.5606  -21.0802  -55.8691 H         1 UNK         0.3000 
    241 H241       -3.2612  -21.7040  -54.2465 H         1 UNK         0.0600 
    242 H242       -4.1100  -23.9521  -56.1085 H         1 UNK         0.3800 
    243 H243       -3.0259  -25.2438  -55.6686 H         1 UNK         0.3800 
    244 H244       -0.8680  -21.1046  -56.0513 H         1 UNK         0.0800 
    245 H245       -0.8213  -21.2655  -54.3131 H         1 UNK         0.0800 
    246 H246        0.5873  -19.3143  -54.7342 H         1 UNK         0.0800 
    247 H247        0.0669  -17.8232  -55.4671 H         1 UNK         0.0800 
@<TRIPOS>BOND
     1    1    2 1    
     2    1  127 1    
     3    1  128 1    
     4    1  129 1    
     5    2    3 2    
     6    2    4 am   BACKBONE|DICT|INTERRES
     7    4    5 1    
     8    4  130 1    
     9    5    6 1    
    10    5   65 1    
    11    5  131 1    
    12    6    7 1    
    13    6  132 1    
    14    6  133 1    
    15    7    8 1    
    16    8    9 1    
    17    8  134 1    
    18    8  135 1    
    19    9   10 ar   
    20    9   14 ar   
    21   10   11 ar   
    22   10  136 1    
    23   11   12 ar   
    24   11  126 1    
    25   12   13 ar   
    26   12  137 1    
    27   13   14 ar   
    28   13   15 1    
    29   14  138 1    
    30   15   16 1    
    31   15  139 1    
    32   15  140 1    
    33   16   17 1    
    34   17   18 1    
    35   17  141 1    
    36   17  142 1    
    37   18   19 1    
    38   18   67 1    
    39   18  143 1    
    40   19   20 am   BACKBONE|DICT|INTERRES
    41   19  144 1    
    42   20   21 2    
    43   20   22 1    
    44   22   23 1    
    45   22   24 1    
    46   22  145 1    
    47   23  146 1    
    48   23  147 1    
    49   23  148 1    
    50   24   25 am   BACKBONE|DICT|INTERRES
    51   24  149 1    
    52   25   26 2    
    53   25   27 1    
    54   27   28 1    
    55   27   29 1    
    56   27  150 1    
    57   28  151 1    
    58   28  152 1    
    59   28  153 1    
    60   29   30 am   BACKBONE|DICT|INTERRES
    61   29  154 1    
    62   30   31 2    
    63   30   32 1    
    64   32   33 1    
    65   32   34 1    
    66   32  155 1    
    67   33  156 1    
    68   33  157 1    
    69   33  158 1    
    70   34   35 am   BACKBONE|DICT|INTERRES
    71   34  159 1    
    72   35   36 2    
    73   35   37 1    
    74   37   38 1    
    75   37   39 1    
    76   37  160 1    
    77   38  161 1    
    78   38  162 1    
    79   38  163 1    
    80   39   40 am   BACKBONE|DICT|INTERRES
    81   39  164 1    
    82   40   41 2    
    83   40   42 1    
    84   42   43 1    
    85   42   44 1    
    86   42  165 1    
    87   43  166 1    
    88   43  167 1    
    89   43  168 1    
    90   44   45 am   BACKBONE|DICT|INTERRES
    91   44  169 1    
    92   45   46 2    
    93   45   47 1    
    94   47   48 1    
    95   47   49 1    
    96   47  170 1    
    97   48  171 1    
    98   48  172 1    
    99   48  173 1    
   100   49   50 am   BACKBONE|DICT|INTERRES
   101   49  174 1    
   102   50   51 2    
   103   50   52 1    
   104   52   53 1    
   105   52   54 1    
   106   52  175 1    
   107   53  176 1    
   108   53  177 1    
   109   53  178 1    
   110   54   55 am   BACKBONE|DICT|INTERRES
   111   54  179 1    
   112   55   56 2    
   113   55   57 1    
   114   57   58 1    
   115   57   59 1    
   116   57  180 1    
   117   58  181 1    
   118   58  182 1    
   119   58  183 1    
   120   59   60 am   BACKBONE|DICT|INTERRES
   121   59  184 1    
   122   60   61 2    
   123   60   62 1    
   124   62   63 1    
   125   62   64 1    
   126   62  185 1    
   127   63  186 1    
   128   63  187 1    
   129   63  188 1    
   130   64   65 am   BACKBONE|DICT|INTERRES
   131   64  189 1    
   132   65   66 2    
   133   67   68 2    
   134   67   69 am   BACKBONE|DICT|INTERRES
   135   69   70 1    
   136   69  190 1    
   137   70   71 1    
   138   70   72 1    
   139   70  191 1    
   140   71  192 1    
   141   71  193 1    
   142   71  194 1    
   143   72   73 2    
   144   72   74 am   BACKBONE|DICT|INTERRES
   145   74   75 1    
   146   74  195 1    
   147   75   76 1    
   148   75   77 1    
   149   75  196 1    
   150   76  197 1    
   151   76  198 1    
   152   76  199 1    
   153   77   78 2    
   154   77   79 am   BACKBONE|DICT|INTERRES
   155   79   80 1    
   156   79  200 1    
   157   80   81 1    
   158   80   82 1    
   159   80  201 1    
   160   81  202 1    
   161   81  203 1    
   162   81  204 1    
   163   82   83 2    
   164   82   84 am   BACKBONE|DICT|INTERRES
   165   84   85 1    
   166   84  205 1    
   167   85   86 1    
   168   85   87 1    
   169   85  206 1    
   170   86  207 1    
   171   86  208 1    
   172   86  209 1    
   173   87   88 2    
   174   87   89 am   BACKBONE|DICT|INTERRES
   175   89   90 1    
   176   89  210 1    
   177   90   91 1    
   178   90   92 1    
   179   90  211 1    
   180   91  212 1    
   181   91  213 1    
   182   91  214 1    
   183   92   93 2    
   184   92   94 am   BACKBONE|DICT|INTERRES
   185   94   95 1    
   186   94  215 1    
   187   95   96 1    
   188   95   97 1    
   189   95  216 1    
   190   96  217 1    
   191   96  218 1    
   192   96  219 1    
   193   97   98 2    
   194   97   99 am   BACKBONE|DICT|INTERRES
   195   99  100 1    
   196   99  220 1    
   197  100  101 1    
   198  100  102 1    
   199  100  221 1    
   200  101  222 1    
   201  101  223 1    
   202  101  224 1    
   203  102  103 2    
   204  102  104 am   BACKBONE|DICT|INTERRES
   205  104  105 1    
   206  104  225 1    
   207  105  106 1    
   208  105  107 1    
   209  105  226 1    
   210  106  227 1    
   211  106  228 1    
   212  106  229 1    
   213  107  108 2    
   214  107  109 am   BACKBONE|DICT|INTERRES
   215  109  110 1    
   216  109  230 1    
   217  110  111 1    
   218  110  112 1    
   219  110  231 1    
   220  111  232 1    
   221  111  233 1    
   222  111  234 1    
   223  112  113 2    
   224  112  114 am   BACKBONE|DICT|INTERRES
   225  114  115 1    
   226  114  235 1    
   227  115  116 1    
   228  115  117 1    
   229  115  236 1    
   230  116  237 1    
   231  116  238 1    
   232  116  239 1    
   233  117  118 2    
   234  117  119 am   BACKBONE|DICT|INTERRES
   235  119  120 1    
   236  119  240 1    
   237  120  121 1    
   238  120  124 1    
   239  120  241 1    
   240  121  122 am   BACKBONE|DICT|INTERRES
   241  121  123 2    
   242  122  242 1    
   243  122  243 1    
   244  124  125 1    
   245  124  244 1    
   246  124  245 1    
   247  125  126 1    
   248  126  246 1    
   249  126  247 1    
@<TRIPOS>SUBSTRUCTURE
     1 UNK         1 GROUP             0       ****    0 ROOT    
