@<TRIPOS>MOLECULE
3R540
247   249    1
SMALL
USER_CHARGES


@<TRIPOS>ATOM
      1 CA         -2.8516  -11.9459  -51.1571 C.3       0 UNK        -0.1800 
      2 C          -2.1118  -13.0845  -50.4710 C.2       0 UNK         0.5000 
      3 O          -2.4916  -13.4800  -49.3693 O.2       0 UNK        -0.5000 
      4 N          -1.0580  -13.6092  -51.1139 N.am      1 UNK        -0.5000 
      5 CA         -0.2123  -14.7078  -50.6320 C.3       1 UNK         0.1400 
      6 C6         -0.9783  -16.0638  -50.6352 C.3       23 UNK        -0.0398 
      7 S7          0.0656  -17.5463  -50.4361 S.3       23 UNK        -0.2404 
      8 C8          0.9892  -17.5682  -52.0016 C.3       23 UNK        -0.0205 
      9 C9          1.7531  -18.8711  -52.1623 C.ar      23 UNK        -0.0193 
     10 C10         1.3568  -19.8089  -53.1184 C.ar      23 UNK        -0.1150 
     11 C11         2.0516  -21.0129  -53.2593 C.ar      23 UNK        -0.0193 
     12 C12         3.1517  -21.2769  -52.4365 C.ar      23 UNK        -0.1150 
     13 C13         3.5505  -20.3499  -51.4679 C.ar      23 UNK        -0.0193 
     14 C14         2.8539  -19.1440  -51.3455 C.ar      23 UNK        -0.1150 
     15 C15         4.7079  -20.6578  -50.5247 C.3       23 UNK        -0.0205 
     16 S16         4.3505  -22.0269  -49.3675 S.3       23 UNK        -0.2404 
     17 C17         2.6915  -21.5929  -48.7457 C.3       23 UNK        -0.0398 
     18 CA          2.0918  -22.7080  -47.8560 C.3       11 UNK         0.1400 
     19 N           2.6928  -22.7406  -46.5192 N.am      11 UNK        -0.5000 
     20 C           2.5204  -23.7272  -45.6279 C.2       10 UNK         0.5000 
     21 O           1.8416  -24.7320  -45.8433 O.2       10 UNK        -0.5000 
     22 CA          3.1999  -23.5503  -44.2566 C.3       10 UNK         0.1400 
     23 CB          4.5832  -24.2185  -44.2539 C.3       10 UNK        -0.1800 
     24 N           3.3421  -22.1501  -43.8437 N.am      10 UNK        -0.5000 
     25 C           2.3201  -21.3366  -43.5463 C.2       9 UNK         0.5000 
     26 O           1.1359  -21.6587  -43.6517 O.2       9 UNK        -0.5000 
     27 CA          2.6852  -19.9120  -43.0905 C.3       9 UNK         0.1400 
     28 CB          2.3478  -18.8948  -44.1923 C.3       9 UNK        -0.1800 
     29 N           2.0048  -19.5231  -41.8541 N.am      9 UNK        -0.5000 
     30 C           2.1614  -20.1193  -40.6632 C.2       8 UNK         0.5000 
     31 O           2.8952  -21.0917  -40.4796 O.2       8 UNK        -0.5000 
     32 CA          1.4025  -19.5247  -39.4637 C.3       8 UNK         0.1400 
     33 CB          2.2387  -18.4134  -38.8085 C.3       8 UNK        -0.1800 
     34 N           0.0993  -18.9712  -39.8364 N.am      8 UNK        -0.5000 
     35 C          -1.0827  -19.4109  -39.3796 C.2       7 UNK         0.5000 
     36 O          -1.2059  -20.3761  -38.6241 O.2       7 UNK        -0.5000 
     37 CA         -2.3498  -18.6383  -39.8096 C.3       7 UNK         0.1400 
     38 CB         -2.8045  -17.6917  -38.6879 C.3       7 UNK        -0.1800 
     39 N          -2.1688  -17.8579  -41.0330 N.am      7 UNK        -0.5000 
     40 C          -2.0528  -18.3845  -42.2587 C.2       6 UNK         0.5000 
     41 O          -2.2201  -19.5791  -42.4960 O.2       6 UNK        -0.5000 
     42 CA         -1.6535  -17.4306  -43.4059 C.3       6 UNK         0.1400 
     43 CB         -2.8553  -17.1539  -44.3222 C.3       6 UNK        -0.1800 
     44 N          -1.0634  -16.1564  -42.9695 N.am      6 UNK        -0.5000 
     45 C           0.0693  -16.0375  -42.2562 C.2       5 UNK         0.5000 
     46 O           0.7222  -17.0103  -41.8796 O.2       5 UNK        -0.5000 
     47 CA          0.5551  -14.6294  -41.8648 C.3       5 UNK         0.1400 
     48 CB          1.9692  -14.3661  -42.4071 C.3       5 UNK        -0.1800 
     49 N          -0.3480  -13.5645  -42.3030 N.am      5 UNK        -0.5000 
     50 C          -1.4392  -13.1740  -41.6275 C.2       4 UNK         0.5000 
     51 O          -1.7848  -13.6729  -40.5558 O.2       4 UNK        -0.5000 
     52 CA         -2.3043  -12.0576  -42.2492 C.3       4 UNK         0.1400 
     53 CB         -1.9766  -10.7031  -41.6026 C.3       4 UNK        -0.1800 
     54 N          -2.1666  -11.9342  -43.7020 N.am      4 UNK        -0.5000 
     55 C          -2.5348  -12.8664  -44.5904 C.2       3 UNK         0.5000 
     56 O          -3.0500  -13.9379  -44.2706 O.2       3 UNK        -0.5000 
     57 CA         -2.2419  -12.5879  -46.0799 C.3       3 UNK         0.1400 
     58 CB         -1.7852  -11.1431  -46.3807 C.3       3 UNK        -0.1800 
     59 N          -1.2756  -13.5436  -46.6267 N.am      3 UNK        -0.5000 
     60 C          -0.0529  -13.8266  -46.1490 C.2       2 UNK         0.5000 
     61 O           0.4317  -13.2840  -45.1558 O.2       2 UNK        -0.5000 
     62 CA          0.7742  -14.8950  -46.8939 C.3       2 UNK         0.1400 
     63 CB          0.7695  -16.2230  -46.1213 C.3       2 UNK        -0.1800 
     64 N           0.3003  -15.1503  -48.2531 N.am      2 UNK        -0.5000 
     65 C           0.4634  -14.3222  -49.2922 C.2       1 UNK         0.5000 
     66 O           1.1047  -13.2710  -49.2258 O.2       1 UNK        -0.5000 
     67 C           0.5574  -22.5723  -47.8265 C.2       11 UNK         0.5000 
     68 O          -0.0827  -22.9969  -48.7864 O.2       11 UNK        -0.5000 
     69 N          -0.0124  -21.9984  -46.7551 N.am      12 UNK        -0.5000 
     70 CA         -1.4345  -21.6566  -46.6407 C.3       12 UNK         0.1400 
     71 CB         -1.6812  -20.9620  -45.2980 C.3       12 UNK        -0.1800 
     72 C          -2.4040  -22.8400  -46.8186 C.2       12 UNK         0.5000 
     73 O          -3.5199  -22.6317  -47.2954 O.2       12 UNK        -0.5000 
     74 N          -1.9561  -24.0531  -46.4685 N.am      13 UNK        -0.5000 
     75 CA         -2.7026  -25.2982  -46.6485 C.3       13 UNK         0.1400 
     76 CB         -2.0103  -26.4149  -45.8527 C.3       13 UNK        -0.1800 
     77 C          -2.8588  -25.7057  -48.1273 C.2       13 UNK         0.5000 
     78 O          -3.8883  -26.2759  -48.4892 O.2       13 UNK        -0.5000 
     79 N          -1.8470  -25.4035  -48.9519 N.am      14 UNK        -0.5000 
     80 CA         -1.8469  -25.6587  -50.3932 C.3       14 UNK         0.1400 
     81 CB         -0.4120  -25.9568  -50.8564 C.3       14 UNK        -0.1800 
     82 C          -2.4199  -24.4589  -51.1615 C.2       14 UNK         0.5000 
     83 O          -3.1995  -24.6393  -52.0973 O.2       14 UNK        -0.5000 
     84 N          -2.0330  -23.2498  -50.7386 N.am      15 UNK        -0.5000 
     85 CA         -2.4334  -21.9759  -51.3269 C.3       15 UNK         0.1400 
     86 CB         -1.5184  -20.8702  -50.7821 C.3       15 UNK        -0.1800 
     87 C          -3.9091  -21.6150  -51.0872 C.2       15 UNK         0.5000 
     88 O          -4.4072  -20.7209  -51.7682 O.2       15 UNK        -0.5000 
     89 N          -4.5705  -22.2985  -50.1408 N.am      16 UNK        -0.5000 
     90 CA         -5.9295  -22.0431  -49.6551 C.3       16 UNK         0.1400 
     91 CB         -6.9806  -22.3352  -50.7457 C.3       16 UNK        -0.1800 
     92 C          -6.0249  -20.6308  -49.0478 C.2       16 UNK         0.5000 
     93 O          -6.8300  -19.8030  -49.4802 O.2       16 UNK        -0.5000 
     94 N          -5.1313  -20.3862  -48.0794 N.am      17 UNK        -0.5000 
     95 CA         -4.8505  -19.1082  -47.4301 C.3       17 UNK         0.1400 
     96 CB         -6.0219  -18.6881  -46.5146 C.3       17 UNK        -0.1800 
     97 C          -4.4231  -18.0426  -48.4597 C.2       17 UNK         0.5000 
     98 O          -3.3777  -18.2029  -49.0895 O.2       17 UNK        -0.5000 
     99 N          -5.2228  -16.9808  -48.6097 N.am      18 UNK        -0.5000 
    100 CA        -4.9312  -15.8293  -49.4614 C.3       18 UNK         0.1400 
    101 CB        -5.7664  -14.6354  -48.9716 C.3       18 UNK        -0.1800 
    102 C         -5.1487  -16.0658  -50.9701 C.2       18 UNK         0.5000 
    103 O         -4.7683  -15.2048  -51.7641 O.2       18 UNK        -0.5000 
    104 N         -5.7772  -17.1882  -51.3507 N.am      19 UNK        -0.5000 
    105 CA        -6.1832  -17.4753  -52.7306 C.3       19 UNK         0.1400 
    106 CB        -7.1624  -18.6572  -52.7340 C.3       19 UNK        -0.1800 
    107 C         -5.0191  -17.7311  -53.7102 C.2       19 UNK         0.5000 
    108 O         -5.1992  -17.5184  -54.9101 O.2       19 UNK        -0.5000 
    109 N         -3.8639  -18.1776  -53.1925 N.am      20 UNK        -0.5000 
    110 CA        -2.6418  -18.5275  -53.9298 C.3       20 UNK         0.1400 
    111 CB        -2.0195  -17.2736  -54.5818 C.3       20 UNK        -0.1800 
    112 C         -2.8534  -19.6845  -54.9341 C.2       20 UNK         0.5000 
    113 O         -2.3340  -19.6315  -56.0495 O.2       20 UNK        -0.5000 
    114 N         -3.6408  -20.6890  -54.5233 N.am      21 UNK        -0.5000 
    115 CA        -4.0512  -21.8463  -55.3193 C.3       21 UNK         0.1400 
    116 CB        -5.1897  -22.5821  -54.5869 C.3       21 UNK        -0.1800 
    117 C         -2.8780  -22.7783  -55.6930 C.2       21 UNK         0.5000 
    118 O         -2.3247  -22.6430  -56.7848 O.2       21 UNK        -0.5000 
    119 N         -2.5417  -23.7253  -54.8049 N.am      22 UNK        -0.5000 
    120 CA        -1.4905  -24.7489  -54.9783 C.3       22 UNK         0.1400 
    121 C         -1.7706  -25.7941  -56.1033 C.2       22 UNK         0.5000 
    122 N         -3.0068  -25.9606  -56.5578 N.am      22 UNK        -0.7600 
    123 O         -0.8652  -26.4920  -56.5526 O.2       22 UNK        -0.5000 
    124 C124       -0.0552  -24.1558  -55.0537 C.3       23 UNK        -0.0398 
    125 S125        0.3695  -23.1643  -53.5834 S.3       23 UNK        -0.2404 
    126 C126        1.5985  -22.0302  -54.2917 C.3       23 UNK        -0.0205 
    127 H127       -2.3919  -11.6774  -52.1085 H         1 UNK         0.0600 
    128 H128       -3.8849  -12.2364  -51.3476 H         1 UNK         0.0600 
    129 H129       -2.8557  -11.0630  -50.5180 H         1 UNK         0.0600 
    130 H130       -0.7791  -13.2087  -51.9985 H         1 UNK         0.3000 
    131 H131        0.5974  -14.7797  -51.3579 H         1 UNK         0.0600 
    132 H132       -1.7355  -16.0811  -49.8525 H         1 UNK         0.0800 
    133 H133       -1.5319  -16.1741  -51.5675 H         1 UNK         0.0800 
    134 H134        1.6953  -16.7376  -52.0264 H         1 UNK         0.0800 
    135 H135        0.3020  -17.4203  -52.8344 H         1 UNK         0.0800 
    136 H136        0.5018  -19.6094  -53.7487 H         1 UNK         0.1150 
    137 H137        3.6811  -22.2147  -52.5300 H         1 UNK         0.1150 
    138 H138        3.1497  -18.4233  -50.5959 H         1 UNK         0.1150 
    139 H139        5.5906  -20.9128  -51.1124 H         1 UNK         0.0800 
    140 H140        4.9744  -19.7731  -49.9443 H         1 UNK         0.0800 
    141 H141        2.0525  -21.4268  -49.6150 H         1 UNK         0.0800 
    142 H142        2.7355  -20.6408  -48.2142 H         1 UNK         0.0800 
    143 H143        2.2963  -23.6702  -48.3314 H         1 UNK         0.0600 
    144 H144        3.2819  -21.9613  -46.2667 H         1 UNK         0.3000 
    145 H145        2.5761  -24.0554  -43.5160 H         1 UNK         0.0600 
    146 H146        5.0397  -24.1772  -43.2647 H         1 UNK         0.0600 
    147 H147        4.5093  -25.2707  -44.5320 H         1 UNK         0.0600 
    148 H148        5.2636  -23.7397  -44.9594 H         1 UNK         0.0600 
    149 H149        4.2867  -21.8105  -43.7331 H         1 UNK         0.3000 
    150 H150        3.7595  -19.8653  -42.9013 H         1 UNK         0.0600 
    151 H151        2.8704  -19.1316  -45.1198 H         1 UNK         0.0600 
    152 H152        2.6422  -17.8860  -43.9019 H         1 UNK         0.0600 
    153 H153        1.2800  -18.8814  -44.4118 H         1 UNK         0.0600 
    154 H154        1.4234  -18.6918  -41.9096 H         1 UNK         0.3000 
    155 H155        1.2832  -20.3272  -38.7330 H         1 UNK         0.0600 
    156 H156        2.3944  -17.5736  -39.4872 H         1 UNK         0.0600 
    157 H157        3.2208  -18.7844  -38.5122 H         1 UNK         0.0600 
    158 H158        1.7511  -18.0323  -37.9110 H         1 UNK         0.0600 
    159 H159        0.1166  -18.1916  -40.4854 H         1 UNK         0.3000 
    160 H160       -3.1411  -19.3713  -39.9802 H         1 UNK         0.0600 
    161 H161       -2.0569  -16.9246  -38.4811 H         1 UNK         0.0600 
    162 H162       -2.9791  -18.2388  -37.7605 H         1 UNK         0.0600 
    163 H163       -3.7370  -17.1904  -38.9481 H         1 UNK         0.0600 
    164 H164       -2.0353  -16.8631  -40.9239 H         1 UNK         0.3000 
    165 H165       -0.8963  -17.9504  -43.9940 H         1 UNK         0.0600 
    166 H166       -2.5662  -16.5633  -45.1916 H         1 UNK         0.0600 
    167 H167       -3.2885  -18.0838  -44.6915 H         1 UNK         0.0600 
    168 H168       -3.6424  -16.6127  -43.7960 H         1 UNK         0.0600 
    169 H169       -1.5619  -15.3165  -43.2368 H         1 UNK         0.3000 
    170 H170        0.6181  -14.6099  -40.7748 H         1 UNK         0.0600 
    171 H171        2.6837  -15.0776  -41.9911 H         1 UNK         0.0600 
    172 H172        2.0165  -14.4597  -43.4911 H         1 UNK         0.0600 
    173 H173        2.3154  -13.3675  -42.1405 H         1 UNK         0.0600 
    174 H174       -0.1473  -13.1533  -43.2098 H         1 UNK         0.3000 
    175 H175       -3.3474  -12.2964  -42.0318 H         1 UNK         0.0600 
    176 H176       -0.9489  -10.3991  -41.8056 H         1 UNK         0.0600 
    177 H177       -2.6387   -9.9190  -41.9703 H         1 UNK         0.0600 
    178 H178       -2.0981  -10.7470  -40.5194 H         1 UNK         0.0600 
    179 H179       -1.7195  -11.0960  -44.0440 H         1 UNK         0.3000 
    180 H180       -3.1792  -12.7563  -46.6121 H         1 UNK         0.0600 
    181 H181       -0.8274  -10.9060  -45.9162 H         1 UNK         0.0600 
    182 H182       -2.5191  -10.4154  -46.0323 H         1 UNK         0.0600 
    183 H183       -1.6729  -10.9928  -47.4548 H         1 UNK         0.0600 
    184 H184       -1.5751  -14.0030  -47.4782 H         1 UNK         0.3000 
    185 H185        1.8035  -14.5340  -46.9461 H         1 UNK         0.0600 
    186 H186       -0.2332  -16.6446  -46.0535 H         1 UNK         0.0600 
    187 H187        1.4109  -16.9617  -46.6025 H         1 UNK         0.0600 
    188 H188        1.1408  -16.0879  -45.1057 H         1 UNK         0.0600 
    189 H189       -0.2018  -16.0147  -48.4010 H         1 UNK         0.3000 
    190 H190        0.5732  -21.7379  -45.9729 H         1 UNK         0.3000 
    191 H191       -1.6587  -20.9362  -47.4282 H         1 UNK         0.0600 
    192 H192       -2.7217  -20.6516  -45.1974 H         1 UNK         0.0600 
    193 H193       -1.0636  -20.0702  -45.1961 H         1 UNK         0.0600 
    194 H194       -1.4578  -21.6208  -44.4581 H         1 UNK         0.0600 
    195 H195       -1.0207  -24.1300  -46.0944 H         1 UNK         0.3000 
    196 H196       -3.7042  -25.1563  -46.2368 H         1 UNK         0.0600 
    197 H197       -2.5493  -27.3581  -45.9518 H         1 UNK         0.0600 
    198 H198       -1.9699  -26.1748  -44.7900 H         1 UNK         0.0600 
    199 H199       -0.9889  -26.5814  -46.1979 H         1 UNK         0.0600 
    200 H200       -1.0662  -24.8708  -48.5892 H         1 UNK         0.3000 
    201 H201       -2.4632  -26.5320  -50.6171 H         1 UNK         0.0600 
    202 H202       -0.0069  -26.8299  -50.3449 H         1 UNK         0.0600 
    203 H203        0.2584  -25.1170  -50.6676 H         1 UNK         0.0600 
    204 H204       -0.3821  -26.1636  -51.9268 H         1 UNK         0.0600 
    205 H205       -1.3499  -23.1934  -49.9846 H         1 UNK         0.3000 
    206 H206       -2.2826  -22.0392  -52.4053 H         1 UNK         0.0600 
    207 H207       -0.4759  -21.0517  -51.0452 H         1 UNK         0.0600 
    208 H208       -1.7916  -19.8943  -51.1798 H         1 UNK         0.0600 
    209 H209       -1.5825  -20.7953  -49.6982 H         1 UNK         0.0600 
    210 H210       -4.0443  -22.9814  -49.6133 H         1 UNK         0.3000 
    211 H211       -6.1050  -22.7436  -48.8371 H         1 UNK         0.0600 
    212 H212       -6.8591  -21.6985  -51.6200 H         1 UNK         0.0600 
    213 H213       -7.9903  -22.1785  -50.3650 H         1 UNK         0.0600 
    214 H214       -6.9158  -23.3702  -51.0811 H         1 UNK         0.0600 
    215 H215       -4.5124  -21.1518  -47.8221 H         1 UNK         0.3000 
    216 H216       -3.9805  -19.2737  -46.7943 H         1 UNK         0.0600 
    217 H217       -5.7923  -17.7657  -45.9793 H         1 UNK         0.0600 
    218 H218       -6.2156  -19.4521  -45.7617 H         1 UNK         0.0600 
    219 H219       -6.9483  -18.5330  -47.0686 H         1 UNK         0.0600 
    220 H220       -6.0828  -16.9463  -48.0820 H         1 UNK         0.3000 
    221 H221       -3.8810  -15.5793  -49.3265 H         1 UNK         0.0600 
    222 H222       -6.8360  -14.8253  -49.0678 H         1 UNK         0.0600 
    223 H223       -5.5546  -14.4090  -47.9264 H         1 UNK         0.0600 
    224 H224       -5.5376  -13.7364  -49.5458 H         1 UNK         0.0600 
    225 H225       -6.0454  -17.8644  -50.6464 H         1 UNK         0.3000 
    226 H226       -6.7218  -16.6006  -53.1013 H         1 UNK         0.0600 
    227 H227       -6.6894  -19.5620  -52.3580 H         1 UNK         0.0600 
    228 H228       -8.0345  -18.4526  -52.1129 H         1 UNK         0.0600 
    229 H229       -7.5207  -18.8691  -53.7421 H         1 UNK         0.0600 
    230 H230       -3.8570  -18.3844  -52.2021 H         1 UNK         0.3000 
    231 H231       -1.9292  -18.8927  -53.1918 H         1 UNK         0.0600 
    232 H232       -1.0325  -17.4949  -54.9892 H         1 UNK         0.0600 
    233 H233       -1.9006  -16.4657  -53.8612 H         1 UNK         0.0600 
    234 H234       -2.6312  -16.8971  -55.4020 H         1 UNK         0.0600 
    235 H235       -4.0278  -20.6300  -53.5842 H         1 UNK         0.3000 
    236 H236       -4.4629  -21.4660  -56.2564 H         1 UNK         0.0600 
    237 H237       -5.5245  -23.4507  -55.1550 H         1 UNK         0.0600 
    238 H238       -4.8909  -22.9299  -53.5981 H         1 UNK         0.0600 
    239 H239       -6.0537  -21.9301  -54.4557 H         1 UNK         0.0600 
    240 H240       -3.0512  -23.7986  -53.9310 H         1 UNK         0.3000 
    241 H241       -1.5267  -25.3467  -54.0682 H         1 UNK         0.0600 
    242 H242       -3.1829  -26.6448  -57.2769 H         1 UNK         0.3800 
    243 H243       -3.7673  -25.4125  -56.1901 H         1 UNK         0.3800 
    244 H244        0.6884  -24.9509  -55.1273 H         1 UNK         0.0800 
    245 H245        0.0572  -23.5501  -55.9536 H         1 UNK         0.0800 
    246 H246        2.4521  -22.6011  -54.6602 H         1 UNK         0.0800 
    247 H247        1.1691  -21.5178  -55.1544 H         1 UNK         0.0800 
@<TRIPOS>BOND
     1    1    2 1    
     2    1  127 1    
     3    1  128 1    
     4    1  129 1    
     5    2    3 2    
     6    2    4 am   BACKBONE|DICT|INTERRES
     7    4    5 1    
     8    4  130 1    
     9    5    6 1    
    10    5   65 1    
    11    5  131 1    
    12    6    7 1    
    13    6  132 1    
    14    6  133 1    
    15    7    8 1    
    16    8    9 1    
    17    8  134 1    
    18    8  135 1    
    19    9   10 ar   
    20    9   14 ar   
    21   10   11 ar   
    22   10  136 1    
    23   11   12 ar   
    24   11  126 1    
    25   12   13 ar   
    26   12  137 1    
    27   13   14 ar   
    28   13   15 1    
    29   14  138 1    
    30   15   16 1    
    31   15  139 1    
    32   15  140 1    
    33   16   17 1    
    34   17   18 1    
    35   17  141 1    
    36   17  142 1    
    37   18   19 1    
    38   18   67 1    
    39   18  143 1    
    40   19   20 am   BACKBONE|DICT|INTERRES
    41   19  144 1    
    42   20   21 2    
    43   20   22 1    
    44   22   23 1    
    45   22   24 1    
    46   22  145 1    
    47   23  146 1    
    48   23  147 1    
    49   23  148 1    
    50   24   25 am   BACKBONE|DICT|INTERRES
    51   24  149 1    
    52   25   26 2    
    53   25   27 1    
    54   27   28 1    
    55   27   29 1    
    56   27  150 1    
    57   28  151 1    
    58   28  152 1    
    59   28  153 1    
    60   29   30 am   BACKBONE|DICT|INTERRES
    61   29  154 1    
    62   30   31 2    
    63   30   32 1    
    64   32   33 1    
    65   32   34 1    
    66   32  155 1    
    67   33  156 1    
    68   33  157 1    
    69   33  158 1    
    70   34   35 am   BACKBONE|DICT|INTERRES
    71   34  159 1    
    72   35   36 2    
    73   35   37 1    
    74   37   38 1    
    75   37   39 1    
    76   37  160 1    
    77   38  161 1    
    78   38  162 1    
    79   38  163 1    
    80   39   40 am   BACKBONE|DICT|INTERRES
    81   39  164 1    
    82   40   41 2    
    83   40   42 1    
    84   42   43 1    
    85   42   44 1    
    86   42  165 1    
    87   43  166 1    
    88   43  167 1    
    89   43  168 1    
    90   44   45 am   BACKBONE|DICT|INTERRES
    91   44  169 1    
    92   45   46 2    
    93   45   47 1    
    94   47   48 1    
    95   47   49 1    
    96   47  170 1    
    97   48  171 1    
    98   48  172 1    
    99   48  173 1    
   100   49   50 am   BACKBONE|DICT|INTERRES
   101   49  174 1    
   102   50   51 2    
   103   50   52 1    
   104   52   53 1    
   105   52   54 1    
   106   52  175 1    
   107   53  176 1    
   108   53  177 1    
   109   53  178 1    
   110   54   55 am   BACKBONE|DICT|INTERRES
   111   54  179 1    
   112   55   56 2    
   113   55   57 1    
   114   57   58 1    
   115   57   59 1    
   116   57  180 1    
   117   58  181 1    
   118   58  182 1    
   119   58  183 1    
   120   59   60 am   BACKBONE|DICT|INTERRES
   121   59  184 1    
   122   60   61 2    
   123   60   62 1    
   124   62   63 1    
   125   62   64 1    
   126   62  185 1    
   127   63  186 1    
   128   63  187 1    
   129   63  188 1    
   130   64   65 am   BACKBONE|DICT|INTERRES
   131   64  189 1    
   132   65   66 2    
   133   67   68 2    
   134   67   69 am   BACKBONE|DICT|INTERRES
   135   69   70 1    
   136   69  190 1    
   137   70   71 1    
   138   70   72 1    
   139   70  191 1    
   140   71  192 1    
   141   71  193 1    
   142   71  194 1    
   143   72   73 2    
   144   72   74 am   BACKBONE|DICT|INTERRES
   145   74   75 1    
   146   74  195 1    
   147   75   76 1    
   148   75   77 1    
   149   75  196 1    
   150   76  197 1    
   151   76  198 1    
   152   76  199 1    
   153   77   78 2    
   154   77   79 am   BACKBONE|DICT|INTERRES
   155   79   80 1    
   156   79  200 1    
   157   80   81 1    
   158   80   82 1    
   159   80  201 1    
   160   81  202 1    
   161   81  203 1    
   162   81  204 1    
   163   82   83 2    
   164   82   84 am   BACKBONE|DICT|INTERRES
   165   84   85 1    
   166   84  205 1    
   167   85   86 1    
   168   85   87 1    
   169   85  206 1    
   170   86  207 1    
   171   86  208 1    
   172   86  209 1    
   173   87   88 2    
   174   87   89 am   BACKBONE|DICT|INTERRES
   175   89   90 1    
   176   89  210 1    
   177   90   91 1    
   178   90   92 1    
   179   90  211 1    
   180   91  212 1    
   181   91  213 1    
   182   91  214 1    
   183   92   93 2    
   184   92   94 am   BACKBONE|DICT|INTERRES
   185   94   95 1    
   186   94  215 1    
   187   95   96 1    
   188   95   97 1    
   189   95  216 1    
   190   96  217 1    
   191   96  218 1    
   192   96  219 1    
   193   97   98 2    
   194   97   99 am   BACKBONE|DICT|INTERRES
   195   99  100 1    
   196   99  220 1    
   197  100  101 1    
   198  100  102 1    
   199  100  221 1    
   200  101  222 1    
   201  101  223 1    
   202  101  224 1    
   203  102  103 2    
   204  102  104 am   BACKBONE|DICT|INTERRES
   205  104  105 1    
   206  104  225 1    
   207  105  106 1    
   208  105  107 1    
   209  105  226 1    
   210  106  227 1    
   211  106  228 1    
   212  106  229 1    
   213  107  108 2    
   214  107  109 am   BACKBONE|DICT|INTERRES
   215  109  110 1    
   216  109  230 1    
   217  110  111 1    
   218  110  112 1    
   219  110  231 1    
   220  111  232 1    
   221  111  233 1    
   222  111  234 1    
   223  112  113 2    
   224  112  114 am   BACKBONE|DICT|INTERRES
   225  114  115 1    
   226  114  235 1    
   227  115  116 1    
   228  115  117 1    
   229  115  236 1    
   230  116  237 1    
   231  116  238 1    
   232  116  239 1    
   233  117  118 2    
   234  117  119 am   BACKBONE|DICT|INTERRES
   235  119  120 1    
   236  119  240 1    
   237  120  121 1    
   238  120  124 1    
   239  120  241 1    
   240  121  122 am   BACKBONE|DICT|INTERRES
   241  121  123 2    
   242  122  242 1    
   243  122  243 1    
   244  124  125 1    
   245  124  244 1    
   246  124  245 1    
   247  125  126 1    
   248  126  246 1    
   249  126  247 1    
@<TRIPOS>SUBSTRUCTURE
     1 UNK         1 GROUP             0       ****    0 ROOT    
