@<TRIPOS>MOLECULE
3R540
247   249    1
SMALL
USER_CHARGES


@<TRIPOS>ATOM
      1 CA         -0.4204  -18.1722  -42.5781 C.3       0 UNK        -0.1800 
      2 C          -1.4845  -17.4251  -43.3677 C.2       0 UNK         0.5000 
      3 O          -2.6494  -17.3908  -42.9722 O.2       0 UNK        -0.5000 
      4 N          -1.0704  -16.8259  -44.4864 N.am      1 UNK        -0.5000 
      5 CA         -1.8808  -15.9747  -45.3536 C.3       1 UNK         0.1400 
      6 C6         -1.1654  -15.8175  -46.7104 C.3       23 UNK        -0.0398 
      7 S7         -2.0031  -14.7945  -47.9639 S.3       23 UNK        -0.2404 
      8 C8         -0.5981  -14.3749  -49.0526 C.3       23 UNK        -0.0205 
      9 C9          0.0461  -15.6058  -49.6821 C.ar      23 UNK        -0.0193 
     10 C10        -0.3296  -16.0304  -50.9602 C.ar      23 UNK        -0.1150 
     11 C11         0.2526  -17.1641  -51.5398 C.ar      23 UNK        -0.0193 
     12 C12         1.1951  -17.8956  -50.8035 C.ar      23 UNK        -0.1150 
     13 C13         1.5871  -17.4770  -49.5278 C.ar      23 UNK        -0.0193 
     14 C14         1.0292  -16.3176  -48.9885 C.ar      23 UNK        -0.1150 
     15 C15         2.6395  -18.2466  -48.7399 C.3       23 UNK        -0.0205 
     16 S16         2.0925  -19.9113  -48.2371 S.3       23 UNK        -0.2404 
     17 C17         0.7872  -19.5967  -46.9933 C.3       23 UNK        -0.0398 
     18 CA         -0.4539  -20.4982  -47.2116 C.3       11 UNK         0.1400 
     19 N          -0.1126  -21.9229  -47.3269 N.am      11 UNK        -0.5000 
     20 C          -0.9729  -22.8776  -47.7076 C.2       10 UNK         0.5000 
     21 O          -2.1501  -22.6501  -47.9820 O.2       10 UNK        -0.5000 
     22 CA         -0.4645  -24.3304  -47.7433 C.3       10 UNK         0.1400 
     23 CB          0.0453  -24.6759  -49.1504 C.3       10 UNK        -0.1800 
     24 N           0.5826  -24.6223  -46.7605 N.am      10 UNK        -0.5000 
     25 C           0.4559  -24.4988  -45.4316 C.2       9 UNK         0.5000 
     26 O          -0.5799  -24.1190  -44.8816 O.2       9 UNK        -0.5000 
     27 CA          1.6947  -24.7947  -44.5579 C.3       9 UNK         0.1400 
     28 CB          2.9757  -25.1155  -45.3610 C.3       9 UNK        -0.1800 
     29 N           1.9514  -23.7049  -43.6086 N.am      9 UNK        -0.5000 
     30 C           2.1209  -22.4102  -43.9144 C.2       8 UNK         0.5000 
     31 O           2.0799  -21.9743  -45.0679 O.2       8 UNK        -0.5000 
     32 CA          2.3218  -21.4272  -42.7401 C.3       8 UNK         0.1400 
     33 CB          3.0483  -22.0446  -41.5245 C.3       8 UNK        -0.1800 
     34 N           2.9751  -20.1903  -43.1833 N.am      8 UNK        -0.5000 
     35 C           4.2142  -20.0589  -43.6845 C.2       7 UNK         0.5000 
     36 O           5.0563  -20.9580  -43.6869 O.2       7 UNK        -0.5000 
     37 CA          4.5485  -18.6912  -44.3147 C.3       7 UNK         0.1400 
     38 CB          5.5999  -18.8123  -45.4335 C.3       7 UNK        -0.1800 
     39 N           3.3370  -18.0913  -44.8836 N.am      7 UNK        -0.5000 
     40 C           2.7476  -16.9272  -44.5867 C.2       6 UNK         0.5000 
     41 O           1.6878  -16.6096  -45.1292 O.2       6 UNK        -0.5000 
     42 CA          3.3788  -15.9675  -43.5585 C.3       6 UNK         0.1400 
     43 CB          4.6038  -15.2433  -44.1507 C.3       6 UNK        -0.1800 
     44 N           2.3813  -14.9725  -43.1814 N.am      6 UNK        -0.5000 
     45 C           2.3843  -14.2208  -42.0737 C.2       5 UNK         0.5000 
     46 O           3.2058  -14.3494  -41.1641 O.2       5 UNK        -0.5000 
     47 CA          1.2925  -13.1293  -41.9979 C.3       5 UNK         0.1400 
     48 CB          1.5755  -12.0467  -40.9355 C.3       5 UNK        -0.1800 
     49 N           1.0267  -12.5352  -43.3139 N.am      5 UNK        -0.5000 
     50 C           1.8904  -11.8607  -44.0885 C.2       4 UNK         0.5000 
     51 O           3.0001  -11.4816  -43.7129 O.2       4 UNK        -0.5000 
     52 CA          1.4753  -11.6016  -45.5459 C.3       4 UNK         0.1400 
     53 CB          2.0365  -12.7127  -46.4494 C.3       4 UNK        -0.1800 
     54 N           0.0223  -11.5316  -45.7339 N.am      4 UNK        -0.5000 
     55 C          -0.6260  -10.4577  -46.2086 C.2       3 UNK         0.5000 
     56 O          -0.0752   -9.3854  -46.4627 O.2       3 UNK        -0.5000 
     57 CA         -2.1387  -10.5910  -46.4791 C.3       3 UNK         0.1400 
     58 CB         -2.3948  -10.7926  -47.9809 C.3       3 UNK        -0.1800 
     59 N          -2.7726  -11.6852  -45.7451 N.am      3 UNK        -0.5000 
     60 C          -3.0926  -11.6436  -44.4450 C.2       2 UNK         0.5000 
     61 O          -2.9137  -10.6579  -43.7291 O.2       2 UNK        -0.5000 
     62 CA         -3.7003  -12.9236  -43.8342 C.3       2 UNK         0.1400 
     63 CB         -5.2323  -12.8192  -43.7876 C.3       2 UNK        -0.1800 
     64 N          -3.3289  -14.1663  -44.5217 N.am      2 UNK        -0.5000 
     65 C          -2.0757  -14.6161  -44.6610 C.2       1 UNK         0.5000 
     66 O          -1.0809  -13.9874  -44.2950 O.2       1 UNK        -0.5000 
     67 C          -1.5392  -20.2581  -46.1378 C.2       11 UNK         0.5000 
     68 O          -2.3391  -19.3360  -46.2858 O.2       11 UNK        -0.5000 
     69 N          -1.5908  -21.1322  -45.1224 N.am      12 UNK        -0.5000 
     70 CA         -2.6884  -21.2210  -44.1659 C.3       12 UNK         0.1400 
     71 CB         -2.1277  -21.6041  -42.7848 C.3       12 UNK        -0.1800 
     72 C          -3.7374  -22.2473  -44.6345 C.2       12 UNK         0.5000 
     73 O          -4.9026  -21.8935  -44.8171 O.2       12 UNK        -0.5000 
     74 N          -3.3068  -23.5062  -44.8004 N.am      13 UNK        -0.5000 
     75 CA         -4.1644  -24.6870  -44.9335 C.3       13 UNK         0.1400 
     76 CB         -3.3003  -25.9498  -44.7950 C.3       13 UNK        -0.1800 
     77 C          -4.9976  -24.7544  -46.2244 C.2       13 UNK         0.5000 
     78 O          -6.0944  -25.3136  -46.1978 O.2       13 UNK        -0.5000 
     79 N          -4.4794  -24.1876  -47.3199 N.am      14 UNK        -0.5000 
     80 CA         -5.1437  -24.1233  -48.6228 C.3       14 UNK         0.1400 
     81 CB         -4.1820  -24.6341  -49.7160 C.3       14 UNK        -0.1800 
     82 C          -5.7179  -22.7187  -48.9018 C.2       14 UNK         0.5000 
     83 O          -5.9890  -22.4034  -50.0615 O.2       14 UNK        -0.5000 
     84 N          -5.9172  -21.9273  -47.8312 N.am      15 UNK        -0.5000 
     85 CA         -6.5806  -20.6201  -47.7665 C.3       15 UNK         0.1400 
     86 CB         -8.0810  -20.7664  -48.0926 C.3       15 UNK        -0.1800 
     87 C          -5.8903  -19.5741  -48.6563 C.2       15 UNK         0.5000 
     88 O          -6.3056  -19.3708  -49.7972 O.2       15 UNK        -0.5000 
     89 N          -4.7991  -18.9812  -48.1451 N.am      16 UNK        -0.5000 
     90 CA         -3.8774  -18.0965  -48.8785 C.3       16 UNK         0.1400 
     91 CB         -4.5863  -16.8010  -49.3315 C.3       16 UNK        -0.1800 
     92 C          -3.1777  -18.8328  -50.0411 C.2       16 UNK         0.5000 
     93 O          -2.8362  -18.2151  -51.0476 O.2       16 UNK        -0.5000 
     94 N          -3.0499  -20.1619  -49.8956 N.am      17 UNK        -0.5000 
     95 CA         -2.6293  -21.1432  -50.8951 C.3       17 UNK         0.1400 
     96 CB         -1.1045  -21.0893  -51.1157 C.3       17 UNK        -0.1800 
     97 C          -3.4428  -21.1089  -52.2067 C.2       17 UNK         0.5000 
     98 O          -2.9513  -21.5893  -53.2266 O.2       17 UNK        -0.5000 
     99 N          -4.6766  -20.5816  -52.1740 N.am      18 UNK        -0.5000 
    100 CA        -5.5523  -20.4422  -53.3375 C.3       18 UNK         0.1400 
    101 CB        -6.7693  -19.5806  -52.9742 C.3       18 UNK        -0.1800 
    102 C         -5.9981  -21.7973  -53.9071 C.2       18 UNK         0.5000 
    103 O         -6.0058  -21.9670  -55.1266 O.2       18 UNK        -0.5000 
    104 N         -6.2913  -22.7614  -53.0220 N.am      19 UNK        -0.5000 
    105 CA        -6.6319  -24.1375  -53.3986 C.3       19 UNK         0.1400 
    106 CB        -7.3233  -24.8362  -52.2172 C.3       19 UNK        -0.1800 
    107 C         -5.4177  -24.9475  -53.9044 C.2       19 UNK         0.5000 
    108 O         -5.6065  -25.9932  -54.5262 O.2       19 UNK        -0.5000 
    109 N         -4.2030  -24.4408  -53.6532 N.am      20 UNK        -0.5000 
    110 CA        -2.9320  -24.9750  -54.1429 C.3       20 UNK         0.1400 
    111 CB        -1.9305  -24.9808  -52.9739 C.3       20 UNK        -0.1800 
    112 C         -2.3831  -24.1618  -55.3364 C.2       20 UNK         0.5000 
    113 O         -1.2683  -24.4358  -55.7842 O.2       20 UNK        -0.5000 
    114 N         -3.1415  -23.1566  -55.8080 N.am      21 UNK        -0.5000 
    115 CA        -2.8109  -22.2038  -56.8775 C.3       21 UNK         0.1400 
    116 CB        -2.8301  -22.9152  -58.2458 C.3       21 UNK        -0.1800 
    117 C         -1.5019  -21.4146  -56.6345 C.2       21 UNK         0.5000 
    118 O         -0.8165  -21.0463  -57.5903 O.2       21 UNK        -0.5000 
    119 N         -1.1689  -21.1883  -55.3569 N.am      22 UNK        -0.5000 
    120 CA         0.1032  -20.6322  -54.8694 C.3       22 UNK         0.1400 
    121 C          1.3535  -21.5290  -55.1483 C.2       22 UNK         0.5000 
    122 N          1.1972  -22.8142  -55.4487 N.am      22 UNK        -0.7600 
    123 O          2.4897  -21.0706  -55.0699 O.2       22 UNK        -0.5000 
    124 C124        0.2886  -19.1361  -55.2605 C.3       23 UNK        -0.0398 
    125 S125        1.1909  -18.1793  -53.9904 S.3       23 UNK        -0.2404 
    126 C126       -0.1845  -17.6046  -52.9381 C.3       23 UNK        -0.0205 
    127 H127        0.4031  -17.5053  -42.3218 H         1 UNK         0.0600 
    128 H128       -0.8332  -18.5719  -41.6518 H         1 UNK         0.0600 
    129 H129       -0.0270  -19.0004  -43.1671 H         1 UNK         0.0600 
    130 H130       -0.0808  -16.8457  -44.7206 H         1 UNK         0.3000 
    131 H131       -2.8495  -16.4523  -45.5158 H         1 UNK         0.0600 
    132 H132       -0.1748  -15.3957  -46.5420 H         1 UNK         0.0800 
    133 H133       -1.0168  -16.8043  -47.1477 H         1 UNK         0.0800 
    134 H134        0.1443  -13.8147  -48.4847 H         1 UNK         0.0800 
    135 H135       -0.9509  -13.6999  -49.8335 H         1 UNK         0.0800 
    136 H136       -1.0857  -15.4803  -51.5024 H         1 UNK         0.1150 
    137 H137        1.6321  -18.7904  -51.2234 H         1 UNK         0.1150 
    138 H138        1.3557  -15.9795  -48.0160 H         1 UNK         0.1150 
    139 H139        3.5314  -18.3485  -49.3593 H         1 UNK         0.0800 
    140 H140        2.9499  -17.6903  -47.8542 H         1 UNK         0.0800 
    141 H141        1.2074  -19.7572  -46.0013 H         1 UNK         0.0800 
    142 H142        0.5019  -18.5457  -47.0330 H         1 UNK         0.0800 
    143 H143       -0.8952  -20.1979  -48.1621 H         1 UNK         0.0600 
    144 H144        0.8315  -22.1770  -47.0645 H         1 UNK         0.3000 
    145 H145       -1.3157  -24.9767  -47.5211 H         1 UNK         0.0600 
    146 H146        0.3145  -25.7296  -49.2255 H         1 UNK         0.0600 
    147 H147       -0.7196  -24.4837  -49.9042 H         1 UNK         0.0600 
    148 H148        0.9219  -24.0840  -49.4169 H         1 UNK         0.0600 
    149 H149        1.4762  -24.9132  -47.1294 H         1 UNK         0.3000 
    150 H150        1.4435  -25.6744  -43.9640 H         1 UNK         0.0600 
    151 H151        2.8415  -25.9973  -45.9886 H         1 UNK         0.0600 
    152 H152        3.8089  -25.3283  -44.6911 H         1 UNK         0.0600 
    153 H153        3.2769  -24.2868  -46.0033 H         1 UNK         0.0600 
    154 H154        1.9592  -23.9704  -42.6344 H         1 UNK         0.3000 
    155 H155        1.3215  -21.1388  -42.4144 H         1 UNK         0.0600 
    156 H156        3.2548  -21.2891  -40.7664 H         1 UNK         0.0600 
    157 H157        3.9974  -22.5028  -41.8045 H         1 UNK         0.0600 
    158 H158        2.4399  -22.8134  -41.0474 H         1 UNK         0.0600 
    159 H159        2.3678  -19.3889  -43.2557 H         1 UNK         0.3000 
    160 H160        4.9726  -18.0841  -43.5161 H         1 UNK         0.0600 
    161 H161        5.2683  -19.4899  -46.2217 H         1 UNK         0.0600 
    162 H162        6.5460  -19.1930  -45.0469 H         1 UNK         0.0600 
    163 H163        5.8051  -17.8457  -45.8931 H         1 UNK         0.0600 
    164 H164        2.8894  -18.6726  -45.5761 H         1 UNK         0.3000 
    165 H165        3.6573  -16.5293  -42.6658 H         1 UNK         0.0600 
    166 H166        5.3935  -15.9398  -44.4285 H         1 UNK         0.0600 
    167 H167        4.3379  -14.6784  -45.0450 H         1 UNK         0.0600 
    168 H168        5.0355  -14.5438  -43.4347 H         1 UNK         0.0600 
    169 H169        1.6417  -14.8517  -43.8619 H         1 UNK         0.3000 
    170 H170        0.3739  -13.6412  -41.7074 H         1 UNK         0.0600 
    171 H171        1.6190  -12.4839  -39.9375 H         1 UNK         0.0600 
    172 H172        2.5253  -11.5411  -41.1099 H         1 UNK         0.0600 
    173 H173        0.7897  -11.2915  -40.9246 H         1 UNK         0.0600 
    174 H174        0.1557  -12.8525  -43.7338 H         1 UNK         0.3000 
    175 H175        1.9493  -10.6635  -45.8413 H         1 UNK         0.0600 
    176 H176        1.5883  -13.6817  -46.2264 H         1 UNK         0.0600 
    177 H177        1.8572  -12.4890  -47.5006 H         1 UNK         0.0600 
    178 H178        3.1152  -12.8140  -46.3233 H         1 UNK         0.0600 
    179 H179       -0.5107  -12.3614  -45.5056 H         1 UNK         0.3000 
    180 H180       -2.6097   -9.6523  -46.1795 H         1 UNK         0.0600 
    181 H181       -1.9817   -9.9673  -48.5622 H         1 UNK         0.0600 
    182 H182       -1.9373  -11.7116  -48.3476 H         1 UNK         0.0600 
    183 H183       -3.4622  -10.8385  -48.1977 H         1 UNK         0.0600 
    184 H184       -2.9560  -12.5341  -46.2603 H         1 UNK         0.3000 
    185 H185       -3.3321  -12.9952  -42.8086 H         1 UNK         0.0600 
    186 H186       -5.6628  -12.7784  -44.7890 H         1 UNK         0.0600 
    187 H187       -5.6709  -13.6705  -43.2666 H         1 UNK         0.0600 
    188 H188       -5.5478  -11.9193  -43.2577 H         1 UNK         0.0600 
    189 H189       -4.0929  -14.7347  -44.8576 H         1 UNK         0.3000 
    190 H190       -0.9312  -21.9000  -45.1208 H         1 UNK         0.3000 
    191 H191       -3.1823  -20.2516  -44.0681 H         1 UNK         0.0600 
    192 H192       -2.9305  -21.7069  -42.0537 H         1 UNK         0.0600 
    193 H193       -1.4469  -20.8426  -42.4096 H         1 UNK         0.0600 
    194 H194       -1.5823  -22.5482  -42.8089 H         1 UNK         0.0600 
    195 H195       -2.3123  -23.6997  -44.6958 H         1 UNK         0.3000 
    196 H196       -4.8682  -24.6703  -44.0987 H         1 UNK         0.0600 
    197 H197       -3.9139  -26.8510  -44.8299 H         1 UNK         0.0600 
    198 H198       -2.7637  -25.9592  -43.8460 H         1 UNK         0.0600 
    199 H199       -2.5642  -26.0227  -45.5961 H         1 UNK         0.0600 
    200 H200       -3.5913  -23.6978  -47.2597 H         1 UNK         0.3000 
    201 H201       -6.0100  -24.7874  -48.6381 H         1 UNK         0.0600 
    202 H202       -4.0386  -25.7106  -49.6247 H         1 UNK         0.0600 
    203 H203       -3.1990  -24.1771  -49.6547 H         1 UNK         0.0600 
    204 H204       -4.5581  -24.4477  -50.7203 H         1 UNK         0.0600 
    205 H205       -5.6156  -22.2867  -46.9338 H         1 UNK         0.3000 
    206 H206       -6.5007  -20.2766  -46.7338 H         1 UNK         0.0600 
    207 H207       -8.5665  -21.4600  -47.4061 H         1 UNK         0.0600 
    208 H208       -8.5930  -19.8077  -48.0037 H         1 UNK         0.0600 
    209 H209       -8.2462  -21.1308  -49.1073 H         1 UNK         0.0600 
    210 H210       -4.4965  -19.2258  -47.2101 H         1 UNK         0.3000 
    211 H211       -3.0889  -17.8055  -48.1859 H         1 UNK         0.0600 
    212 H212       -5.3667  -16.9914  -50.0678 H         1 UNK         0.0600 
    213 H213       -3.8800  -16.1114  -49.7942 H         1 UNK         0.0600 
    214 H214       -5.0381  -16.2831  -48.4858 H         1 UNK         0.0600 
    215 H215       -3.3732  -20.5611  -49.0257 H         1 UNK         0.3000 
    216 H216       -2.8525  -22.1160  -50.4647 H         1 UNK         0.0600 
    217 H217       -0.7824  -20.1171  -51.4782 H         1 UNK         0.0600 
    218 H218       -0.7758  -21.8403  -51.8338 H         1 UNK         0.0600 
    219 H219       -0.5630  -21.2863  -50.1929 H         1 UNK         0.0600 
    220 H220       -5.0507  -20.2504  -51.2909 H         1 UNK         0.3000 
    221 H221       -4.9890  -19.9226  -54.1154 H         1 UNK         0.0600 
    222 H222       -7.3804  -20.0538  -52.2043 H         1 UNK         0.0600 
    223 H223       -6.4628  -18.6022  -52.6034 H         1 UNK         0.0600 
    224 H224       -7.4058  -19.4160  -53.8443 H         1 UNK         0.0600 
    225 H225       -6.2399  -22.5515  -52.0276 H         1 UNK         0.3000 
    226 H226       -7.3494  -24.0954  -54.2209 H         1 UNK         0.0600 
    227 H227       -8.2181  -24.2944  -51.9105 H         1 UNK         0.0600 
    228 H228       -7.6334  -25.8461  -52.4886 H         1 UNK         0.0600 
    229 H229       -6.6720  -24.9179  -51.3494 H         1 UNK         0.0600 
    230 H230       -4.1467  -23.5548  -53.1701 H         1 UNK         0.3000 
    231 H231       -3.0602  -26.0034  -54.4859 H         1 UNK         0.0600 
    232 H232       -1.7277  -23.9736  -52.6104 H         1 UNK         0.0600 
    233 H233       -2.3064  -25.5686  -52.1363 H         1 UNK         0.0600 
    234 H234       -0.9776  -25.4188  -53.2730 H         1 UNK         0.0600 
    235 H235       -4.0348  -22.9947  -55.3615 H         1 UNK         0.3000 
    236 H236       -3.6113  -21.4625  -56.8787 H         1 UNK         0.0600 
    237 H237       -3.7701  -23.4448  -58.4008 H         1 UNK         0.0600 
    238 H238       -2.7246  -22.2004  -59.0627 H         1 UNK         0.0600 
    239 H239       -2.0188  -23.6382  -58.3356 H         1 UNK         0.0600 
    240 H240       -1.8181  -21.4897  -54.6319 H         1 UNK         0.3000 
    241 H241       -0.0062  -20.6683  -53.7868 H         1 UNK         0.0600 
    242 H242        0.2766  -23.2329  -55.5369 H         1 UNK         0.3800 
    243 H243        2.0136  -23.3794  -55.6182 H         1 UNK         0.3800 
    244 H244       -0.6805  -18.6582  -55.4109 H         1 UNK         0.0800 
    245 H245        0.8096  -19.0468  -56.2151 H         1 UNK         0.0800 
    246 H246       -0.6836  -16.7828  -53.4534 H         1 UNK         0.0800 
    247 H247       -0.9275  -18.3947  -52.8460 H         1 UNK         0.0800 
@<TRIPOS>BOND
     1    1    2 1    
     2    1  127 1    
     3    1  128 1    
     4    1  129 1    
     5    2    3 2    
     6    2    4 am   BACKBONE|DICT|INTERRES
     7    4    5 1    
     8    4  130 1    
     9    5    6 1    
    10    5   65 1    
    11    5  131 1    
    12    6    7 1    
    13    6  132 1    
    14    6  133 1    
    15    7    8 1    
    16    8    9 1    
    17    8  134 1    
    18    8  135 1    
    19    9   10 ar   
    20    9   14 ar   
    21   10   11 ar   
    22   10  136 1    
    23   11   12 ar   
    24   11  126 1    
    25   12   13 ar   
    26   12  137 1    
    27   13   14 ar   
    28   13   15 1    
    29   14  138 1    
    30   15   16 1    
    31   15  139 1    
    32   15  140 1    
    33   16   17 1    
    34   17   18 1    
    35   17  141 1    
    36   17  142 1    
    37   18   19 1    
    38   18   67 1    
    39   18  143 1    
    40   19   20 am   BACKBONE|DICT|INTERRES
    41   19  144 1    
    42   20   21 2    
    43   20   22 1    
    44   22   23 1    
    45   22   24 1    
    46   22  145 1    
    47   23  146 1    
    48   23  147 1    
    49   23  148 1    
    50   24   25 am   BACKBONE|DICT|INTERRES
    51   24  149 1    
    52   25   26 2    
    53   25   27 1    
    54   27   28 1    
    55   27   29 1    
    56   27  150 1    
    57   28  151 1    
    58   28  152 1    
    59   28  153 1    
    60   29   30 am   BACKBONE|DICT|INTERRES
    61   29  154 1    
    62   30   31 2    
    63   30   32 1    
    64   32   33 1    
    65   32   34 1    
    66   32  155 1    
    67   33  156 1    
    68   33  157 1    
    69   33  158 1    
    70   34   35 am   BACKBONE|DICT|INTERRES
    71   34  159 1    
    72   35   36 2    
    73   35   37 1    
    74   37   38 1    
    75   37   39 1    
    76   37  160 1    
    77   38  161 1    
    78   38  162 1    
    79   38  163 1    
    80   39   40 am   BACKBONE|DICT|INTERRES
    81   39  164 1    
    82   40   41 2    
    83   40   42 1    
    84   42   43 1    
    85   42   44 1    
    86   42  165 1    
    87   43  166 1    
    88   43  167 1    
    89   43  168 1    
    90   44   45 am   BACKBONE|DICT|INTERRES
    91   44  169 1    
    92   45   46 2    
    93   45   47 1    
    94   47   48 1    
    95   47   49 1    
    96   47  170 1    
    97   48  171 1    
    98   48  172 1    
    99   48  173 1    
   100   49   50 am   BACKBONE|DICT|INTERRES
   101   49  174 1    
   102   50   51 2    
   103   50   52 1    
   104   52   53 1    
   105   52   54 1    
   106   52  175 1    
   107   53  176 1    
   108   53  177 1    
   109   53  178 1    
   110   54   55 am   BACKBONE|DICT|INTERRES
   111   54  179 1    
   112   55   56 2    
   113   55   57 1    
   114   57   58 1    
   115   57   59 1    
   116   57  180 1    
   117   58  181 1    
   118   58  182 1    
   119   58  183 1    
   120   59   60 am   BACKBONE|DICT|INTERRES
   121   59  184 1    
   122   60   61 2    
   123   60   62 1    
   124   62   63 1    
   125   62   64 1    
   126   62  185 1    
   127   63  186 1    
   128   63  187 1    
   129   63  188 1    
   130   64   65 am   BACKBONE|DICT|INTERRES
   131   64  189 1    
   132   65   66 2    
   133   67   68 2    
   134   67   69 am   BACKBONE|DICT|INTERRES
   135   69   70 1    
   136   69  190 1    
   137   70   71 1    
   138   70   72 1    
   139   70  191 1    
   140   71  192 1    
   141   71  193 1    
   142   71  194 1    
   143   72   73 2    
   144   72   74 am   BACKBONE|DICT|INTERRES
   145   74   75 1    
   146   74  195 1    
   147   75   76 1    
   148   75   77 1    
   149   75  196 1    
   150   76  197 1    
   151   76  198 1    
   152   76  199 1    
   153   77   78 2    
   154   77   79 am   BACKBONE|DICT|INTERRES
   155   79   80 1    
   156   79  200 1    
   157   80   81 1    
   158   80   82 1    
   159   80  201 1    
   160   81  202 1    
   161   81  203 1    
   162   81  204 1    
   163   82   83 2    
   164   82   84 am   BACKBONE|DICT|INTERRES
   165   84   85 1    
   166   84  205 1    
   167   85   86 1    
   168   85   87 1    
   169   85  206 1    
   170   86  207 1    
   171   86  208 1    
   172   86  209 1    
   173   87   88 2    
   174   87   89 am   BACKBONE|DICT|INTERRES
   175   89   90 1    
   176   89  210 1    
   177   90   91 1    
   178   90   92 1    
   179   90  211 1    
   180   91  212 1    
   181   91  213 1    
   182   91  214 1    
   183   92   93 2    
   184   92   94 am   BACKBONE|DICT|INTERRES
   185   94   95 1    
   186   94  215 1    
   187   95   96 1    
   188   95   97 1    
   189   95  216 1    
   190   96  217 1    
   191   96  218 1    
   192   96  219 1    
   193   97   98 2    
   194   97   99 am   BACKBONE|DICT|INTERRES
   195   99  100 1    
   196   99  220 1    
   197  100  101 1    
   198  100  102 1    
   199  100  221 1    
   200  101  222 1    
   201  101  223 1    
   202  101  224 1    
   203  102  103 2    
   204  102  104 am   BACKBONE|DICT|INTERRES
   205  104  105 1    
   206  104  225 1    
   207  105  106 1    
   208  105  107 1    
   209  105  226 1    
   210  106  227 1    
   211  106  228 1    
   212  106  229 1    
   213  107  108 2    
   214  107  109 am   BACKBONE|DICT|INTERRES
   215  109  110 1    
   216  109  230 1    
   217  110  111 1    
   218  110  112 1    
   219  110  231 1    
   220  111  232 1    
   221  111  233 1    
   222  111  234 1    
   223  112  113 2    
   224  112  114 am   BACKBONE|DICT|INTERRES
   225  114  115 1    
   226  114  235 1    
   227  115  116 1    
   228  115  117 1    
   229  115  236 1    
   230  116  237 1    
   231  116  238 1    
   232  116  239 1    
   233  117  118 2    
   234  117  119 am   BACKBONE|DICT|INTERRES
   235  119  120 1    
   236  119  240 1    
   237  120  121 1    
   238  120  124 1    
   239  120  241 1    
   240  121  122 am   BACKBONE|DICT|INTERRES
   241  121  123 2    
   242  122  242 1    
   243  122  243 1    
   244  124  125 1    
   245  124  244 1    
   246  124  245 1    
   247  125  126 1    
   248  126  246 1    
   249  126  247 1    
@<TRIPOS>SUBSTRUCTURE
     1 UNK         1 GROUP             0       ****    0 ROOT    
