@<TRIPOS>MOLECULE
3R540
247   249    1
SMALL
USER_CHARGES


@<TRIPOS>ATOM
      1 CA         -5.7285  -19.3292  -46.9177 C.3       0 UNK        -0.1800 
      2 C          -4.6897  -18.2179  -46.9367 C.2       0 UNK         0.5000 
      3 O          -3.4940  -18.4993  -46.9166 O.2       0 UNK        -0.5000 
      4 N          -5.1531  -16.9595  -46.9775 N.am      1 UNK        -0.5000 
      5 CA         -4.3470  -15.7278  -46.9867 C.3       1 UNK         0.1400 
      6 C6         -3.4995  -15.5383  -48.2745 C.3       23 UNK        -0.0398 
      7 S7         -4.4805  -15.4991  -49.8149 S.3       23 UNK        -0.2404 
      8 C8         -4.1073  -17.1120  -50.5788 C.3       23 UNK        -0.0205 
      9 C9         -2.6347  -17.2753  -50.9301 C.ar      23 UNK        -0.0193 
     10 C10        -2.1071  -16.6998  -52.0896 C.ar      23 UNK        -0.1150 
     11 C11        -0.7538  -16.8599  -52.4059 C.ar      23 UNK        -0.0193 
     12 C12         0.0709  -17.5933  -51.5476 C.ar      23 UNK        -0.1150 
     13 C13        -0.4429  -18.1740  -50.3851 C.ar      23 UNK        -0.0193 
     14 C14        -1.7980  -18.0127  -50.0897 C.ar      23 UNK        -0.1150 
     15 C15         0.4761  -18.9285  -49.4309 C.3       23 UNK        -0.0205 
     16 S16         0.0610  -20.6990  -49.2904 S.3       23 UNK        -0.2404 
     17 C17        -1.2418  -20.6674  -48.0126 C.3       23 UNK        -0.0398 
     18 CA         -1.1972  -21.8929  -47.0741 C.3       11 UNK         0.1400 
     19 N          -0.0095  -21.9302  -46.2138 N.am      11 UNK        -0.5000 
     20 C           0.3283  -22.9800  -45.4499 C.2       10 UNK         0.5000 
     21 O          -0.3071  -24.0347  -45.4194 O.2       10 UNK        -0.5000 
     22 CA          1.5450  -22.8114  -44.5220 C.3       10 UNK         0.1400 
     23 CB          2.8626  -22.9092  -45.3054 C.3       10 UNK        -0.1800 
     24 N           1.5022  -21.5613  -43.7630 N.am      10 UNK        -0.5000 
     25 C           0.5555  -21.2588  -42.8623 C.2       9 UNK         0.5000 
     26 O          -0.3580  -22.0200  -42.5475 O.2       9 UNK        -0.5000 
     27 CA          0.6059  -19.8550  -42.2368 C.3       9 UNK         0.1400 
     28 CB          1.6164  -19.8064  -41.0813 C.3       9 UNK        -0.1800 
     29 N           0.9264  -18.8159  -43.2121 N.am      9 UNK        -0.5000 
     30 C           0.1775  -18.5087  -44.2794 C.2       8 UNK         0.5000 
     31 O          -0.8947  -19.0483  -44.5424 O.2       8 UNK        -0.5000 
     32 CA          0.7548  -17.4560  -45.2394 C.3       8 UNK         0.1400 
     33 CB          0.6154  -16.0431  -44.6557 C.3       8 UNK        -0.1800 
     34 N           2.1584  -17.7055  -45.5640 N.am      8 UNK        -0.5000 
     35 C           2.6267  -18.8075  -46.1648 C.2       7 UNK         0.5000 
     36 O           1.9169  -19.7338  -46.5527 O.2       7 UNK        -0.5000 
     37 CA          4.1548  -18.9021  -46.3106 C.3       7 UNK         0.1400 
     38 CB          4.6352  -18.0933  -47.5249 C.3       7 UNK        -0.1800 
     39 N           4.8534  -18.4454  -45.1063 N.am      7 UNK        -0.5000 
     40 C           4.8255  -19.0945  -43.9334 C.2       6 UNK         0.5000 
     41 O           4.2260  -20.1550  -43.7524 O.2       6 UNK        -0.5000 
     42 CA          5.5538  -18.4199  -42.7544 C.3       6 UNK         0.1400 
     43 CB          7.0709  -18.6417  -42.8525 C.3       6 UNK        -0.1800 
     44 N           5.2749  -16.9839  -42.6266 N.am      6 UNK        -0.5000 
     45 C           4.0553  -16.4681  -42.4278 C.2       5 UNK         0.5000 
     46 O           3.0274  -17.1490  -42.4080 O.2       5 UNK        -0.5000 
     47 CA          3.9510  -14.9475  -42.2321 C.3       5 UNK         0.1400 
     48 CB          4.1488  -14.1978  -43.5606 C.3       5 UNK        -0.1800 
     49 N           2.6197  -14.6595  -41.7075 N.am      5 UNK        -0.5000 
     50 C           2.3013  -13.7402  -40.7933 C.2       4 UNK         0.5000 
     51 O           3.1000  -12.9222  -40.3325 O.2       4 UNK        -0.5000 
     52 CA          0.8300  -13.7661  -40.3284 C.3       4 UNK         0.1400 
     53 CB          0.5311  -12.7769  -39.1812 C.3       4 UNK        -0.1800 
     54 N          -0.1098  -13.5910  -41.4444 N.am      4 UNK        -0.5000 
     55 C          -0.2632  -12.5038  -42.2169 C.2       3 UNK         0.5000 
     56 O           0.3902  -11.4695  -42.0744 O.2       3 UNK        -0.5000 
     57 CA         -1.3166  -12.5645  -43.3468 C.3       3 UNK         0.1400 
     58 CB         -0.6924  -12.1747  -44.6979 C.3       3 UNK        -0.1800 
     59 N          -1.9667  -13.8668  -43.5106 N.am      3 UNK        -0.5000 
     60 C          -2.9645  -14.3692  -42.7766 C.2       2 UNK         0.5000 
     61 O          -3.4544  -13.7843  -41.8099 O.2       2 UNK        -0.5000 
     62 CA         -3.4914  -15.7589  -43.2104 C.3       2 UNK         0.1400 
     63 CB         -4.4933  -16.3501  -42.2026 C.3       2 UNK        -0.1800 
     64 N          -4.1133  -15.7585  -44.5392 N.am      2 UNK        -0.5000 
     65 C          -3.4792  -15.6120  -45.7122 C.2       1 UNK         0.5000 
     66 O          -2.2668  -15.4164  -45.8071 O.2       1 UNK        -0.5000 
     67 C          -2.5027  -21.9891  -46.2604 C.2       11 UNK         0.5000 
     68 O          -3.3977  -22.7315  -46.6616 O.2       11 UNK        -0.5000 
     69 N          -2.5834  -21.2818  -45.1246 N.am      12 UNK        -0.5000 
     70 CA         -3.7298  -21.3100  -44.2167 C.3       12 UNK         0.1400 
     71 CB         -3.5832  -20.2093  -43.1563 C.3       12 UNK        -0.1800 
     72 C          -3.9438  -22.6874  -43.5640 C.2       12 UNK         0.5000 
     73 O          -5.0840  -23.1458  -43.4923 O.2       12 UNK        -0.5000 
     74 N          -2.8517  -23.3407  -43.1410 N.am      13 UNK        -0.5000 
     75 CA         -2.8561  -24.6951  -42.5825 C.3       13 UNK         0.1400 
     76 CB         -1.4769  -25.0127  -41.9853 C.3       13 UNK        -0.1800 
     77 C          -3.2588  -25.7646  -43.6141 C.2       13 UNK         0.5000 
     78 O          -3.9960  -26.6906  -43.2736 O.2       13 UNK        -0.5000 
     79 N          -2.7919  -25.6043  -44.8598 N.am      14 UNK        -0.5000 
     80 CA         -3.1503  -26.4537  -45.9977 C.3       14 UNK         0.1400 
     81 CB         -2.1230  -26.2321  -47.1193 C.3       14 UNK        -0.1800 
     82 C          -4.5760  -26.1995  -46.5295 C.2       14 UNK         0.5000 
     83 O          -5.1035  -27.0447  -47.2536 O.2       14 UNK        -0.5000 
     84 N          -5.1500  -25.0349  -46.1905 N.am      15 UNK        -0.5000 
     85 CA         -6.3885  -24.4532  -46.7190 C.3       15 UNK         0.1400 
     86 CB         -7.6169  -25.2945  -46.3158 C.3       15 UNK        -0.1800 
     87 C          -6.2952  -24.1867  -48.2376 C.2       15 UNK         0.5000 
     88 O          -7.2578  -24.4104  -48.9744 O.2       15 UNK        -0.5000 
     89 N          -5.1138  -23.7371  -48.6778 N.am      16 UNK        -0.5000 
     90 CA         -4.7837  -23.4618  -50.0697 C.3       16 UNK         0.1400 
     91 CB         -3.2579  -23.5228  -50.2418 C.3       16 UNK        -0.1800 
     92 C          -5.3256  -22.0890  -50.4946 C.2       16 UNK         0.5000 
     93 O          -5.0875  -21.0953  -49.8058 O.2       16 UNK        -0.5000 
     94 N          -6.0162  -22.0548  -51.6400 N.am      17 UNK        -0.5000 
     95 CA         -6.5454  -20.8318  -52.2495 C.3       17 UNK         0.1400 
     96 CB         -7.6747  -21.2125  -53.2198 C.3       17 UNK        -0.1800 
     97 C          -5.4673  -20.0031  -52.9769 C.2       17 UNK         0.5000 
     98 O          -5.7011  -18.8290  -53.2626 O.2       17 UNK        -0.5000 
     99 N          -4.3210  -20.6242  -53.2741 N.am      18 UNK        -0.5000 
    100 CA        -3.1745  -20.0394  -53.9534 C.3       18 UNK         0.1400 
    101 CB        -3.4729  -19.9010  -55.4570 C.3       18 UNK        -0.1800 
    102 C         -1.9655  -20.9578  -53.7480 C.2       18 UNK         0.5000 
    103 O         -2.1443  -22.1731  -53.6331 O.2       18 UNK        -0.5000 
    104 N         -0.7620  -20.3741  -53.7588 N.am      19 UNK        -0.5000 
    105 CA         0.4966  -21.1204  -53.7738 C.3       19 UNK         0.1400 
    106 CB         1.6130  -20.2723  -53.1474 C.3       19 UNK        -0.1800 
    107 C          0.8868  -21.5483  -55.1995 C.2       19 UNK         0.5000 
    108 O          1.3599  -22.6701  -55.3854 O.2       19 UNK        -0.5000 
    109 N          0.6884  -20.6519  -56.1764 N.am      20 UNK        -0.5000 
    110 CA         1.0874  -20.8381  -57.5699 C.3       20 UNK         0.1400 
    111 CB         2.6128  -20.6511  -57.7144 C.3       20 UNK        -0.1800 
    112 C          0.2844  -19.8838  -58.4683 C.2       20 UNK         0.5000 
    113 O          0.8393  -18.9150  -58.9891 O.2       20 UNK        -0.5000 
    114 N         -1.0188  -20.1703  -58.6126 N.am      21 UNK        -0.5000 
    115 CA        -1.9863  -19.4646  -59.4704 C.3       21 UNK         0.1400 
    116 CB        -1.6556  -19.6919  -60.9608 C.3       21 UNK        -0.1800 
    117 C         -2.1575  -17.9707  -59.1120 C.2       21 UNK         0.5000 
    118 O         -2.2553  -17.1177  -59.9965 O.2       21 UNK        -0.5000 
    119 N         -2.1717  -17.6966  -57.8040 N.am      22 UNK        -0.5000 
    120 CA        -2.3350  -16.3766  -57.1811 C.3       22 UNK         0.1400 
    121 C         -3.6865  -15.6944  -57.5353 C.2       22 UNK         0.5000 
    122 N         -3.6955  -14.3816  -57.7219 N.am      22 UNK        -0.7600 
    123 O         -4.7322  -16.3372  -57.5973 O.2       22 UNK        -0.5000 
    124 C124       -2.1720  -16.4694  -55.6420 C.3       23 UNK        -0.0398 
    125 S125       -0.5688  -17.1981  -55.1474 S.3       23 UNK        -0.2404 
    126 C126       -0.1685  -16.2288  -53.6601 C.3       23 UNK        -0.0205 
    127 H127       -5.2700  -20.2858  -47.1712 H         1 UNK         0.0600 
    128 H128       -6.1731  -19.4155  -45.9265 H         1 UNK         0.0600 
    129 H129       -6.5204  -19.1346  -47.6411 H         1 UNK         0.0600 
    130 H130       -6.1526  -16.8141  -46.9997 H         1 UNK         0.3000 
    131 H131       -5.0562  -14.9000  -46.9407 H         1 UNK         0.0600 
    132 H132       -2.7271  -16.3017  -48.3298 H         1 UNK         0.0800 
    133 H133       -2.9634  -14.5887  -48.2288 H         1 UNK         0.0800 
    134 H134       -4.7031  -17.2042  -51.4863 H         1 UNK         0.0800 
    135 H135       -4.4363  -17.9160  -49.9187 H         1 UNK         0.0800 
    136 H136       -2.7503  -16.1255  -52.7409 H         1 UNK         0.1150 
    137 H137        1.1211  -17.6994  -51.7792 H         1 UNK         0.1150 
    138 H138       -2.2057  -18.4416  -49.1883 H         1 UNK         0.1150 
    139 H139        1.5119  -18.8529  -49.7647 H         1 UNK         0.0800 
    140 H140        0.4459  -18.4531  -48.4507 H         1 UNK         0.0800 
    141 H141       -1.1651  -19.7517  -47.4239 H         1 UNK         0.0800 
    142 H142       -2.2010  -20.6214  -48.5325 H         1 UNK         0.0800 
    143 H143       -1.1591  -22.7854  -47.7025 H         1 UNK         0.0600 
    144 H144        0.5833  -21.1039  -46.2155 H         1 UNK         0.3000 
    145 H145        1.5244  -23.6322  -43.8021 H         1 UNK         0.0600 
    146 H146        2.9617  -22.1082  -46.0373 H         1 UNK         0.0600 
    147 H147        3.7224  -22.8586  -44.6371 H         1 UNK         0.0600 
    148 H148        2.9246  -23.8548  -45.8451 H         1 UNK         0.0600 
    149 H149        2.2398  -20.8899  -43.9443 H         1 UNK         0.3000 
    150 H150       -0.3838  -19.6355  -41.8319 H         1 UNK         0.0600 
    151 H151        1.5936  -18.8390  -40.5793 H         1 UNK         0.0600 
    152 H152        2.6355  -19.9766  -41.4304 H         1 UNK         0.0600 
    153 H153        1.3922  -20.5676  -40.3330 H         1 UNK         0.0600 
    154 H154        1.7857  -18.2951  -43.0485 H         1 UNK         0.3000 
    155 H155        0.1719  -17.5037  -46.1616 H         1 UNK         0.0600 
    156 H156       -0.3530  -15.9166  -44.1778 H         1 UNK         0.0600 
    157 H157        0.7031  -15.2866  -45.4354 H         1 UNK         0.0600 
    158 H158        1.3676  -15.8336  -43.9006 H         1 UNK         0.0600 
    159 H159        2.8240  -17.0179  -45.2478 H         1 UNK         0.3000 
    160 H160        4.4094  -19.9510  -46.4778 H         1 UNK         0.0600 
    161 H161        4.4337  -17.0278  -47.4081 H         1 UNK         0.0600 
    162 H162        4.1339  -18.4243  -48.4357 H         1 UNK         0.0600 
    163 H163        5.7068  -18.2174  -47.6815 H         1 UNK         0.0600 
    164 H164        5.3665  -17.5786  -45.1698 H         1 UNK         0.3000 
    165 H165        5.2025  -18.9029  -41.8400 H         1 UNK         0.0600 
    166 H166        7.4976  -18.1411  -43.7224 H         1 UNK         0.0600 
    167 H167        7.5820  -18.2674  -41.9654 H         1 UNK         0.0600 
    168 H168        7.3056  -19.7037  -42.9366 H         1 UNK         0.0600 
    169 H169        6.0738  -16.3662  -42.6410 H         1 UNK         0.3000 
    170 H170        4.7138  -14.6407  -41.5135 H         1 UNK         0.0600 
    171 H171        5.1420  -14.3796  -43.9723 H         1 UNK         0.0600 
    172 H172        3.4194  -14.5033  -44.3113 H         1 UNK         0.0600 
    173 H173        4.0492  -13.1213  -43.4204 H         1 UNK         0.0600 
    174 H174        1.9273  -15.3479  -41.9706 H         1 UNK         0.3000 
    175 H175        0.6526  -14.7689  -39.9366 H         1 UNK         0.0600 
    176 H176       -0.5092  -12.8460  -38.8632 H         1 UNK         0.0600 
    177 H177        1.1515  -12.9945  -38.3111 H         1 UNK         0.0600 
    178 H178        0.7262  -11.7432  -39.4670 H         1 UNK         0.0600 
    179 H179       -0.7004  -14.3828  -41.6493 H         1 UNK         0.3000 
    180 H180       -2.0847  -11.8275  -43.1040 H         1 UNK         0.0600 
    181 H181       -1.4371  -12.1828  -45.4942 H         1 UNK         0.0600 
    182 H182       -0.2693  -11.1700  -44.6637 H         1 UNK         0.0600 
    183 H183        0.1083  -12.8588  -44.9813 H         1 UNK         0.0600 
    184 H184       -1.7038  -14.3964  -44.3383 H         1 UNK         0.3000 
    185 H185       -2.6316  -16.4316  -43.2445 H         1 UNK         0.0600 
    186 H186       -4.7937  -17.3582  -42.4880 H         1 UNK         0.0600 
    187 H187       -4.0544  -16.4150  -41.2061 H         1 UNK         0.0600 
    188 H188       -5.3951  -15.7414  -42.1264 H         1 UNK         0.0600 
    189 H189       -5.1114  -15.9077  -44.5573 H         1 UNK         0.3000 
    190 H190       -1.8360  -20.6323  -44.8899 H         1 UNK         0.3000 
    191 H191       -4.6206  -21.0880  -44.8064 H         1 UNK         0.0600 
    192 H192       -4.4417  -20.1953  -42.4839 H         1 UNK         0.0600 
    193 H193       -3.5173  -19.2256  -43.6220 H         1 UNK         0.0600 
    194 H194       -2.6895  -20.3528  -42.5488 H         1 UNK         0.0600 
    195 H195       -1.9496  -22.8731  -43.1851 H         1 UNK         0.3000 
    196 H196       -3.5896  -24.7218  -41.7741 H         1 UNK         0.0600 
    197 H197       -1.4546  -26.0178  -41.5625 H         1 UNK         0.0600 
    198 H198       -1.2260  -24.3176  -41.1840 H         1 UNK         0.0600 
    199 H199       -0.6896  -24.9535  -42.7378 H         1 UNK         0.0600 
    200 H200       -2.1354  -24.8518  -45.0442 H         1 UNK         0.3000 
    201 H201       -3.0954  -27.4980  -45.6837 H         1 UNK         0.0600 
    202 H202       -1.1138  -26.4694  -46.7825 H         1 UNK         0.0600 
    203 H203       -2.1252  -25.1979  -47.4656 H         1 UNK         0.0600 
    204 H204       -2.3366  -26.8672  -47.9800 H         1 UNK         0.0600 
    205 H205       -4.5966  -24.4059  -45.6233 H         1 UNK         0.3000 
    206 H206       -6.4882  -23.4756  -46.2450 H         1 UNK         0.0600 
    207 H207       -7.6433  -25.4596  -45.2386 H         1 UNK         0.0600 
    208 H208       -8.5426  -24.7868  -46.5888 H         1 UNK         0.0600 
    209 H209       -7.6230  -26.2684  -46.8055 H         1 UNK         0.0600 
    210 H210       -4.4110  -23.4860  -47.9856 H         1 UNK         0.3000 
    211 H211       -5.2278  -24.2389  -50.6955 H         1 UNK         0.0600 
    212 H212       -2.9760  -23.3714  -51.2840 H         1 UNK         0.0600 
    213 H213       -2.8639  -24.4921  -49.9360 H         1 UNK         0.0600 
    214 H214       -2.7549  -22.7561  -49.6529 H         1 UNK         0.0600 
    215 H215       -6.1798  -22.9148  -52.1439 H         1 UNK         0.3000 
    216 H216       -6.9687  -20.2018  -51.4641 H         1 UNK         0.0600 
    217 H217       -8.1191  -20.3239  -53.6703 H         1 UNK         0.0600 
    218 H218       -8.4732  -21.7478  -52.7057 H         1 UNK         0.0600 
    219 H219       -7.3126  -21.8451  -54.0312 H         1 UNK         0.0600 
    220 H220       -4.1905  -21.5887  -52.9984 H         1 UNK         0.3000 
    221 H221       -2.9556  -19.0618  -53.5204 H         1 UNK         0.0600 
    222 H222       -3.8309  -20.8398  -55.8816 H         1 UNK         0.0600 
    223 H223       -4.2279  -19.1384  -55.6489 H         1 UNK         0.0600 
    224 H224       -2.5738  -19.6241  -56.0032 H         1 UNK         0.0600 
    225 H225       -0.6964  -19.3678  -53.8293 H         1 UNK         0.3000 
    226 H226        0.3906  -22.0245  -53.1699 H         1 UNK         0.0600 
    227 H227        2.5749  -20.7828  -53.2103 H         1 UNK         0.0600 
    228 H228        1.7194  -19.3076  -53.6448 H         1 UNK         0.0600 
    229 H229        1.4168  -20.0932  -52.0914 H         1 UNK         0.0600 
    230 H230        0.2979  -19.7491  -55.9467 H         1 UNK         0.3000 
    231 H231        0.8379  -21.8546  -57.8818 H         1 UNK         0.0600 
    232 H232        2.9210  -20.7411  -58.7568 H         1 UNK         0.0600 
    233 H233        3.1627  -21.4053  -57.1517 H         1 UNK         0.0600 
    234 H234        2.9324  -19.6709  -57.3586 H         1 UNK         0.0600 
    235 H235       -1.3794  -20.9806  -58.1279 H         1 UNK         0.3000 
    236 H236       -2.9556  -19.9277  -59.2799 H         1 UNK         0.0600 
    237 H237       -0.7176  -19.2144  -61.2453 H         1 UNK         0.0600 
    238 H238       -1.5737  -20.7545  -61.1888 H         1 UNK         0.0600 
    239 H239       -2.4377  -19.2837  -61.6021 H         1 UNK         0.0600 
    240 H240       -2.0697  -18.4667  -57.1645 H         1 UNK         0.3000 
    241 H241       -1.5314  -15.7478  -57.5695 H         1 UNK         0.0600 
    242 H242       -4.5682  -13.9244  -57.9374 H         1 UNK         0.3800 
    243 H243       -2.8513  -13.8319  -57.6708 H         1 UNK         0.3800 
    244 H244       -2.9751  -17.0603  -55.2003 H         1 UNK         0.0800 
    245 H245       -2.2606  -15.4730  -55.2065 H         1 UNK         0.0800 
    246 H246        0.9177  -16.1686  -53.5751 H         1 UNK         0.0800 
    247 H247       -0.5134  -15.1991  -53.7605 H         1 UNK         0.0800 
@<TRIPOS>BOND
     1    1    2 1    
     2    1  127 1    
     3    1  128 1    
     4    1  129 1    
     5    2    3 2    
     6    2    4 am   BACKBONE|DICT|INTERRES
     7    4    5 1    
     8    4  130 1    
     9    5    6 1    
    10    5   65 1    
    11    5  131 1    
    12    6    7 1    
    13    6  132 1    
    14    6  133 1    
    15    7    8 1    
    16    8    9 1    
    17    8  134 1    
    18    8  135 1    
    19    9   10 ar   
    20    9   14 ar   
    21   10   11 ar   
    22   10  136 1    
    23   11   12 ar   
    24   11  126 1    
    25   12   13 ar   
    26   12  137 1    
    27   13   14 ar   
    28   13   15 1    
    29   14  138 1    
    30   15   16 1    
    31   15  139 1    
    32   15  140 1    
    33   16   17 1    
    34   17   18 1    
    35   17  141 1    
    36   17  142 1    
    37   18   19 1    
    38   18   67 1    
    39   18  143 1    
    40   19   20 am   BACKBONE|DICT|INTERRES
    41   19  144 1    
    42   20   21 2    
    43   20   22 1    
    44   22   23 1    
    45   22   24 1    
    46   22  145 1    
    47   23  146 1    
    48   23  147 1    
    49   23  148 1    
    50   24   25 am   BACKBONE|DICT|INTERRES
    51   24  149 1    
    52   25   26 2    
    53   25   27 1    
    54   27   28 1    
    55   27   29 1    
    56   27  150 1    
    57   28  151 1    
    58   28  152 1    
    59   28  153 1    
    60   29   30 am   BACKBONE|DICT|INTERRES
    61   29  154 1    
    62   30   31 2    
    63   30   32 1    
    64   32   33 1    
    65   32   34 1    
    66   32  155 1    
    67   33  156 1    
    68   33  157 1    
    69   33  158 1    
    70   34   35 am   BACKBONE|DICT|INTERRES
    71   34  159 1    
    72   35   36 2    
    73   35   37 1    
    74   37   38 1    
    75   37   39 1    
    76   37  160 1    
    77   38  161 1    
    78   38  162 1    
    79   38  163 1    
    80   39   40 am   BACKBONE|DICT|INTERRES
    81   39  164 1    
    82   40   41 2    
    83   40   42 1    
    84   42   43 1    
    85   42   44 1    
    86   42  165 1    
    87   43  166 1    
    88   43  167 1    
    89   43  168 1    
    90   44   45 am   BACKBONE|DICT|INTERRES
    91   44  169 1    
    92   45   46 2    
    93   45   47 1    
    94   47   48 1    
    95   47   49 1    
    96   47  170 1    
    97   48  171 1    
    98   48  172 1    
    99   48  173 1    
   100   49   50 am   BACKBONE|DICT|INTERRES
   101   49  174 1    
   102   50   51 2    
   103   50   52 1    
   104   52   53 1    
   105   52   54 1    
   106   52  175 1    
   107   53  176 1    
   108   53  177 1    
   109   53  178 1    
   110   54   55 am   BACKBONE|DICT|INTERRES
   111   54  179 1    
   112   55   56 2    
   113   55   57 1    
   114   57   58 1    
   115   57   59 1    
   116   57  180 1    
   117   58  181 1    
   118   58  182 1    
   119   58  183 1    
   120   59   60 am   BACKBONE|DICT|INTERRES
   121   59  184 1    
   122   60   61 2    
   123   60   62 1    
   124   62   63 1    
   125   62   64 1    
   126   62  185 1    
   127   63  186 1    
   128   63  187 1    
   129   63  188 1    
   130   64   65 am   BACKBONE|DICT|INTERRES
   131   64  189 1    
   132   65   66 2    
   133   67   68 2    
   134   67   69 am   BACKBONE|DICT|INTERRES
   135   69   70 1    
   136   69  190 1    
   137   70   71 1    
   138   70   72 1    
   139   70  191 1    
   140   71  192 1    
   141   71  193 1    
   142   71  194 1    
   143   72   73 2    
   144   72   74 am   BACKBONE|DICT|INTERRES
   145   74   75 1    
   146   74  195 1    
   147   75   76 1    
   148   75   77 1    
   149   75  196 1    
   150   76  197 1    
   151   76  198 1    
   152   76  199 1    
   153   77   78 2    
   154   77   79 am   BACKBONE|DICT|INTERRES
   155   79   80 1    
   156   79  200 1    
   157   80   81 1    
   158   80   82 1    
   159   80  201 1    
   160   81  202 1    
   161   81  203 1    
   162   81  204 1    
   163   82   83 2    
   164   82   84 am   BACKBONE|DICT|INTERRES
   165   84   85 1    
   166   84  205 1    
   167   85   86 1    
   168   85   87 1    
   169   85  206 1    
   170   86  207 1    
   171   86  208 1    
   172   86  209 1    
   173   87   88 2    
   174   87   89 am   BACKBONE|DICT|INTERRES
   175   89   90 1    
   176   89  210 1    
   177   90   91 1    
   178   90   92 1    
   179   90  211 1    
   180   91  212 1    
   181   91  213 1    
   182   91  214 1    
   183   92   93 2    
   184   92   94 am   BACKBONE|DICT|INTERRES
   185   94   95 1    
   186   94  215 1    
   187   95   96 1    
   188   95   97 1    
   189   95  216 1    
   190   96  217 1    
   191   96  218 1    
   192   96  219 1    
   193   97   98 2    
   194   97   99 am   BACKBONE|DICT|INTERRES
   195   99  100 1    
   196   99  220 1    
   197  100  101 1    
   198  100  102 1    
   199  100  221 1    
   200  101  222 1    
   201  101  223 1    
   202  101  224 1    
   203  102  103 2    
   204  102  104 am   BACKBONE|DICT|INTERRES
   205  104  105 1    
   206  104  225 1    
   207  105  106 1    
   208  105  107 1    
   209  105  226 1    
   210  106  227 1    
   211  106  228 1    
   212  106  229 1    
   213  107  108 2    
   214  107  109 am   BACKBONE|DICT|INTERRES
   215  109  110 1    
   216  109  230 1    
   217  110  111 1    
   218  110  112 1    
   219  110  231 1    
   220  111  232 1    
   221  111  233 1    
   222  111  234 1    
   223  112  113 2    
   224  112  114 am   BACKBONE|DICT|INTERRES
   225  114  115 1    
   226  114  235 1    
   227  115  116 1    
   228  115  117 1    
   229  115  236 1    
   230  116  237 1    
   231  116  238 1    
   232  116  239 1    
   233  117  118 2    
   234  117  119 am   BACKBONE|DICT|INTERRES
   235  119  120 1    
   236  119  240 1    
   237  120  121 1    
   238  120  124 1    
   239  120  241 1    
   240  121  122 am   BACKBONE|DICT|INTERRES
   241  121  123 2    
   242  122  242 1    
   243  122  243 1    
   244  124  125 1    
   245  124  244 1    
   246  124  245 1    
   247  125  126 1    
   248  126  246 1    
   249  126  247 1    
@<TRIPOS>SUBSTRUCTURE
     1 UNK         1 GROUP             0       ****    0 ROOT    
