@<TRIPOS>MOLECULE
3R540
247   249    1
SMALL
USER_CHARGES


@<TRIPOS>ATOM
      1 CA          5.9381  -12.0938  -50.1007 C.3       0 UNK        -0.1800 
      2 C           5.0203  -12.8592  -49.1585 C.2       0 UNK         0.5000 
      3 O           4.7508  -12.3940  -48.0502 O.2       0 UNK        -0.5000 
      4 N           4.5252  -14.0247  -49.5947 N.am      1 UNK        -0.5000 
      5 CA          3.6226  -14.9120  -48.8499 C.3       1 UNK         0.1400 
      6 C6          3.7472  -16.3750  -49.3550 C.3       23 UNK        -0.0398 
      7 S7          3.2488  -17.6005  -48.0967 S.3       23 UNK        -0.2404 
      8 C8          2.7273  -19.0086  -49.1337 C.3       23 UNK        -0.0205 
      9 C9          1.4889  -18.7058  -49.9667 C.ar      23 UNK        -0.0193 
     10 C10         1.5282  -18.8106  -51.3626 C.ar      23 UNK        -0.1150 
     11 C11         0.3893  -18.5326  -52.1254 C.ar      23 UNK        -0.0193 
     12 C12        -0.7870  -18.1468  -51.4818 C.ar      23 UNK        -0.1150 
     13 C13        -0.8449  -18.0513  -50.0912 C.ar      23 UNK        -0.0193 
     14 C14         0.2971  -18.3329  -49.3380 C.ar      23 UNK        -0.1150 
     15 C15        -2.1404  -17.6346  -49.4155 C.3       23 UNK        -0.0205 
     16 S16        -3.1226  -19.0799  -48.9069 S.3       23 UNK        -0.2404 
     17 C17        -2.3269  -19.5254  -47.3278 C.3       23 UNK        -0.0398 
     18 CA         -1.4744  -20.8197  -47.4024 C.3       11 UNK         0.1400 
     19 N          -0.3577  -20.7963  -46.4513 N.am      11 UNK        -0.5000 
     20 C           0.5718  -21.7518  -46.3037 C.2       10 UNK         0.5000 
     21 O           0.6248  -22.7689  -46.9919 O.2       10 UNK        -0.5000 
     22 CA          1.5786  -21.5765  -45.1515 C.3       10 UNK         0.1400 
     23 CB          2.7581  -20.6929  -45.5805 C.3       10 UNK        -0.1800 
     24 N           0.9625  -21.0396  -43.9364 N.am      10 UNK        -0.5000 
     25 C          -0.0006  -21.6620  -43.2395 C.2       9 UNK         0.5000 
     26 O          -0.4359  -22.7780  -43.5227 O.2       9 UNK        -0.5000 
     27 CA         -0.6262  -20.8873  -42.0664 C.3       9 UNK         0.1400 
     28 CB          0.2797  -20.9377  -40.8273 C.3       9 UNK        -0.1800 
     29 N          -0.9160  -19.4961  -42.4118 N.am      9 UNK        -0.5000 
     30 C          -1.7844  -19.1106  -43.3578 C.2       8 UNK         0.5000 
     31 O          -2.4926  -19.8912  -43.9956 O.2       8 UNK        -0.5000 
     32 CA         -1.8186  -17.6056  -43.6888 C.3       8 UNK         0.1400 
     33 CB         -2.6731  -16.8331  -42.6735 C.3       8 UNK        -0.1800 
     34 N          -0.4769  -17.0200  -43.7568 N.am      8 UNK        -0.5000 
     35 C           0.4500  -17.3730  -44.6595 C.2       7 UNK         0.5000 
     36 O           0.2489  -18.1848  -45.5581 O.2       7 UNK        -0.5000 
     37 CA          1.8483  -16.7587  -44.5091 C.3       7 UNK         0.1400 
     38 CB          1.9105  -15.3910  -45.1972 C.3       7 UNK        -0.1800 
     39 N           2.2400  -16.6433  -43.1053 N.am      7 UNK        -0.5000 
     40 C           2.5764  -17.6928  -42.3407 C.2       6 UNK         0.5000 
     41 O           2.6287  -18.8500  -42.7568 O.2       6 UNK        -0.5000 
     42 CA          2.8554  -17.4111  -40.8524 C.3       6 UNK         0.1400 
     43 CB          4.3099  -16.9614  -40.6503 C.3       6 UNK        -0.1800 
     44 N           1.9544  -16.4052  -40.2884 N.am      6 UNK        -0.5000 
     45 C           0.6281  -16.5563  -40.1668 C.2       5 UNK         0.5000 
     46 O           0.0306  -17.5892  -40.4658 O.2       5 UNK        -0.5000 
     47 CA         -0.1728  -15.3342  -39.6777 C.3       5 UNK         0.1400 
     48 CB         -0.3524  -15.3858  -38.1535 C.3       5 UNK        -0.1800 
     49 N           0.4195  -14.0451  -40.0507 N.am      5 UNK        -0.5000 
     50 C           0.6413  -13.6258  -41.3047 C.2       4 UNK         0.5000 
     51 O           0.3880  -14.3106  -42.2980 O.2       4 UNK        -0.5000 
     52 CA          1.2649  -12.2267  -41.4903 C.3       4 UNK         0.1400 
     53 CB          1.7275  -11.5690  -40.1746 C.3       4 UNK        -0.1800 
     54 N           2.4172  -12.3148  -42.3907 N.am      4 UNK        -0.5000 
     55 C           2.4558  -12.1251  -43.7168 C.2       3 UNK         0.5000 
     56 O           3.4970  -12.3004  -44.3524 O.2       3 UNK        -0.5000 
     57 CA          1.2005  -11.6506  -44.4745 C.3       3 UNK         0.1400 
     58 CB          1.0222  -10.1244  -44.3408 C.3       3 UNK        -0.1800 
     59 N           1.3491  -12.0030  -45.8840 N.am      3 UNK        -0.5000 
     60 C           0.3584  -12.0653  -46.7820 C.2       2 UNK         0.5000 
     61 O          -0.8203  -11.8390  -46.5058 O.2       2 UNK        -0.5000 
     62 CA          0.7253  -12.4371  -48.2296 C.3       2 UNK         0.1400 
     63 CB          0.8123  -11.1730  -49.0998 C.3       2 UNK        -0.1800 
     64 N           1.9984  -13.1540  -48.3171 N.am      2 UNK        -0.5000 
     65 C           2.1723  -14.3661  -48.8560 C.2       1 UNK         0.5000 
     66 O           1.2592  -15.0176  -49.3626 O.2       1 UNK        -0.5000 
     67 C          -2.3612  -22.0693  -47.2244 C.2       11 UNK         0.5000 
     68 O          -2.7084  -22.7264  -48.2078 O.2       11 UNK        -0.5000 
     69 N          -2.6860  -22.3859  -45.9640 N.am      12 UNK        -0.5000 
     70 CA         -3.4379  -23.5778  -45.5849 C.3       12 UNK         0.1400 
     71 CB         -3.9297  -23.4341  -44.1368 C.3       12 UNK        -0.1800 
     72 C          -2.6162  -24.8659  -45.7705 C.2       12 UNK         0.5000 
     73 O          -3.1159  -25.8175  -46.3705 O.2       12 UNK        -0.5000 
     74 N          -1.3701  -24.8685  -45.2746 N.am      13 UNK        -0.5000 
     75 CA         -0.4597  -26.0175  -45.2966 C.3       13 UNK         0.1400 
     76 CB          0.7915  -25.6971  -44.4658 C.3       13 UNK        -0.1800 
     77 C          -0.0636  -26.4736  -46.7129 C.2       13 UNK         0.5000 
     78 O           0.0010  -27.6771  -46.9659 O.2       13 UNK        -0.5000 
     79 N           0.1703  -25.5120  -47.6154 N.am      14 UNK        -0.5000 
     80 CA          0.4846  -25.7543  -49.0254 C.3       14 UNK         0.1400 
     81 CB          1.1863  -24.5108  -49.5969 C.3       14 UNK        -0.1800 
     82 C          -0.7549  -26.0975  -49.8756 C.2       14 UNK         0.5000 
     83 O          -0.5946  -26.4738  -51.0371 O.2       14 UNK        -0.5000 
     84 N          -1.9576  -25.9239  -49.3045 N.am      15 UNK        -0.5000 
     85 CA         -3.2735  -26.0181  -49.9468 C.3       15 UNK         0.1400 
     86 CB         -3.5599  -27.4499  -50.4435 C.3       15 UNK        -0.1800 
     87 C          -3.4879  -24.9462  -51.0373 C.2       15 UNK         0.5000 
     88 O          -4.3051  -25.1322  -51.9390 O.2       15 UNK        -0.5000 
     89 N          -2.7779  -23.8177  -50.9121 N.am      16 UNK        -0.5000 
     90 CA         -2.9167  -22.6341  -51.7563 C.3       16 UNK         0.1400 
     91 CB         -1.7488  -21.6838  -51.4792 C.3       16 UNK        -0.1800 
     92 C          -4.2498  -21.9111  -51.5172 C.2       16 UNK         0.5000 
     93 O          -4.8137  -21.3580  -52.4618 O.2       16 UNK        -0.5000 
     94 N          -4.7365  -21.9711  -50.2688 N.am      17 UNK        -0.5000 
     95 CA         -6.0130  -21.4196  -49.8156 C.3       17 UNK         0.1400 
     96 CB         -6.0976  -21.5538  -48.2873 C.3       17 UNK        -0.1800 
     97 C          -7.2354  -22.0809  -50.4801 C.2       17 UNK         0.5000 
     98 O          -8.2637  -21.4249  -50.6466 O.2       17 UNK        -0.5000 
     99 N          -7.0975  -23.3526  -50.8861 N.am      18 UNK        -0.5000 
    100 CA        -8.1113  -24.1010  -51.6361 C.3       18 UNK         0.1400 
    101 CB        -7.7625  -25.5968  -51.6095 C.3       18 UNK        -0.1800 
    102 C         -8.2716  -23.6024  -53.0873 C.2       18 UNK         0.5000 
    103 O         -9.3186  -23.8299  -53.6936 O.2       18 UNK        -0.5000 
    104 N         -7.2503  -22.9041  -53.5992 N.am      19 UNK        -0.5000 
    105 CA        -7.2389  -22.2052  -54.8819 C.3       19 UNK         0.1400 
    106 CB        -5.9987  -22.6594  -55.6719 C.3       19 UNK        -0.1800 
    107 C         -7.2565  -20.6795  -54.6518 C.2       19 UNK         0.5000 
    108 O         -6.6774  -19.9330  -55.4439 O.2       19 UNK        -0.5000 
    109 N         -7.8799  -20.2450  -53.5450 N.am      20 UNK        -0.5000 
    110 CA        -7.9652  -18.8860  -52.9974 C.3       20 UNK         0.1400 
    111 CB        -8.6576  -17.9152  -53.9741 C.3       20 UNK        -0.1800 
    112 C         -6.6101  -18.3399  -52.5098 C.2       20 UNK         0.5000 
    113 O         -6.4829  -17.9961  -51.3347 O.2       20 UNK        -0.5000 
    114 N         -5.6302  -18.2900  -53.4150 N.am      21 UNK        -0.5000 
    115 CA        -4.2478  -17.8989  -53.1815 C.3       21 UNK         0.1400 
    116 CB        -4.1459  -16.3866  -52.8855 C.3       21 UNK        -0.1800 
    117 C         -3.4123  -18.3268  -54.4000 C.2       21 UNK         0.5000 
    118 O         -2.9250  -17.4725  -55.1419 O.2       21 UNK        -0.5000 
    119 N         -3.2873  -19.6457  -54.5979 N.am      22 UNK        -0.5000 
    120 CA        -2.5373  -20.2832  -55.7031 C.3       22 UNK         0.1400 
    121 C         -3.1933  -20.1287  -57.1131 C.2       22 UNK         0.5000 
    122 N         -4.4807  -19.8329  -57.2317 N.am      22 UNK        -0.7600 
    123 O         -2.5313  -20.3029  -58.1333 O.2       22 UNK        -0.5000 
    124 C124       -1.0179  -19.9191  -55.7406 C.3       23 UNK        -0.0398 
    125 S125       -0.1200  -20.2892  -54.1958 S.3       23 UNK        -0.2404 
    126 C126        0.4112  -18.6369  -53.6428 C.3       23 UNK        -0.0205 
    127 H127        6.9132  -11.9465  -49.6363 H         1 UNK         0.0600 
    128 H128        5.5139  -11.1149  -50.3236 H         1 UNK         0.0600 
    129 H129        6.0861  -12.6233  -51.0422 H         1 UNK         0.0600 
    130 H130        4.7564  -14.3299  -50.5296 H         1 UNK         0.3000 
    131 H131        3.9523  -14.9013  -47.8083 H         1 UNK         0.0600 
    132 H132        4.7869  -16.5965  -49.6001 H         1 UNK         0.0800 
    133 H133        3.1890  -16.5217  -50.2809 H         1 UNK         0.0800 
    134 H134        3.5616  -19.3102  -49.7686 H         1 UNK         0.0800 
    135 H135        2.5083  -19.8596  -48.4883 H         1 UNK         0.0800 
    136 H136        2.4421  -19.1080  -51.8570 H         1 UNK         0.1150 
    137 H137       -1.6619  -17.9252  -52.0694 H         1 UNK         0.1150 
    138 H138        0.2672  -18.2512  -48.2609 H         1 UNK         0.1150 
    139 H139       -2.7399  -17.0358  -50.1027 H         1 UNK         0.0800 
    140 H140       -1.9336  -16.9883  -48.5612 H         1 UNK         0.0800 
    141 H141       -3.1019  -19.5966  -46.5630 H         1 UNK         0.0800 
    142 H142       -1.7123  -18.6835  -47.0190 H         1 UNK         0.0800 
    143 H143       -1.0090  -20.8761  -48.3862 H         1 UNK         0.0600 
    144 H144       -0.2678  -19.9555  -45.8868 H         1 UNK         0.3000 
    145 H145        1.9761  -22.5628  -44.9070 H         1 UNK         0.0600 
    146 H146        3.2671  -21.1176  -46.4463 H         1 UNK         0.0600 
    147 H147        3.4956  -20.6030  -44.7829 H         1 UNK         0.0600 
    148 H148        2.4337  -19.6891  -45.8513 H         1 UNK         0.0600 
    149 H149        1.3025  -20.1401  -43.6130 H         1 UNK         0.3000 
    150 H150       -1.5719  -21.3720  -41.8155 H         1 UNK         0.0600 
    151 H151        0.4914  -21.9684  -40.5402 H         1 UNK         0.0600 
    152 H152       -0.1943  -20.4524  -39.9738 H         1 UNK         0.0600 
    153 H153        1.2346  -20.4425  -41.0038 H         1 UNK         0.0600 
    154 H154       -0.4171  -18.7834  -41.8861 H         1 UNK         0.3000 
    155 H155       -2.2794  -17.4923  -44.6723 H         1 UNK         0.0600 
    156 H156       -2.2920  -16.9393  -41.6584 H         1 UNK         0.0600 
    157 H157       -3.7005  -17.1989  -42.6750 H         1 UNK         0.0600 
    158 H158       -2.7052  -15.7695  -42.9110 H         1 UNK         0.0600 
    159 H159       -0.2374  -16.3221  -43.0635 H         1 UNK         0.3000 
    160 H160        2.5604  -17.4164  -45.0114 H         1 UNK         0.0600 
    161 H161        1.2143  -14.6829  -44.7507 H         1 UNK         0.0600 
    162 H162        1.6431  -15.4834  -46.2493 H         1 UNK         0.0600 
    163 H163        2.9130  -14.9665  -45.1492 H         1 UNK         0.0600 
    164 H164        2.1403  -15.7327  -42.6786 H         1 UNK         0.3000 
    165 H165        2.7057  -18.3435  -40.3040 H         1 UNK         0.0600 
    166 H166        4.5400  -16.8340  -39.5923 H         1 UNK         0.0600 
    167 H167        5.0054  -17.7028  -41.0460 H         1 UNK         0.0600 
    168 H168        4.5147  -16.0166  -41.1554 H         1 UNK         0.0600 
    169 H169        2.3646  -15.5256  -40.0126 H         1 UNK         0.3000 
    170 H170       -1.1608  -15.3863  -40.1386 H         1 UNK         0.0600 
    171 H171       -0.9975  -14.5794  -37.8042 H         1 UNK         0.0600 
    172 H172        0.6023  -15.3033  -37.6324 H         1 UNK         0.0600 
    173 H173       -0.8142  -16.3252  -37.8462 H         1 UNK         0.0600 
    174 H174        0.6598  -13.4270  -39.2891 H         1 UNK         0.3000 
    175 H175        0.4849  -11.5904  -41.9067 H         1 UNK         0.0600 
    176 H176        0.8931  -11.4149  -39.4891 H         1 UNK         0.0600 
    177 H177        2.4829  -12.1657  -39.6612 H         1 UNK         0.0600 
    178 H178        2.1611  -10.5869  -40.3654 H         1 UNK         0.0600 
    179 H179        3.2709  -12.6216  -41.9494 H         1 UNK         0.3000 
    180 H180        0.3247  -12.1712  -44.0845 H         1 UNK         0.0600 
    181 H181        0.0995   -9.7887  -44.8140 H         1 UNK         0.0600 
    182 H182        1.8493   -9.5861  -44.8054 H         1 UNK         0.0600 
    183 H183        0.9794   -9.8117  -43.2976 H         1 UNK         0.0600 
    184 H184        2.2983  -12.2369  -46.1454 H         1 UNK         0.3000 
    185 H185       -0.0894  -13.0567  -48.6099 H         1 UNK         0.0600 
    186 H186        1.0038  -11.4267  -50.1426 H         1 UNK         0.0600 
    187 H187       -0.1215  -10.6100  -49.0687 H         1 UNK         0.0600 
    188 H188        1.6096  -10.5083  -48.7648 H         1 UNK         0.0600 
    189 H189        2.8295  -12.6686  -47.9924 H         1 UNK         0.3000 
    190 H190       -2.3677  -21.7847  -45.2131 H         1 UNK         0.3000 
    191 H191       -4.3152  -23.6459  -46.2318 H         1 UNK         0.0600 
    192 H192       -4.5679  -22.5574  -44.0244 H         1 UNK         0.0600 
    193 H193       -4.5145  -24.3040  -43.8353 H         1 UNK         0.0600 
    194 H194       -3.1019  -23.3348  -43.4342 H         1 UNK         0.0600 
    195 H195       -1.0421  -24.0449  -44.7752 H         1 UNK         0.3000 
    196 H196       -0.9767  -26.8514  -44.8175 H         1 UNK         0.0600 
    197 H197        1.4691  -26.5512  -44.4330 H         1 UNK         0.0600 
    198 H198        0.5302  -25.4496  -43.4369 H         1 UNK         0.0600 
    199 H199        1.3437  -24.8555  -44.8837 H         1 UNK         0.0600 
    200 H200        0.1508  -24.5376  -47.3195 H         1 UNK         0.3000 
    201 H201        1.1754  -26.5972  -49.0931 H         1 UNK         0.0600 
    202 H202        1.5013  -24.6757  -50.6279 H         1 UNK         0.0600 
    203 H203        2.0778  -24.2604  -49.0216 H         1 UNK         0.0600 
    204 H204        0.5285  -23.6403  -49.5912 H         1 UNK         0.0600 
    205 H205       -1.9766  -25.6366  -48.3340 H         1 UNK         0.3000 
    206 H206       -4.0001  -25.7936  -49.1646 H         1 UNK         0.0600 
    207 H207       -3.3952  -28.1813  -49.6523 H         1 UNK         0.0600 
    208 H208       -4.5970  -27.5501  -50.7660 H         1 UNK         0.0600 
    209 H209       -2.9294  -27.7214  -51.2902 H         1 UNK         0.0600 
    210 H210       -2.2026  -23.7134  -50.0862 H         1 UNK         0.3000 
    211 H211       -2.8797  -22.9399  -52.8039 H         1 UNK         0.0600 
    212 H212       -1.6769  -21.4318  -50.4243 H         1 UNK         0.0600 
    213 H213       -1.8793  -20.7467  -52.0187 H         1 UNK         0.0600 
    214 H214       -0.7979  -22.1188  -51.7865 H         1 UNK         0.0600 
    215 H215       -4.1529  -22.4021  -49.5589 H         1 UNK         0.3000 
    216 H216       -6.0274  -20.3589  -50.0712 H         1 UNK         0.0600 
    217 H217       -6.0432  -22.5962  -47.9712 H         1 UNK         0.0600 
    218 H218       -7.0345  -21.1424  -47.9096 H         1 UNK         0.0600 
    219 H219       -5.2879  -21.0134  -47.7973 H         1 UNK         0.0600 
    220 H220       -6.2114  -23.8142  -50.7399 H         1 UNK         0.3000 
    221 H221       -9.0720  -23.9680  -51.1342 H         1 UNK         0.0600 
    222 H222       -6.8382  -25.8059  -52.1479 H         1 UNK         0.0600 
    223 H223       -7.6480  -25.9603  -50.5882 H         1 UNK         0.0600 
    224 H224       -8.5511  -26.1870  -52.0778 H         1 UNK         0.0600 
    225 H225       -6.4432  -22.7312  -53.0122 H         1 UNK         0.3000 
    226 H226       -8.1275  -22.4532  -55.4653 H         1 UNK         0.0600 
    227 H227       -5.9817  -23.7431  -55.7881 H         1 UNK         0.0600 
    228 H228       -5.9910  -22.2290  -56.6737 H         1 UNK         0.0600 
    229 H229       -5.0744  -22.3625  -55.1748 H         1 UNK         0.0600 
    230 H230       -8.2685  -20.9537  -52.9370 H         1 UNK         0.3000 
    231 H231       -8.6043  -18.9665  -52.1166 H         1 UNK         0.0600 
    232 H232       -8.0808  -17.7634  -54.8865 H         1 UNK         0.0600 
    233 H233       -8.7956  -16.9368  -53.5126 H         1 UNK         0.0600 
    234 H234       -9.6436  -18.2820  -54.2591 H         1 UNK         0.0600 
    235 H235       -5.8406  -18.6579  -54.3391 H         1 UNK         0.3000 
    236 H236       -3.8801  -18.4530  -52.3154 H         1 UNK         0.0600 
    237 H237       -4.5893  -15.7920  -53.6849 H         1 UNK         0.0600 
    238 H238       -4.6498  -16.1250  -51.9555 H         1 UNK         0.0600 
    239 H239       -3.1059  -16.0755  -52.7820 H         1 UNK         0.0600 
    240 H240       -3.7638  -20.2744  -53.9609 H         1 UNK         0.3000 
    241 H241       -2.5962  -21.3524  -55.4981 H         1 UNK         0.0600 
    242 H242       -4.8711  -19.7417  -58.1554 H         1 UNK         0.3800 
    243 H243       -5.0990  -19.7602  -56.4298 H         1 UNK         0.3800 
    244 H244       -0.8778  -18.8744  -56.0189 H         1 UNK         0.0800 
    245 H245       -0.5167  -20.4938  -56.5210 H         1 UNK         0.0800 
    246 H246        1.4122  -18.4331  -54.0255 H         1 UNK         0.0800 
    247 H247       -0.2396  -17.8683  -54.0620 H         1 UNK         0.0800 
@<TRIPOS>BOND
     1    1    2 1    
     2    1  127 1    
     3    1  128 1    
     4    1  129 1    
     5    2    3 2    
     6    2    4 am   BACKBONE|DICT|INTERRES
     7    4    5 1    
     8    4  130 1    
     9    5    6 1    
    10    5   65 1    
    11    5  131 1    
    12    6    7 1    
    13    6  132 1    
    14    6  133 1    
    15    7    8 1    
    16    8    9 1    
    17    8  134 1    
    18    8  135 1    
    19    9   10 ar   
    20    9   14 ar   
    21   10   11 ar   
    22   10  136 1    
    23   11   12 ar   
    24   11  126 1    
    25   12   13 ar   
    26   12  137 1    
    27   13   14 ar   
    28   13   15 1    
    29   14  138 1    
    30   15   16 1    
    31   15  139 1    
    32   15  140 1    
    33   16   17 1    
    34   17   18 1    
    35   17  141 1    
    36   17  142 1    
    37   18   19 1    
    38   18   67 1    
    39   18  143 1    
    40   19   20 am   BACKBONE|DICT|INTERRES
    41   19  144 1    
    42   20   21 2    
    43   20   22 1    
    44   22   23 1    
    45   22   24 1    
    46   22  145 1    
    47   23  146 1    
    48   23  147 1    
    49   23  148 1    
    50   24   25 am   BACKBONE|DICT|INTERRES
    51   24  149 1    
    52   25   26 2    
    53   25   27 1    
    54   27   28 1    
    55   27   29 1    
    56   27  150 1    
    57   28  151 1    
    58   28  152 1    
    59   28  153 1    
    60   29   30 am   BACKBONE|DICT|INTERRES
    61   29  154 1    
    62   30   31 2    
    63   30   32 1    
    64   32   33 1    
    65   32   34 1    
    66   32  155 1    
    67   33  156 1    
    68   33  157 1    
    69   33  158 1    
    70   34   35 am   BACKBONE|DICT|INTERRES
    71   34  159 1    
    72   35   36 2    
    73   35   37 1    
    74   37   38 1    
    75   37   39 1    
    76   37  160 1    
    77   38  161 1    
    78   38  162 1    
    79   38  163 1    
    80   39   40 am   BACKBONE|DICT|INTERRES
    81   39  164 1    
    82   40   41 2    
    83   40   42 1    
    84   42   43 1    
    85   42   44 1    
    86   42  165 1    
    87   43  166 1    
    88   43  167 1    
    89   43  168 1    
    90   44   45 am   BACKBONE|DICT|INTERRES
    91   44  169 1    
    92   45   46 2    
    93   45   47 1    
    94   47   48 1    
    95   47   49 1    
    96   47  170 1    
    97   48  171 1    
    98   48  172 1    
    99   48  173 1    
   100   49   50 am   BACKBONE|DICT|INTERRES
   101   49  174 1    
   102   50   51 2    
   103   50   52 1    
   104   52   53 1    
   105   52   54 1    
   106   52  175 1    
   107   53  176 1    
   108   53  177 1    
   109   53  178 1    
   110   54   55 am   BACKBONE|DICT|INTERRES
   111   54  179 1    
   112   55   56 2    
   113   55   57 1    
   114   57   58 1    
   115   57   59 1    
   116   57  180 1    
   117   58  181 1    
   118   58  182 1    
   119   58  183 1    
   120   59   60 am   BACKBONE|DICT|INTERRES
   121   59  184 1    
   122   60   61 2    
   123   60   62 1    
   124   62   63 1    
   125   62   64 1    
   126   62  185 1    
   127   63  186 1    
   128   63  187 1    
   129   63  188 1    
   130   64   65 am   BACKBONE|DICT|INTERRES
   131   64  189 1    
   132   65   66 2    
   133   67   68 2    
   134   67   69 am   BACKBONE|DICT|INTERRES
   135   69   70 1    
   136   69  190 1    
   137   70   71 1    
   138   70   72 1    
   139   70  191 1    
   140   71  192 1    
   141   71  193 1    
   142   71  194 1    
   143   72   73 2    
   144   72   74 am   BACKBONE|DICT|INTERRES
   145   74   75 1    
   146   74  195 1    
   147   75   76 1    
   148   75   77 1    
   149   75  196 1    
   150   76  197 1    
   151   76  198 1    
   152   76  199 1    
   153   77   78 2    
   154   77   79 am   BACKBONE|DICT|INTERRES
   155   79   80 1    
   156   79  200 1    
   157   80   81 1    
   158   80   82 1    
   159   80  201 1    
   160   81  202 1    
   161   81  203 1    
   162   81  204 1    
   163   82   83 2    
   164   82   84 am   BACKBONE|DICT|INTERRES
   165   84   85 1    
   166   84  205 1    
   167   85   86 1    
   168   85   87 1    
   169   85  206 1    
   170   86  207 1    
   171   86  208 1    
   172   86  209 1    
   173   87   88 2    
   174   87   89 am   BACKBONE|DICT|INTERRES
   175   89   90 1    
   176   89  210 1    
   177   90   91 1    
   178   90   92 1    
   179   90  211 1    
   180   91  212 1    
   181   91  213 1    
   182   91  214 1    
   183   92   93 2    
   184   92   94 am   BACKBONE|DICT|INTERRES
   185   94   95 1    
   186   94  215 1    
   187   95   96 1    
   188   95   97 1    
   189   95  216 1    
   190   96  217 1    
   191   96  218 1    
   192   96  219 1    
   193   97   98 2    
   194   97   99 am   BACKBONE|DICT|INTERRES
   195   99  100 1    
   196   99  220 1    
   197  100  101 1    
   198  100  102 1    
   199  100  221 1    
   200  101  222 1    
   201  101  223 1    
   202  101  224 1    
   203  102  103 2    
   204  102  104 am   BACKBONE|DICT|INTERRES
   205  104  105 1    
   206  104  225 1    
   207  105  106 1    
   208  105  107 1    
   209  105  226 1    
   210  106  227 1    
   211  106  228 1    
   212  106  229 1    
   213  107  108 2    
   214  107  109 am   BACKBONE|DICT|INTERRES
   215  109  110 1    
   216  109  230 1    
   217  110  111 1    
   218  110  112 1    
   219  110  231 1    
   220  111  232 1    
   221  111  233 1    
   222  111  234 1    
   223  112  113 2    
   224  112  114 am   BACKBONE|DICT|INTERRES
   225  114  115 1    
   226  114  235 1    
   227  115  116 1    
   228  115  117 1    
   229  115  236 1    
   230  116  237 1    
   231  116  238 1    
   232  116  239 1    
   233  117  118 2    
   234  117  119 am   BACKBONE|DICT|INTERRES
   235  119  120 1    
   236  119  240 1    
   237  120  121 1    
   238  120  124 1    
   239  120  241 1    
   240  121  122 am   BACKBONE|DICT|INTERRES
   241  121  123 2    
   242  122  242 1    
   243  122  243 1    
   244  124  125 1    
   245  124  244 1    
   246  124  245 1    
   247  125  126 1    
   248  126  246 1    
   249  126  247 1    
@<TRIPOS>SUBSTRUCTURE
     1 UNK         1 GROUP             0       ****    0 ROOT    
