@<TRIPOS>MOLECULE
3R540
247   249    1
SMALL
USER_CHARGES


@<TRIPOS>ATOM
      1 CA          1.9172  -12.2198  -43.5930 C.3       0 UNK        -0.1800 
      2 C           1.6284  -12.6193  -45.0323 C.2       0 UNK         0.5000 
      3 O           0.6176  -12.1965  -45.5927 O.2       0 UNK        -0.5000 
      4 N           2.5239  -13.4121  -45.6381 N.am      1 UNK        -0.5000 
      5 CA          2.3995  -13.9925  -46.9842 C.3       1 UNK         0.1400 
      6 C6          3.5832  -14.9279  -47.3251 C.3       23 UNK        -0.0398 
      7 S7          3.6819  -16.3852  -46.2290 S.3       23 UNK        -0.2404 
      8 C8          2.3198  -17.4254  -46.8521 C.3       23 UNK        -0.0205 
      9 C9          2.4373  -17.7338  -48.3373 C.ar      23 UNK        -0.0193 
     10 C10         1.5617  -17.1314  -49.2439 C.ar      23 UNK        -0.1150 
     11 C11         1.6430  -17.4137  -50.6090 C.ar      23 UNK        -0.0193 
     12 C12         2.6082  -18.3168  -51.0652 C.ar      23 UNK        -0.1150 
     13 C13         3.4863  -18.9339  -50.1683 C.ar      23 UNK        -0.0193 
     14 C14         3.4028  -18.6282  -48.8054 C.ar      23 UNK        -0.1150 
     15 C15         4.5367  -19.9094  -50.6830 C.3       23 UNK        -0.0205 
     16 S16         3.8945  -21.6105  -50.8280 S.3       23 UNK        -0.2404 
     17 C17         3.9755  -22.1700  -49.0912 C.3       23 UNK        -0.0398 
     18 CA          2.9100  -23.2061  -48.6496 C.3       11 UNK         0.1400 
     19 N           3.1447  -23.5587  -47.2476 N.am      11 UNK        -0.5000 
     20 C           2.4759  -24.4526  -46.5088 C.2       10 UNK         0.5000 
     21 O           1.5734  -25.1722  -46.9353 O.2       10 UNK        -0.5000 
     22 CA          2.8552  -24.4958  -45.0140 C.3       10 UNK         0.1400 
     23 CB          3.9731  -25.5216  -44.7761 C.3       10 UNK        -0.1800 
     24 N           3.2660  -23.1969  -44.4584 N.am      10 UNK        -0.5000 
     25 C           2.5401  -22.0704  -44.4915 C.2       9 UNK         0.5000 
     26 O           1.4400  -21.9789  -45.0457 O.2       9 UNK        -0.5000 
     27 CA          3.1641  -20.8249  -43.8512 C.3       9 UNK         0.1400 
     28 CB          4.2350  -20.2133  -44.7722 C.3       9 UNK        -0.1800 
     29 N           2.0912  -19.8661  -43.6213 N.am      9 UNK        -0.5000 
     30 C           2.0753  -18.8980  -42.7002 C.2       8 UNK         0.5000 
     31 O           3.0333  -18.6291  -41.9744 O.2       8 UNK        -0.5000 
     32 CA          0.7591  -18.1104  -42.5433 C.3       8 UNK         0.1400 
     33 CB          0.8354  -16.7653  -43.2780 C.3       8 UNK        -0.1800 
     34 N          -0.4181  -18.8449  -43.0156 N.am      8 UNK        -0.5000 
     35 C          -0.9822  -19.8815  -42.3834 C.2       7 UNK         0.5000 
     36 O          -0.5655  -20.3219  -41.3108 O.2       7 UNK        -0.5000 
     37 CA         -2.2169  -20.5224  -43.0588 C.3       7 UNK         0.1400 
     38 CB         -2.8634  -21.6224  -42.1965 C.3       7 UNK        -0.1800 
     39 N          -3.2524  -19.5469  -43.4037 N.am      7 UNK        -0.5000 
     40 C          -3.2173  -18.6972  -44.4366 C.2       6 UNK         0.5000 
     41 O          -2.2758  -18.6433  -45.2270 O.2       6 UNK        -0.5000 
     42 CA         -4.4162  -17.7433  -44.6266 C.3       6 UNK         0.1400 
     43 CB         -5.5026  -17.8547  -43.5327 C.3       6 UNK        -0.1800 
     44 N          -3.9799  -16.3527  -44.7826 N.am      6 UNK        -0.5000 
     45 C          -3.2693  -15.6231  -43.9085 C.2       5 UNK         0.5000 
     46 O          -2.9259  -16.0260  -42.7954 O.2       5 UNK        -0.5000 
     47 CA         -2.9109  -14.1895  -44.3577 C.3       5 UNK         0.1400 
     48 CB         -1.7610  -13.5629  -43.5443 C.3       5 UNK        -0.1800 
     49 N          -2.6464  -14.0632  -45.7952 N.am      5 UNK        -0.5000 
     50 C          -1.7111  -14.6933  -46.5208 C.2       4 UNK         0.5000 
     51 O          -0.9365  -15.5372  -46.0738 O.2       4 UNK        -0.5000 
     52 CA         -1.6094  -14.2928  -48.0049 C.3       4 UNK         0.1400 
     53 CB         -2.8437  -14.7417  -48.8082 C.3       4 UNK        -0.1800 
     54 N          -1.3047  -12.8706  -48.1994 N.am      4 UNK        -0.5000 
     55 C          -2.0454  -11.7934  -47.8928 C.2       3 UNK         0.5000 
     56 O          -3.2115  -11.8587  -47.4990 O.2       3 UNK        -0.5000 
     57 CA         -1.3582  -10.4165  -48.0103 C.3       3 UNK         0.1400 
     58 CB         -1.7710   -9.4760  -46.8641 C.3       3 UNK        -0.1800 
     59 N           0.0979  -10.5595  -47.9891 N.am      3 UNK        -0.5000 
     60 C           0.9368  -10.1956  -48.9680 C.2       2 UNK         0.5000 
     61 O           0.5815   -9.6079  -49.9901 O.2       2 UNK        -0.5000 
     62 CA          2.4257  -10.5703  -48.7931 C.3       2 UNK         0.1400 
     63 CB          3.2222   -9.3672  -48.2657 C.3       2 UNK        -0.1800 
     64 N           2.6526  -11.7142  -47.9039 N.am      2 UNK        -0.5000 
     65 C           2.1982  -12.9584  -48.1129 C.2       1 UNK         0.5000 
     66 O           1.5840  -13.2932  -49.1260 O.2       1 UNK        -0.5000 
     67 C           1.4617  -22.7232  -48.9091 C.2       11 UNK         0.5000 
     68 O           0.8863  -23.0770  -49.9375 O.2       11 UNK        -0.5000 
     69 N           0.8959  -21.9560  -47.9675 N.am      12 UNK        -0.5000 
     70 CA         -0.4588  -21.4095  -48.0469 C.3       12 UNK         0.1400 
     71 CB         -0.4238  -19.9612  -47.5469 C.3       12 UNK        -0.1800 
     72 C          -1.4709  -22.2392  -47.2374 C.2       12 UNK         0.5000 
     73 O          -2.6476  -22.2767  -47.5940 O.2       12 UNK        -0.5000 
     74 N          -1.0082  -22.9011  -46.1681 N.am      13 UNK        -0.5000 
     75 CA         -1.8312  -23.7300  -45.2867 C.3       13 UNK         0.1400 
     76 CB         -1.0277  -24.0823  -44.0272 C.3       13 UNK        -0.1800 
     77 C          -2.3553  -25.0172  -45.9488 C.2       13 UNK         0.5000 
     78 O          -3.3761  -25.5362  -45.4973 O.2       13 UNK        -0.5000 
     79 N          -1.6523  -25.5076  -46.9818 N.am      14 UNK        -0.5000 
     80 CA         -1.9419  -26.7167  -47.7588 C.3       14 UNK         0.1400 
     81 CB         -0.9316  -26.8148  -48.9137 C.3       14 UNK        -0.1800 
     82 C          -3.3953  -26.7762  -48.2737 C.2       14 UNK         0.5000 
     83 O          -3.7287  -26.1227  -49.2635 O.2       14 UNK        -0.5000 
     84 N          -4.2405  -27.5183  -47.5419 N.am      15 UNK        -0.5000 
     85 CA         -5.6904  -27.6696  -47.7260 C.3       15 UNK         0.1400 
     86 CB         -5.9893  -28.4317  -49.0341 C.3       15 UNK        -0.1800 
     87 C          -6.4820  -26.3441  -47.6277 C.2       15 UNK         0.5000 
     88 O          -7.6007  -26.2694  -48.1385 O.2       15 UNK        -0.5000 
     89 N          -5.8832  -25.3159  -47.0048 N.am      16 UNK        -0.5000 
     90 CA         -6.3176  -23.9182  -46.8552 C.3       16 UNK         0.1400 
     91 CB         -7.6032  -23.8258  -46.0136 C.3       16 UNK        -0.1800 
     92 C          -6.4634  -23.1244  -48.1729 C.2       16 UNK         0.5000 
     93 O          -6.1320  -21.9394  -48.2035 O.2       16 UNK        -0.5000 
     94 N          -6.9434  -23.7779  -49.2378 N.am      17 UNK        -0.5000 
     95 CA         -7.1862  -23.2219  -50.5693 C.3       17 UNK         0.1400 
     96 CB         -7.8898  -24.2822  -51.4285 C.3       17 UNK        -0.1800 
     97 C          -5.9209  -22.7118  -51.2811 C.2       17 UNK         0.5000 
     98 O          -6.0273  -21.8332  -52.1391 O.2       17 UNK        -0.5000 
     99 N          -4.7434  -23.2307  -50.9023 N.am      18 UNK        -0.5000 
    100 CA        -3.4486  -22.7921  -51.4235 C.3       18 UNK         0.1400 
    101 CB        -2.3328  -23.6959  -50.8903 C.3       18 UNK        -0.1800 
    102 C         -3.1447  -21.3041  -51.1594 C.2       18 UNK         0.5000 
    103 O         -2.4755  -20.6824  -51.9814 O.2       18 UNK        -0.5000 
    104 N         -3.6962  -20.7447  -50.0710 N.am      19 UNK        -0.5000 
    105 CA        -3.6259  -19.3221  -49.7294 C.3       19 UNK         0.1400 
    106 CB        -4.1963  -19.1123  -48.3176 C.3       19 UNK        -0.1800 
    107 C         -4.3656  -18.4124  -50.7305 C.2       19 UNK         0.5000 
    108 O         -4.0141  -17.2397  -50.8504 O.2       19 UNK        -0.5000 
    109 N         -5.3750  -18.9552  -51.4246 N.am      20 UNK        -0.5000 
    110 CA        -6.0702  -18.2765  -52.5150 C.3       20 UNK         0.1400 
    111 CB        -7.5374  -18.7326  -52.5574 C.3       20 UNK        -0.1800 
    112 C         -5.3656  -18.5532  -53.8522 C.2       20 UNK         0.5000 
    113 O         -5.1477  -17.6222  -54.6295 O.2       20 UNK        -0.5000 
    114 N         -5.0050  -19.8243  -54.0886 N.am      21 UNK        -0.5000 
    115 CA        -4.3839  -20.3029  -55.3267 C.3       21 UNK         0.1400 
    116 CB        -4.2813  -21.8342  -55.2911 C.3       21 UNK        -0.1800 
    117 C         -3.0076  -19.6786  -55.6291 C.2       21 UNK         0.5000 
    118 O         -2.6642  -19.5338  -56.8033 O.2       21 UNK        -0.5000 
    119 N         -2.2552  -19.3056  -54.5846 N.am      22 UNK        -0.5000 
    120 CA        -0.9758  -18.5875  -54.6966 C.3       22 UNK         0.1400 
    121 C         -1.0821  -17.1083  -55.1834 C.2       22 UNK         0.5000 
    122 N         -2.2677  -16.5161  -55.2846 N.am      22 UNK        -0.7600 
    123 O         -0.0656  -16.4912  -55.4904 O.2       22 UNK        -0.5000 
    124 C124       -0.1161  -18.7360  -53.4128 C.3       23 UNK        -0.0398 
    125 S125       -0.7355  -17.7952  -51.9702 S.3       23 UNK        -0.2404 
    126 C126        0.6887  -16.7327  -51.5789 C.3       23 UNK        -0.0205 
    127 H127        1.1236  -12.5792  -42.9382 H         1 UNK         0.0600 
    128 H128        1.9649  -11.1342  -43.5082 H         1 UNK         0.0600 
    129 H129        2.8627  -12.6318  -43.2394 H         1 UNK         0.0600 
    130 H130        3.3327  -13.7192  -45.1167 H         1 UNK         0.3000 
    131 H131        1.4889  -14.5926  -46.9734 H         1 UNK         0.0600 
    132 H132        3.5336  -15.2715  -48.3594 H         1 UNK         0.0800 
    133 H133        4.5255  -14.3833  -47.2458 H         1 UNK         0.0800 
    134 H134        1.3685  -16.9350  -46.6435 H         1 UNK         0.0800 
    135 H135        2.2976  -18.3588  -46.2904 H         1 UNK         0.0800 
    136 H136        0.8129  -16.4411  -48.8855 H         1 UNK         0.1150 
    137 H137        2.6782  -18.5431  -52.1190 H         1 UNK         0.1150 
    138 H138        4.0903  -19.0783  -48.1043 H         1 UNK         0.1150 
    139 H139        4.8824  -19.5838  -51.6652 H         1 UNK         0.0800 
    140 H140        5.4168  -19.9003  -50.0379 H         1 UNK         0.0800 
    141 H141        3.9206  -21.3030  -48.4355 H         1 UNK         0.0800 
    142 H142        4.9715  -22.5888  -48.9397 H         1 UNK         0.0800 
    143 H143        3.0554  -24.1147  -49.2373 H         1 UNK         0.0600 
    144 H144        3.8675  -23.0340  -46.7786 H         1 UNK         0.3000 
    145 H145        1.9773  -24.8252  -44.4596 H         1 UNK         0.0600 
    146 H146        4.1829  -25.6378  -43.7126 H         1 UNK         0.0600 
    147 H147        3.6904  -26.5035  -45.1584 H         1 UNK         0.0600 
    148 H148        4.8998  -25.2305  -45.2721 H         1 UNK         0.0600 
    149 H149        4.1631  -23.1796  -43.9946 H         1 UNK         0.3000 
    150 H150        3.6090  -21.1075  -42.8950 H         1 UNK         0.0600 
    151 H151        5.0899  -20.8823  -44.8752 H         1 UNK         0.0600 
    152 H152        4.6101  -19.2692  -44.3767 H         1 UNK         0.0600 
    153 H153        3.8471  -20.0249  -45.7731 H         1 UNK         0.0600 
    154 H154        1.2465  -20.0653  -44.1417 H         1 UNK         0.3000 
    155 H155        0.6289  -17.9046  -41.4790 H         1 UNK         0.0600 
    156 H156        0.8986  -16.8996  -44.3565 H         1 UNK         0.0600 
    157 H157        1.7062  -16.1885  -42.9645 H         1 UNK         0.0600 
    158 H158       -0.0478  -16.1632  -43.0703 H         1 UNK         0.0600 
    159 H159       -0.8435  -18.5329  -43.8841 H         1 UNK         0.3000 
    160 H160       -1.8599  -20.9865  -43.9800 H         1 UNK         0.0600 
    161 H161       -3.2852  -21.2146  -41.2773 H         1 UNK         0.0600 
    162 H162       -2.1374  -22.3830  -41.9097 H         1 UNK         0.0600 
    163 H163       -3.6636  -22.1280  -42.7371 H         1 UNK         0.0600 
    164 H164       -4.0382  -19.4932  -42.7724 H         1 UNK         0.3000 
    165 H165       -4.8772  -18.0274  -45.5730 H         1 UNK         0.0600 
    166 H166       -5.1168  -17.6156  -42.5412 H         1 UNK         0.0600 
    167 H167       -6.3282  -17.1726  -43.7360 H         1 UNK         0.0600 
    168 H168       -5.9251  -18.8595  -43.4951 H         1 UNK         0.0600 
    169 H169       -4.1735  -15.9328  -45.6799 H         1 UNK         0.3000 
    170 H170       -3.8030  -13.5928  -44.1642 H         1 UNK         0.0600 
    171 H171       -1.9719  -13.5810  -42.4747 H         1 UNK         0.0600 
    172 H172       -0.8217  -14.0894  -43.7059 H         1 UNK         0.0600 
    173 H173       -1.6074  -12.5210  -43.8255 H         1 UNK         0.0600 
    174 H174       -3.1785  -13.3454  -46.2800 H         1 UNK         0.3000 
    175 H175       -0.7533  -14.8288  -48.4142 H         1 UNK         0.0600 
    176 H176       -3.7579  -14.2465  -48.4816 H         1 UNK         0.0600 
    177 H177       -2.7150  -14.5408  -49.8718 H         1 UNK         0.0600 
    178 H178       -3.0006  -15.8155  -48.7005 H         1 UNK         0.0600 
    179 H179       -0.3617  -12.6948  -48.5251 H         1 UNK         0.3000 
    180 H180       -1.6912   -9.9788  -48.9532 H         1 UNK         0.0600 
    181 H181       -1.5147   -9.8973  -45.8910 H         1 UNK         0.0600 
    182 H182       -2.8458   -9.2904  -46.8718 H         1 UNK         0.0600 
    183 H183       -1.2762   -8.5088  -46.9514 H         1 UNK         0.0600 
    184 H184        0.4671  -11.0553  -47.1811 H         1 UNK         0.3000 
    185 H185        2.8133  -10.8337  -49.7792 H         1 UNK         0.0600 
    186 H186        4.2882   -9.5899  -48.2158 H         1 UNK         0.0600 
    187 H187        3.1028   -8.5022  -48.9196 H         1 UNK         0.0600 
    188 H188        2.8921   -9.0731  -47.2686 H         1 UNK         0.0600 
    189 H189        3.1276  -11.5221  -47.0339 H         1 UNK         0.3000 
    190 H190        1.4023  -21.7737  -47.1101 H         1 UNK         0.3000 
    191 H191       -0.8002  -21.3941  -49.0840 H         1 UNK         0.0600 
    192 H192       -1.4142  -19.5113  -47.5706 H         1 UNK         0.0600 
    193 H193        0.2137  -19.3532  -48.1843 H         1 UNK         0.0600 
    194 H194       -0.0526  -19.8897  -46.5239 H         1 UNK         0.0600 
    195 H195       -0.0404  -22.7660  -45.8923 H         1 UNK         0.3000 
    196 H196       -2.6980  -23.1373  -44.9875 H         1 UNK         0.0600 
    197 H197       -0.2393  -24.7998  -44.2484 H         1 UNK         0.0600 
    198 H198       -0.5666  -23.2020  -43.5799 H         1 UNK         0.0600 
    199 H199       -1.6717  -24.5347  -43.2722 H         1 UNK         0.0600 
    200 H200       -0.8091  -25.0133  -47.2414 H         1 UNK         0.3000 
    201 H201       -1.7765  -27.5730  -47.1025 H         1 UNK         0.0600 
    202 H202       -0.9574  -25.9295  -49.5495 H         1 UNK         0.0600 
    203 H203       -1.1386  -27.6801  -49.5445 H         1 UNK         0.0600 
    204 H204        0.0860  -26.9234  -48.5382 H         1 UNK         0.0600 
    205 H205       -3.8709  -27.9625  -46.7124 H         1 UNK         0.3000 
    206 H206       -6.0387  -28.2870  -46.8971 H         1 UNK         0.0600 
    207 H207       -5.4284  -29.3649  -49.0841 H         1 UNK         0.0600 
    208 H208       -7.0469  -28.6879  -49.1073 H         1 UNK         0.0600 
    209 H209       -5.7355  -27.8400  -49.9142 H         1 UNK         0.0600 
    210 H210       -4.9668  -25.5053  -46.6075 H         1 UNK         0.3000 
    211 H211       -5.5211  -23.4281  -46.2924 H         1 UNK         0.0600 
    212 H212       -7.8667  -22.7851  -45.8203 H         1 UNK         0.0600 
    213 H213       -7.4770  -24.3139  -45.0472 H         1 UNK         0.0600 
    214 H214       -8.4533  -24.2886  -46.5155 H         1 UNK         0.0600 
    215 H215       -7.2206  -24.7449  -49.0898 H         1 UNK         0.3000 
    216 H216       -7.8585  -22.3695  -50.4540 H         1 UNK         0.0600 
    217 H217       -7.2729  -25.1737  -51.5493 H         1 UNK         0.0600 
    218 H218       -8.1108  -23.8963  -52.4247 H         1 UNK         0.0600 
    219 H219       -8.8361  -24.5877  -50.9815 H         1 UNK         0.0600 
    220 H220       -4.7299  -23.9542  -50.1955 H         1 UNK         0.3000 
    221 H221       -3.4803  -22.9264  -52.5038 H         1 UNK         0.0600 
    222 H222       -2.4738  -24.7256  -51.2180 H         1 UNK         0.0600 
    223 H223       -2.2905  -23.6932  -49.8019 H         1 UNK         0.0600 
    224 H224       -1.3614  -23.3716  -51.2630 H         1 UNK         0.0600 
    225 H225       -4.2237  -21.3328  -49.4363 H         1 UNK         0.3000 
    226 H226       -2.5736  -19.0315  -49.7272 H         1 UNK         0.0600 
    227 H227       -5.2697  -19.3028  -48.2863 H         1 UNK         0.0600 
    228 H228       -3.7252  -19.7710  -47.5890 H         1 UNK         0.0600 
    229 H229       -4.0334  -18.0875  -47.9827 H         1 UNK         0.0600 
    230 H230       -5.5851  -19.9370  -51.2946 H         1 UNK         0.3000 
    231 H231       -6.0643  -17.1975  -52.3458 H         1 UNK         0.0600 
    232 H232       -7.6301  -19.8018  -52.7488 H         1 UNK         0.0600 
    233 H233       -8.0822  -18.2116  -53.3457 H         1 UNK         0.0600 
    234 H234       -8.0429  -18.5169  -51.6160 H         1 UNK         0.0600 
    235 H235       -5.2448  -20.5307  -53.4002 H         1 UNK         0.3000 
    236 H236       -5.0534  -20.0299  -56.1449 H         1 UNK         0.0600 
    237 H237       -5.2299  -22.2954  -55.0150 H         1 UNK         0.0600 
    238 H238       -4.0009  -22.2246  -56.2702 H         1 UNK         0.0600 
    239 H239       -3.5220  -22.1648  -54.5845 H         1 UNK         0.0600 
    240 H240       -2.5693  -19.5145  -53.6420 H         1 UNK         0.3000 
    241 H241       -0.4181  -19.0960  -55.4855 H         1 UNK         0.0600 
    242 H242       -2.3181  -15.5627  -55.6061 H         1 UNK         0.3800 
    243 H243       -3.1185  -17.0067  -55.0385 H         1 UNK         0.3800 
    244 H244        0.9090  -18.4390  -53.6338 H         1 UNK         0.0800 
    245 H245       -0.0551  -19.7870  -53.1269 H         1 UNK         0.0800 
    246 H246        0.3151  -15.8056  -51.1406 H         1 UNK         0.0800 
    247 H247        1.2125  -16.4397  -52.4899 H         1 UNK         0.0800 
@<TRIPOS>BOND
     1    1    2 1    
     2    1  127 1    
     3    1  128 1    
     4    1  129 1    
     5    2    3 2    
     6    2    4 am   BACKBONE|DICT|INTERRES
     7    4    5 1    
     8    4  130 1    
     9    5    6 1    
    10    5   65 1    
    11    5  131 1    
    12    6    7 1    
    13    6  132 1    
    14    6  133 1    
    15    7    8 1    
    16    8    9 1    
    17    8  134 1    
    18    8  135 1    
    19    9   10 ar   
    20    9   14 ar   
    21   10   11 ar   
    22   10  136 1    
    23   11   12 ar   
    24   11  126 1    
    25   12   13 ar   
    26   12  137 1    
    27   13   14 ar   
    28   13   15 1    
    29   14  138 1    
    30   15   16 1    
    31   15  139 1    
    32   15  140 1    
    33   16   17 1    
    34   17   18 1    
    35   17  141 1    
    36   17  142 1    
    37   18   19 1    
    38   18   67 1    
    39   18  143 1    
    40   19   20 am   BACKBONE|DICT|INTERRES
    41   19  144 1    
    42   20   21 2    
    43   20   22 1    
    44   22   23 1    
    45   22   24 1    
    46   22  145 1    
    47   23  146 1    
    48   23  147 1    
    49   23  148 1    
    50   24   25 am   BACKBONE|DICT|INTERRES
    51   24  149 1    
    52   25   26 2    
    53   25   27 1    
    54   27   28 1    
    55   27   29 1    
    56   27  150 1    
    57   28  151 1    
    58   28  152 1    
    59   28  153 1    
    60   29   30 am   BACKBONE|DICT|INTERRES
    61   29  154 1    
    62   30   31 2    
    63   30   32 1    
    64   32   33 1    
    65   32   34 1    
    66   32  155 1    
    67   33  156 1    
    68   33  157 1    
    69   33  158 1    
    70   34   35 am   BACKBONE|DICT|INTERRES
    71   34  159 1    
    72   35   36 2    
    73   35   37 1    
    74   37   38 1    
    75   37   39 1    
    76   37  160 1    
    77   38  161 1    
    78   38  162 1    
    79   38  163 1    
    80   39   40 am   BACKBONE|DICT|INTERRES
    81   39  164 1    
    82   40   41 2    
    83   40   42 1    
    84   42   43 1    
    85   42   44 1    
    86   42  165 1    
    87   43  166 1    
    88   43  167 1    
    89   43  168 1    
    90   44   45 am   BACKBONE|DICT|INTERRES
    91   44  169 1    
    92   45   46 2    
    93   45   47 1    
    94   47   48 1    
    95   47   49 1    
    96   47  170 1    
    97   48  171 1    
    98   48  172 1    
    99   48  173 1    
   100   49   50 am   BACKBONE|DICT|INTERRES
   101   49  174 1    
   102   50   51 2    
   103   50   52 1    
   104   52   53 1    
   105   52   54 1    
   106   52  175 1    
   107   53  176 1    
   108   53  177 1    
   109   53  178 1    
   110   54   55 am   BACKBONE|DICT|INTERRES
   111   54  179 1    
   112   55   56 2    
   113   55   57 1    
   114   57   58 1    
   115   57   59 1    
   116   57  180 1    
   117   58  181 1    
   118   58  182 1    
   119   58  183 1    
   120   59   60 am   BACKBONE|DICT|INTERRES
   121   59  184 1    
   122   60   61 2    
   123   60   62 1    
   124   62   63 1    
   125   62   64 1    
   126   62  185 1    
   127   63  186 1    
   128   63  187 1    
   129   63  188 1    
   130   64   65 am   BACKBONE|DICT|INTERRES
   131   64  189 1    
   132   65   66 2    
   133   67   68 2    
   134   67   69 am   BACKBONE|DICT|INTERRES
   135   69   70 1    
   136   69  190 1    
   137   70   71 1    
   138   70   72 1    
   139   70  191 1    
   140   71  192 1    
   141   71  193 1    
   142   71  194 1    
   143   72   73 2    
   144   72   74 am   BACKBONE|DICT|INTERRES
   145   74   75 1    
   146   74  195 1    
   147   75   76 1    
   148   75   77 1    
   149   75  196 1    
   150   76  197 1    
   151   76  198 1    
   152   76  199 1    
   153   77   78 2    
   154   77   79 am   BACKBONE|DICT|INTERRES
   155   79   80 1    
   156   79  200 1    
   157   80   81 1    
   158   80   82 1    
   159   80  201 1    
   160   81  202 1    
   161   81  203 1    
   162   81  204 1    
   163   82   83 2    
   164   82   84 am   BACKBONE|DICT|INTERRES
   165   84   85 1    
   166   84  205 1    
   167   85   86 1    
   168   85   87 1    
   169   85  206 1    
   170   86  207 1    
   171   86  208 1    
   172   86  209 1    
   173   87   88 2    
   174   87   89 am   BACKBONE|DICT|INTERRES
   175   89   90 1    
   176   89  210 1    
   177   90   91 1    
   178   90   92 1    
   179   90  211 1    
   180   91  212 1    
   181   91  213 1    
   182   91  214 1    
   183   92   93 2    
   184   92   94 am   BACKBONE|DICT|INTERRES
   185   94   95 1    
   186   94  215 1    
   187   95   96 1    
   188   95   97 1    
   189   95  216 1    
   190   96  217 1    
   191   96  218 1    
   192   96  219 1    
   193   97   98 2    
   194   97   99 am   BACKBONE|DICT|INTERRES
   195   99  100 1    
   196   99  220 1    
   197  100  101 1    
   198  100  102 1    
   199  100  221 1    
   200  101  222 1    
   201  101  223 1    
   202  101  224 1    
   203  102  103 2    
   204  102  104 am   BACKBONE|DICT|INTERRES
   205  104  105 1    
   206  104  225 1    
   207  105  106 1    
   208  105  107 1    
   209  105  226 1    
   210  106  227 1    
   211  106  228 1    
   212  106  229 1    
   213  107  108 2    
   214  107  109 am   BACKBONE|DICT|INTERRES
   215  109  110 1    
   216  109  230 1    
   217  110  111 1    
   218  110  112 1    
   219  110  231 1    
   220  111  232 1    
   221  111  233 1    
   222  111  234 1    
   223  112  113 2    
   224  112  114 am   BACKBONE|DICT|INTERRES
   225  114  115 1    
   226  114  235 1    
   227  115  116 1    
   228  115  117 1    
   229  115  236 1    
   230  116  237 1    
   231  116  238 1    
   232  116  239 1    
   233  117  118 2    
   234  117  119 am   BACKBONE|DICT|INTERRES
   235  119  120 1    
   236  119  240 1    
   237  120  121 1    
   238  120  124 1    
   239  120  241 1    
   240  121  122 am   BACKBONE|DICT|INTERRES
   241  121  123 2    
   242  122  242 1    
   243  122  243 1    
   244  124  125 1    
   245  124  244 1    
   246  124  245 1    
   247  125  126 1    
   248  126  246 1    
   249  126  247 1    
@<TRIPOS>SUBSTRUCTURE
     1 UNK         1 GROUP             0       ****    0 ROOT    
