@<TRIPOS>MOLECULE
3R540
247   249    1
SMALL
USER_CHARGES


@<TRIPOS>ATOM
      1 CA          1.1132  -13.9031  -51.3098 C.3       0 UNK        -0.1800 
      2 C           1.8198  -13.8054  -49.9650 C.2       0 UNK         0.5000 
      3 O           3.0489  -13.7556  -49.9177 O.2       0 UNK        -0.5000 
      4 N           1.0468  -13.7898  -48.8740 N.am      1 UNK        -0.5000 
      5 CA          1.5147  -13.6465  -47.4952 C.3       1 UNK         0.1400 
      6 C6          0.4274  -14.0223  -46.4482 C.3       23 UNK        -0.0398 
      7 S7         -1.2616  -13.4098  -46.8203 S.3       23 UNK        -0.2404 
      8 C8         -2.2151  -14.9418  -47.1062 C.3       23 UNK        -0.0205 
      9 C9         -1.9778  -15.5490  -48.4834 C.ar      23 UNK        -0.0193 
     10 C10        -2.9235  -15.3813  -49.5006 C.ar      23 UNK        -0.1150 
     11 C11        -2.7170  -15.9471  -50.7629 C.ar      23 UNK        -0.0193 
     12 C12        -1.5412  -16.6601  -51.0140 C.ar      23 UNK        -0.1150 
     13 C13        -0.5913  -16.8371  -50.0064 C.ar      23 UNK        -0.0193 
     14 C14        -0.8271  -16.3005  -48.7393 C.ar      23 UNK        -0.1150 
     15 C15         0.7015  -17.5826  -50.2950 C.3       23 UNK        -0.0205 
     16 S16         0.5356  -19.3660  -49.9989 S.3       23 UNK        -0.2404 
     17 C17         0.5559  -19.4363  -48.1764 C.3       23 UNK        -0.0398 
     18 CA          0.5915  -20.8906  -47.6530 C.3       11 UNK         0.1400 
     19 N           1.1617  -20.9702  -46.3055 N.am      11 UNK        -0.5000 
     20 C           1.5838  -22.1062  -45.7325 C.2       10 UNK         0.5000 
     21 O           1.5356  -23.2074  -46.2810 O.2       10 UNK        -0.5000 
     22 CA          2.1315  -21.9985  -44.2982 C.3       10 UNK         0.1400 
     23 CB          3.5690  -21.4565  -44.3016 C.3       10 UNK        -0.1800 
     24 N           1.2920  -21.1632  -43.4404 N.am      10 UNK        -0.5000 
     25 C           0.0391  -21.4737  -43.0777 C.2       9 UNK         0.5000 
     26 O          -0.5216  -22.5278  -43.3793 O.2       9 UNK        -0.5000 
     27 CA         -0.7314  -20.4164  -42.2668 C.3       9 UNK         0.1400 
     28 CB         -0.3883  -20.5264  -40.7737 C.3       9 UNK        -0.1800 
     29 N          -0.4940  -19.0460  -42.7255 N.am      9 UNK        -0.5000 
     30 C          -0.7862  -18.5881  -43.9507 C.2       8 UNK         0.5000 
     31 O          -1.2794  -19.2778  -44.8405 O.2       8 UNK        -0.5000 
     32 CA         -0.4102  -17.1312  -44.2622 C.3       8 UNK         0.1400 
     33 CB         -1.3747  -16.1420  -43.5912 C.3       8 UNK        -0.1800 
     34 N           0.9658  -16.8146  -43.8906 N.am      8 UNK        -0.5000 
     35 C           2.0448  -17.4039  -44.4251 C.2       7 UNK         0.5000 
     36 O           1.9971  -18.2364  -45.3313 O.2       7 UNK        -0.5000 
     37 CA          3.3996  -17.0313  -43.8033 C.3       7 UNK         0.1400 
     38 CB          3.9092  -15.6946  -44.3666 C.3       7 UNK        -0.1800 
     39 N           3.3217  -16.9611  -42.3431 N.am      7 UNK        -0.5000 
     40 C           3.1055  -18.0196  -41.5470 C.2       6 UNK         0.5000 
     41 O           2.9881  -19.1741  -41.9574 O.2       6 UNK        -0.5000 
     42 CA          2.9463  -17.7296  -40.0437 C.3       6 UNK         0.1400 
     43 CB          4.3188  -17.5777  -39.3710 C.3       6 UNK        -0.1800 
     44 N           2.1429  -16.5336  -39.7863 N.am      6 UNK        -0.5000 
     45 C           0.8403  -16.4162  -40.0821 C.2       5 UNK         0.5000 
     46 O           0.1675  -17.3217  -40.5702 O.2       5 UNK        -0.5000 
     47 CA          0.1884  -15.0449  -39.8310 C.3       5 UNK         0.1400 
     48 CB         -0.3924  -14.9762  -38.4111 C.3       5 UNK        -0.1800 
     49 N           1.1121  -13.9274  -40.0332 N.am      5 UNK        -0.5000 
     50 C           1.6602  -13.5961  -41.2092 C.2       4 UNK         0.5000 
     51 O           1.4574  -14.2084  -42.2619 O.2       4 UNK        -0.5000 
     52 CA          2.6541  -12.4223  -41.1796 C.3       4 UNK         0.1400 
     53 CB          4.0963  -12.9482  -41.2510 C.3       4 UNK        -0.1800 
     54 N           2.4437  -11.4747  -42.2700 N.am      4 UNK        -0.5000 
     55 C           1.3518  -10.7282  -42.4715 C.2       3 UNK         0.5000 
     56 O           0.3660  -10.7566  -41.7335 O.2       3 UNK        -0.5000 
     57 CA          1.3457   -9.7775  -43.6898 C.3       3 UNK         0.1400 
     58 CB          1.7269   -8.3455  -43.2686 C.3       3 UNK        -0.1800 
     59 N           2.1433  -10.2151  -44.8462 N.am      3 UNK        -0.5000 
     60 C           3.4690  -10.3765  -44.9641 C.2       2 UNK         0.5000 
     61 O           4.2649  -10.1801  -44.0448 O.2       2 UNK        -0.5000 
     62 CA          3.9697  -10.9125  -46.3219 C.3       2 UNK         0.1400 
     63 CB          5.4880  -11.1674  -46.3371 C.3       2 UNK        -0.1800 
     64 N           3.2842  -12.1542  -46.6870 N.am      2 UNK        -0.5000 
     65 C           2.0737  -12.2311  -47.2531 C.2       1 UNK         0.5000 
     66 O           1.3969  -11.2416  -47.5426 O.2       1 UNK        -0.5000 
     67 C          -0.7975  -21.5592  -47.7473 C.2       11 UNK         0.5000 
     68 O          -1.0952  -22.1889  -48.7605 O.2       11 UNK        -0.5000 
     69 N          -1.6089  -21.4336  -46.6869 N.am      12 UNK        -0.5000 
     70 CA         -2.9779  -21.9473  -46.5851 C.3       12 UNK         0.1400 
     71 CB         -3.6577  -21.3250  -45.3552 C.3       12 UNK        -0.1800 
     72 C          -3.1107  -23.4837  -46.5506 C.2       12 UNK         0.5000 
     73 O          -4.2395  -23.9767  -46.6062 O.2       12 UNK        -0.5000 
     74 N          -1.9910  -24.2163  -46.4723 N.am      13 UNK        -0.5000 
     75 CA         -1.9212  -25.6789  -46.4993 C.3       13 UNK         0.1400 
     76 CB         -0.4465  -26.1058  -46.4851 C.3       13 UNK        -0.1800 
     77 C          -2.6511  -26.2967  -47.7105 C.2       13 UNK         0.5000 
     78 O          -2.5321  -25.7854  -48.8271 O.2       13 UNK        -0.5000 
     79 N          -3.4113  -27.3712  -47.4532 N.am      14 UNK        -0.5000 
     80 CA         -4.2632  -28.0928  -48.4082 C.3       14 UNK         0.1400 
     81 CB         -3.3999  -28.8504  -49.4392 C.3       14 UNK        -0.1800 
     82 C          -5.3311  -27.1882  -49.0632 C.2       14 UNK         0.5000 
     83 O          -5.5655  -27.2844  -50.2686 O.2       14 UNK        -0.5000 
     84 N          -5.9320  -26.2992  -48.2557 N.am      15 UNK        -0.5000 
     85 CA         -6.9012  -25.2665  -48.6461 C.3       15 UNK         0.1400 
     86 CB         -8.2296  -25.9042  -49.1052 C.3       15 UNK        -0.1800 
     87 C          -6.3089  -24.2910  -49.6834 C.2       15 UNK         0.5000 
     88 O          -6.9046  -24.0588  -50.7360 O.2       15 UNK        -0.5000 
     89 N          -5.1076  -23.7849  -49.3745 N.am      16 UNK        -0.5000 
     90 CA         -4.2484  -22.9530  -50.2231 C.3       16 UNK         0.1400 
     91 CB         -4.8571  -21.5465  -50.4033 C.3       16 UNK        -0.1800 
     92 C          -3.8945  -23.6475  -51.5534 C.2       16 UNK         0.5000 
     93 O          -4.0082  -23.0400  -52.6193 O.2       16 UNK        -0.5000 
     94 N          -3.5151  -24.9311  -51.4570 N.am      17 UNK        -0.5000 
     95 CA         -3.2687  -25.8675  -52.5588 C.3       17 UNK         0.1400 
     96 CB         -1.9733  -25.4859  -53.3053 C.3       17 UNK        -0.1800 
     97 C          -4.4886  -25.9965  -53.4970 C.2       17 UNK         0.5000 
     98 O          -4.3521  -25.8541  -54.7115 O.2       17 UNK        -0.5000 
     99 N          -5.6739  -26.2069  -52.9057 N.am      18 UNK        -0.5000 
    100 CA        -6.9956  -26.1847  -53.5464 C.3       18 UNK         0.1400 
    101 CB        -7.1812  -27.4191  -54.4525 C.3       18 UNK        -0.1800 
    102 C         -7.2671  -24.8476  -54.2738 C.2       18 UNK         0.5000 
    103 O         -7.6943  -24.8359  -55.4294 O.2       18 UNK        -0.5000 
    104 N         -6.9583  -23.7471  -53.5749 N.am      19 UNK        -0.5000 
    105 CA        -6.9950  -22.3410  -53.9902 C.3       19 UNK         0.1400 
    106 CB        -8.4272  -21.9160  -54.3721 C.3       19 UNK        -0.1800 
    107 C         -5.9682  -21.9376  -55.0726 C.2       19 UNK         0.5000 
    108 O         -5.9423  -20.7653  -55.4528 O.2       19 UNK        -0.5000 
    109 N         -5.1248  -22.8688  -55.5439 N.am      20 UNK        -0.5000 
    110 CA        -4.1404  -22.6261  -56.6004 C.3       20 UNK         0.1400 
    111 CB        -3.6156  -23.9612  -57.1468 C.3       20 UNK        -0.1800 
    112 C         -2.9673  -21.7328  -56.1607 C.2       20 UNK         0.5000 
    113 O         -2.3836  -21.0599  -57.0121 O.2       20 UNK        -0.5000 
    114 N         -2.6514  -21.7026  -54.8561 N.am      21 UNK        -0.5000 
    115 CA        -1.5723  -20.8816  -54.2933 C.3       21 UNK         0.1400 
    116 CB        -1.3201  -21.2835  -52.8335 C.3       21 UNK        -0.1800 
    117 C         -1.8315  -19.3650  -54.4036 C.2       21 UNK         0.5000 
    118 O         -0.8762  -18.5878  -54.3954 O.2       21 UNK        -0.5000 
    119 N         -3.1066  -18.9800  -54.5378 N.am      22 UNK        -0.5000 
    120 CA        -3.5514  -17.6080  -54.8219 C.3       22 UNK         0.1400 
    121 C         -3.7196  -17.3133  -56.3427 C.2       22 UNK         0.5000 
    122 N         -3.3945  -18.2267  -57.2513 N.am      22 UNK        -0.7600 
    123 O         -4.1369  -16.2195  -56.7136 O.2       22 UNK        -0.5000 
    124 C124       -4.8279  -17.2382  -54.0199 C.3       23 UNK        -0.0398 
    125 S125       -4.5824  -17.3721  -52.2162 S.3       23 UNK        -0.2404 
    126 C126       -3.7514  -15.7882  -51.8652 C.3       23 UNK        -0.0205 
    127 H127        0.0293  -13.9406  -51.1953 H         1 UNK         0.0600 
    128 H128        1.4292  -14.8039  -51.8357 H         1 UNK         0.0600 
    129 H129        1.3604  -13.0403  -51.9281 H         1 UNK         0.0600 
    130 H130        0.0413  -13.8113  -48.9764 H         1 UNK         0.3000 
    131 H131        2.3384  -14.3524  -47.3654 H         1 UNK         0.0600 
    132 H132        0.7057  -13.6654  -45.4541 H         1 UNK         0.0800 
    133 H133        0.3976  -15.1032  -46.3404 H         1 UNK         0.0800 
    134 H134       -1.9951  -15.6749  -46.3342 H         1 UNK         0.0800 
    135 H135       -3.2736  -14.7054  -46.9875 H         1 UNK         0.0800 
    136 H136       -3.8252  -14.8173  -49.3074 H         1 UNK         0.1150 
    137 H137       -1.3713  -17.0864  -51.9933 H         1 UNK         0.1150 
    138 H138       -0.0954  -16.4560  -47.9623 H         1 UNK         0.1150 
    139 H139        0.9872  -17.4283  -51.3368 H         1 UNK         0.0800 
    140 H140        1.5189  -17.1796  -49.6948 H         1 UNK         0.0800 
    141 H141       -0.2965  -18.8921  -47.7666 H         1 UNK         0.0800 
    142 H142        1.4475  -18.9009  -47.8480 H         1 UNK         0.0800 
    143 H143        1.2627  -21.4603  -48.3001 H         1 UNK         0.0600 
    144 H144        1.2585  -20.0961  -45.7987 H         1 UNK         0.3000 
    145 H145        2.1507  -23.0043  -43.8733 H         1 UNK         0.0600 
    146 H146        4.2154  -22.0656  -44.9346 H         1 UNK         0.0600 
    147 H147        3.6139  -20.4324  -44.6733 H         1 UNK         0.0600 
    148 H148        3.9947  -21.4658  -43.2981 H         1 UNK         0.0600 
    149 H149        1.7017  -20.2981  -43.1036 H         1 UNK         0.3000 
    150 H150       -1.7969  -20.6223  -42.3863 H         1 UNK         0.0600 
    151 H151       -0.5621  -21.5379  -40.4047 H         1 UNK         0.0600 
    152 H152       -1.0043  -19.8529  -40.1776 H         1 UNK         0.0600 
    153 H153        0.6570  -20.2805  -40.5830 H         1 UNK         0.0600 
    154 H154       -0.1154  -18.4005  -42.0357 H         1 UNK         0.3000 
    155 H155       -0.4886  -17.0129  -45.3428 H         1 UNK         0.0600 
    156 H156       -2.4032  -16.3293  -43.9017 H         1 UNK         0.0600 
    157 H157       -1.1347  -15.1125  -43.8585 H         1 UNK         0.0600 
    158 H158       -1.3441  -16.2197  -42.5052 H         1 UNK         0.0600 
    159 H159        1.0991  -16.1196  -43.1647 H         1 UNK         0.3000 
    160 H160        4.1168  -17.8108  -44.0692 H         1 UNK         0.0600 
    161 H161        3.2290  -14.8718  -44.1454 H         1 UNK         0.0600 
    162 H162        4.0163  -15.7472  -45.4507 H         1 UNK         0.0600 
    163 H163        4.8868  -15.4412  -43.9564 H         1 UNK         0.0600 
    164 H164        3.3586  -16.0421  -41.9290 H         1 UNK         0.3000 
    165 H165        2.4369  -18.5836  -39.5921 H         1 UNK         0.0600 
    166 H166        4.2172  -17.4514  -38.2930 H         1 UNK         0.0600 
    167 H167        4.9339  -18.4632  -39.5366 H         1 UNK         0.0600 
    168 H168        4.8676  -16.7190  -39.7598 H         1 UNK         0.0600 
    169 H169        2.6171  -15.7416  -39.3791 H         1 UNK         0.3000 
    170 H170       -0.6331  -14.9333  -40.5413 H         1 UNK         0.0600 
    171 H171       -1.1023  -15.7868  -38.2407 H         1 UNK         0.0600 
    172 H172        0.3863  -15.0568  -37.6516 H         1 UNK         0.0600 
    173 H173       -0.9261  -14.0397  -38.2481 H         1 UNK         0.0600 
    174 H174        1.3333  -13.3759  -39.2166 H         1 UNK         0.3000 
    175 H175        2.5316  -11.8768  -40.2417 H         1 UNK         0.0600 
    176 H176        4.8164  -12.1343  -41.1635 H         1 UNK         0.0600 
    177 H177        4.3007  -13.6499  -40.4413 H         1 UNK         0.0600 
    178 H178        4.2903  -13.4643  -42.1920 H         1 UNK         0.0600 
    179 H179        3.2230  -11.3250  -42.9015 H         1 UNK         0.3000 
    180 H180        0.3145   -9.7490  -44.0452 H         1 UNK         0.0600 
    181 H181        2.7436   -8.2923  -42.8784 H         1 UNK         0.0600 
    182 H182        1.0601   -7.9796  -42.4869 H         1 UNK         0.0600 
    183 H183        1.6523   -7.6542  -44.1081 H         1 UNK         0.0600 
    184 H184        1.5995  -10.4423  -45.6728 H         1 UNK         0.3000 
    185 H185        3.7545  -10.1477  -47.0712 H         1 UNK         0.0600 
    186 H186        6.0407  -10.2550  -46.1092 H         1 UNK         0.0600 
    187 H187        5.7788  -11.9208  -45.6039 H         1 UNK         0.0600 
    188 H188        5.8200  -11.5084  -47.3180 H         1 UNK         0.0600 
    189 H189        3.7763  -13.0073  -46.4649 H         1 UNK         0.3000 
    190 H190       -1.3019  -20.8482  -45.9139 H         1 UNK         0.3000 
    191 H191       -3.5193  -21.6084  -47.4698 H         1 UNK         0.0600 
    192 H192       -3.7066  -20.2394  -45.4396 H         1 UNK         0.0600 
    193 H193       -4.6825  -21.6815  -45.2433 H         1 UNK         0.0600 
    194 H194       -3.1221  -21.5685  -44.4370 H         1 UNK         0.0600 
    195 H195       -1.1080  -23.7260  -46.4530 H         1 UNK         0.3000 
    196 H196       -2.3940  -26.0391  -45.5838 H         1 UNK         0.0600 
    197 H197       -0.3516  -27.1924  -46.4834 H         1 UNK         0.0600 
    198 H198        0.0643  -25.7327  -45.5969 H         1 UNK         0.0600 
    199 H199        0.0867  -25.7294  -47.3594 H         1 UNK         0.0600 
    200 H200       -3.4478  -27.7127  -46.5025 H         1 UNK         0.3000 
    201 H201       -4.8139  -28.8376  -47.8319 H         1 UNK         0.0600 
    202 H202       -2.6906  -29.5141  -48.9450 H         1 UNK         0.0600 
    203 H203       -2.8326  -28.1698  -50.0738 H         1 UNK         0.0600 
    204 H204       -4.0186  -29.4676  -50.0918 H         1 UNK         0.0600 
    205 H205       -5.6328  -26.2665  -47.2907 H         1 UNK         0.3000 
    206 H206       -7.1078  -24.6774  -47.7514 H         1 UNK         0.0600 
    207 H207       -8.6305  -26.5713  -48.3422 H         1 UNK         0.0600 
    208 H208       -8.9827  -25.1386  -49.2952 H         1 UNK         0.0600 
    209 H209       -8.1116  -26.4788  -50.0243 H         1 UNK         0.0600 
    210 H210       -4.7128  -24.0502  -48.4770 H         1 UNK         0.3000 
    211 H211       -3.3088  -22.8421  -49.6885 H         1 UNK         0.0600 
    212 H212       -5.8076  -21.5801  -50.9341 H         1 UNK         0.0600 
    213 H213       -4.1899  -20.8958  -50.9688 H         1 UNK         0.0600 
    214 H214       -5.0320  -21.0681  -49.4400 H         1 UNK         0.0600 
    215 H215       -3.4026  -25.3174  -50.5235 H         1 UNK         0.3000 
    216 H216       -3.1189  -26.8487  -52.1077 H         1 UNK         0.0600 
    217 H217       -1.7200  -26.2363  -54.0549 H         1 UNK         0.0600 
    218 H218       -1.1299  -25.4142  -52.6186 H         1 UNK         0.0600 
    219 H219       -2.0675  -24.5296  -53.8207 H         1 UNK         0.0600 
    220 H220       -5.6788  -26.3621  -51.8997 H         1 UNK         0.3000 
    221 H221       -7.7279  -26.2510  -52.7404 H         1 UNK         0.0600 
    222 H222       -6.5022  -27.4029  -55.3055 H         1 UNK         0.0600 
    223 H223       -7.0039  -28.3419  -53.9002 H         1 UNK         0.0600 
    224 H224       -8.1978  -27.4655  -54.8444 H         1 UNK         0.0600 
    225 H225       -6.6527  -23.8886  -52.6147 H         1 UNK         0.3000 
    226 H226       -6.7162  -21.7733  -53.1026 H         1 UNK         0.0600 
    227 H227       -9.1370  -22.1705  -53.5850 H         1 UNK         0.0600 
    228 H228       -8.4877  -20.8378  -54.5246 H         1 UNK         0.0600 
    229 H229       -8.7605  -22.3927  -55.2940 H         1 UNK         0.0600 
    230 H230       -5.1569  -23.8042  -55.1568 H         1 UNK         0.3000 
    231 H231       -4.6540  -22.1131  -57.4162 H         1 UNK         0.0600 
    232 H232       -2.9834  -24.4720  -56.4202 H         1 UNK         0.0600 
    233 H233       -3.0139  -23.8028  -58.0425 H         1 UNK         0.0600 
    234 H234       -4.4323  -24.6313  -57.4164 H         1 UNK         0.0600 
    235 H235       -3.1956  -22.2562  -54.1979 H         1 UNK         0.3000 
    236 H236       -0.6650  -21.0982  -54.8609 H         1 UNK         0.0600 
    237 H237       -1.1422  -22.3546  -52.7378 H         1 UNK         0.0600 
    238 H238       -0.4405  -20.7735  -52.4414 H         1 UNK         0.0600 
    239 H239       -2.1611  -21.0207  -52.1924 H         1 UNK         0.0600 
    240 H240       -3.8258  -19.6899  -54.5556 H         1 UNK         0.3000 
    241 H241       -2.7669  -16.9215  -54.5007 H         1 UNK         0.0600 
    242 H242       -3.5062  -18.0060  -58.2282 H         1 UNK         0.3800 
    243 H243       -3.0238  -19.1319  -56.9866 H         1 UNK         0.3800 
    244 H244       -5.1560  -16.2223  -54.2466 H         1 UNK         0.0800 
    245 H245       -5.6526  -17.8945  -54.3033 H         1 UNK         0.0800 
    246 H246       -4.5021  -15.0441  -51.5949 H         1 UNK         0.0800 
    247 H247       -3.2523  -15.4088  -52.7574 H         1 UNK         0.0800 
@<TRIPOS>BOND
     1    1    2 1    
     2    1  127 1    
     3    1  128 1    
     4    1  129 1    
     5    2    3 2    
     6    2    4 am   BACKBONE|DICT|INTERRES
     7    4    5 1    
     8    4  130 1    
     9    5    6 1    
    10    5   65 1    
    11    5  131 1    
    12    6    7 1    
    13    6  132 1    
    14    6  133 1    
    15    7    8 1    
    16    8    9 1    
    17    8  134 1    
    18    8  135 1    
    19    9   10 ar   
    20    9   14 ar   
    21   10   11 ar   
    22   10  136 1    
    23   11   12 ar   
    24   11  126 1    
    25   12   13 ar   
    26   12  137 1    
    27   13   14 ar   
    28   13   15 1    
    29   14  138 1    
    30   15   16 1    
    31   15  139 1    
    32   15  140 1    
    33   16   17 1    
    34   17   18 1    
    35   17  141 1    
    36   17  142 1    
    37   18   19 1    
    38   18   67 1    
    39   18  143 1    
    40   19   20 am   BACKBONE|DICT|INTERRES
    41   19  144 1    
    42   20   21 2    
    43   20   22 1    
    44   22   23 1    
    45   22   24 1    
    46   22  145 1    
    47   23  146 1    
    48   23  147 1    
    49   23  148 1    
    50   24   25 am   BACKBONE|DICT|INTERRES
    51   24  149 1    
    52   25   26 2    
    53   25   27 1    
    54   27   28 1    
    55   27   29 1    
    56   27  150 1    
    57   28  151 1    
    58   28  152 1    
    59   28  153 1    
    60   29   30 am   BACKBONE|DICT|INTERRES
    61   29  154 1    
    62   30   31 2    
    63   30   32 1    
    64   32   33 1    
    65   32   34 1    
    66   32  155 1    
    67   33  156 1    
    68   33  157 1    
    69   33  158 1    
    70   34   35 am   BACKBONE|DICT|INTERRES
    71   34  159 1    
    72   35   36 2    
    73   35   37 1    
    74   37   38 1    
    75   37   39 1    
    76   37  160 1    
    77   38  161 1    
    78   38  162 1    
    79   38  163 1    
    80   39   40 am   BACKBONE|DICT|INTERRES
    81   39  164 1    
    82   40   41 2    
    83   40   42 1    
    84   42   43 1    
    85   42   44 1    
    86   42  165 1    
    87   43  166 1    
    88   43  167 1    
    89   43  168 1    
    90   44   45 am   BACKBONE|DICT|INTERRES
    91   44  169 1    
    92   45   46 2    
    93   45   47 1    
    94   47   48 1    
    95   47   49 1    
    96   47  170 1    
    97   48  171 1    
    98   48  172 1    
    99   48  173 1    
   100   49   50 am   BACKBONE|DICT|INTERRES
   101   49  174 1    
   102   50   51 2    
   103   50   52 1    
   104   52   53 1    
   105   52   54 1    
   106   52  175 1    
   107   53  176 1    
   108   53  177 1    
   109   53  178 1    
   110   54   55 am   BACKBONE|DICT|INTERRES
   111   54  179 1    
   112   55   56 2    
   113   55   57 1    
   114   57   58 1    
   115   57   59 1    
   116   57  180 1    
   117   58  181 1    
   118   58  182 1    
   119   58  183 1    
   120   59   60 am   BACKBONE|DICT|INTERRES
   121   59  184 1    
   122   60   61 2    
   123   60   62 1    
   124   62   63 1    
   125   62   64 1    
   126   62  185 1    
   127   63  186 1    
   128   63  187 1    
   129   63  188 1    
   130   64   65 am   BACKBONE|DICT|INTERRES
   131   64  189 1    
   132   65   66 2    
   133   67   68 2    
   134   67   69 am   BACKBONE|DICT|INTERRES
   135   69   70 1    
   136   69  190 1    
   137   70   71 1    
   138   70   72 1    
   139   70  191 1    
   140   71  192 1    
   141   71  193 1    
   142   71  194 1    
   143   72   73 2    
   144   72   74 am   BACKBONE|DICT|INTERRES
   145   74   75 1    
   146   74  195 1    
   147   75   76 1    
   148   75   77 1    
   149   75  196 1    
   150   76  197 1    
   151   76  198 1    
   152   76  199 1    
   153   77   78 2    
   154   77   79 am   BACKBONE|DICT|INTERRES
   155   79   80 1    
   156   79  200 1    
   157   80   81 1    
   158   80   82 1    
   159   80  201 1    
   160   81  202 1    
   161   81  203 1    
   162   81  204 1    
   163   82   83 2    
   164   82   84 am   BACKBONE|DICT|INTERRES
   165   84   85 1    
   166   84  205 1    
   167   85   86 1    
   168   85   87 1    
   169   85  206 1    
   170   86  207 1    
   171   86  208 1    
   172   86  209 1    
   173   87   88 2    
   174   87   89 am   BACKBONE|DICT|INTERRES
   175   89   90 1    
   176   89  210 1    
   177   90   91 1    
   178   90   92 1    
   179   90  211 1    
   180   91  212 1    
   181   91  213 1    
   182   91  214 1    
   183   92   93 2    
   184   92   94 am   BACKBONE|DICT|INTERRES
   185   94   95 1    
   186   94  215 1    
   187   95   96 1    
   188   95   97 1    
   189   95  216 1    
   190   96  217 1    
   191   96  218 1    
   192   96  219 1    
   193   97   98 2    
   194   97   99 am   BACKBONE|DICT|INTERRES
   195   99  100 1    
   196   99  220 1    
   197  100  101 1    
   198  100  102 1    
   199  100  221 1    
   200  101  222 1    
   201  101  223 1    
   202  101  224 1    
   203  102  103 2    
   204  102  104 am   BACKBONE|DICT|INTERRES
   205  104  105 1    
   206  104  225 1    
   207  105  106 1    
   208  105  107 1    
   209  105  226 1    
   210  106  227 1    
   211  106  228 1    
   212  106  229 1    
   213  107  108 2    
   214  107  109 am   BACKBONE|DICT|INTERRES
   215  109  110 1    
   216  109  230 1    
   217  110  111 1    
   218  110  112 1    
   219  110  231 1    
   220  111  232 1    
   221  111  233 1    
   222  111  234 1    
   223  112  113 2    
   224  112  114 am   BACKBONE|DICT|INTERRES
   225  114  115 1    
   226  114  235 1    
   227  115  116 1    
   228  115  117 1    
   229  115  236 1    
   230  116  237 1    
   231  116  238 1    
   232  116  239 1    
   233  117  118 2    
   234  117  119 am   BACKBONE|DICT|INTERRES
   235  119  120 1    
   236  119  240 1    
   237  120  121 1    
   238  120  124 1    
   239  120  241 1    
   240  121  122 am   BACKBONE|DICT|INTERRES
   241  121  123 2    
   242  122  242 1    
   243  122  243 1    
   244  124  125 1    
   245  124  244 1    
   246  124  245 1    
   247  125  126 1    
   248  126  246 1    
   249  126  247 1    
@<TRIPOS>SUBSTRUCTURE
     1 UNK         1 GROUP             0       ****    0 ROOT    
