@<TRIPOS>MOLECULE
3R540
247   249    1
SMALL
USER_CHARGES


@<TRIPOS>ATOM
      1 CA         -3.8021  -16.1863  -42.4873 C.3       0 UNK        -0.1800 
      2 C          -4.0472  -15.2561  -43.6646 C.2       0 UNK         0.5000 
      3 O          -4.8777  -14.3522  -43.5690 O.2       0 UNK        -0.5000 
      4 N          -3.3155  -15.4565  -44.7695 N.am      1 UNK        -0.5000 
      5 CA         -3.3565  -14.6362  -45.9860 C.3       1 UNK         0.1400 
      6 C6         -2.8469  -15.4456  -47.2060 C.3       23 UNK        -0.0398 
      7 S7         -3.3429  -14.7043  -48.7993 S.3       23 UNK        -0.2404 
      8 C8         -1.7348  -14.2276  -49.5094 C.3       23 UNK        -0.0205 
      9 C9         -1.1191  -15.3526  -50.3289 C.ar      23 UNK        -0.0193 
     10 C10        -1.2613  -15.3641  -51.7191 C.ar      23 UNK        -0.1150 
     11 C11        -0.6801  -16.3774  -52.4910 C.ar      23 UNK        -0.0193 
     12 C12         0.0495  -17.3857  -51.8513 C.ar      23 UNK        -0.1150 
     13 C13         0.2091  -17.3807  -50.4620 C.ar      23 UNK        -0.0193 
     14 C14        -0.3778  -16.3609  -49.7083 C.ar      23 UNK        -0.1150 
     15 C15         1.0586  -18.4439  -49.7783 C.3       23 UNK        -0.0205 
     16 S16         0.2290  -20.0617  -49.6857 S.3       23 UNK        -0.2404 
     17 C17        -1.2125  -19.6969  -48.6317 C.3       23 UNK        -0.0398 
     18 CA         -1.6557  -20.9336  -47.8109 C.3       11 UNK         0.1400 
     19 N          -0.7742  -21.2183  -46.6728 N.am      11 UNK        -0.5000 
     20 C          -0.8801  -22.2941  -45.8775 C.2       10 UNK         0.5000 
     21 O          -1.7088  -23.1886  -46.0448 O.2       10 UNK        -0.5000 
     22 CA          0.0535  -22.3600  -44.6556 C.3       10 UNK         0.1400 
     23 CB          1.4641  -22.8092  -45.0638 C.3       10 UNK        -0.1800 
     24 N           0.1232  -21.0950  -43.9220 N.am      10 UNK        -0.5000 
     25 C          -0.9191  -20.5038  -43.3195 C.2       9 UNK         0.5000 
     26 O          -2.0574  -20.9702  -43.3076 O.2       9 UNK        -0.5000 
     27 CA         -0.6612  -19.1365  -42.6643 C.3       9 UNK         0.1400 
     28 CB          0.0152  -19.2846  -41.2936 C.3       9 UNK        -0.1800 
     29 N           0.1419  -18.2727  -43.5266 N.am      9 UNK        -0.5000 
     30 C          -0.3026  -17.7220  -44.6641 C.2       8 UNK         0.5000 
     31 O          -1.4762  -17.7638  -45.0392 O.2       8 UNK        -0.5000 
     32 CA          0.7462  -17.0242  -45.5453 C.3       8 UNK         0.1400 
     33 CB          0.8535  -15.5377  -45.1825 C.3       8 UNK        -0.1800 
     34 N           2.0651  -17.6536  -45.4610 N.am      8 UNK        -0.5000 
     35 C           2.3503  -18.8643  -45.9623 C.2       7 UNK         0.5000 
     36 O           1.5276  -19.5629  -46.5492 O.2       7 UNK        -0.5000 
     37 CA          3.7734  -19.4051  -45.7321 C.3       7 UNK         0.1400 
     38 CB          4.7293  -18.8735  -46.8100 C.3       7 UNK        -0.1800 
     39 N           4.2987  -19.0710  -44.4085 N.am      7 UNK        -0.5000 
     40 C           3.7720  -19.4900  -43.2484 C.2       6 UNK         0.5000 
     41 O           2.8230  -20.2697  -43.1751 O.2       6 UNK        -0.5000 
     42 CA          4.3621  -18.8832  -41.9586 C.3       6 UNK         0.1400 
     43 CB          5.4838  -19.7754  -41.4076 C.3       6 UNK        -0.1800 
     44 N           4.8714  -17.5188  -42.1439 N.am      6 UNK        -0.5000 
     45 C           4.1205  -16.4776  -42.5267 C.2       5 UNK         0.5000 
     46 O           2.9006  -16.5495  -42.7039 O.2       5 UNK        -0.5000 
     47 CA          4.8614  -15.1676  -42.8329 C.3       5 UNK         0.1400 
     48 CB          5.8066  -15.3429  -44.0399 C.3       5 UNK        -0.1800 
     49 N           3.8698  -14.1389  -43.1246 N.am      5 UNK        -0.5000 
     50 C           4.0778  -12.8192  -43.1707 C.2       4 UNK         0.5000 
     51 O           5.1700  -12.2915  -42.9563 O.2       4 UNK        -0.5000 
     52 CA          2.8655  -11.9328  -43.5220 C.3       4 UNK         0.1400 
     53 CB          2.8966  -11.5501  -45.0099 C.3       4 UNK        -0.1800 
     54 N           1.5667  -12.5432  -43.2266 N.am      4 UNK        -0.5000 
     55 C           1.0896  -12.7815  -41.9969 C.2       3 UNK         0.5000 
     56 O           1.7273  -12.5632  -40.9654 O.2       3 UNK        -0.5000 
     57 CA         -0.3444  -13.3513  -41.9225 C.3       3 UNK         0.1400 
     58 CB         -0.9797  -13.2054  -40.5250 C.3       3 UNK        -0.1800 
     59 N          -1.2452  -12.8115  -42.9496 N.am      3 UNK        -0.5000 
     60 C          -1.5681  -11.5269  -43.1776 C.2       2 UNK         0.5000 
     61 O          -1.1070  -10.5824  -42.5361 O.2       2 UNK        -0.5000 
     62 CA         -2.6079  -11.2416  -44.2857 C.3       2 UNK         0.1400 
     63 CB         -2.0705  -10.2546  -45.3425 C.3       2 UNK        -0.1800 
     64 N          -3.1713  -12.4536  -44.8993 N.am      2 UNK        -0.5000 
     65 C          -2.5873  -13.3160  -45.7431 C.2       1 UNK         0.5000 
     66 O          -1.4649  -13.1496  -46.2183 O.2       1 UNK        -0.5000 
     67 C          -3.1266  -20.7952  -47.3760 C.2       11 UNK         0.5000 
     68 O          -3.9961  -21.3650  -48.0340 O.2       11 UNK        -0.5000 
     69 N          -3.3814  -20.0861  -46.2669 N.am      12 UNK        -0.5000 
     70 CA         -4.7194  -19.9333  -45.6948 C.3       12 UNK         0.1400 
     71 CB         -4.6971  -18.8602  -44.6013 C.3       12 UNK        -0.1800 
     72 C          -5.2973  -21.2559  -45.1621 C.2       12 UNK         0.5000 
     73 O          -6.4508  -21.5698  -45.4560 O.2       12 UNK        -0.5000 
     74 N          -4.4795  -22.0250  -44.4296 N.am      13 UNK        -0.5000 
     75 CA         -4.8332  -23.3368  -43.8804 C.3       13 UNK         0.1400 
     76 CB         -3.7025  -23.8302  -42.9652 C.3       13 UNK        -0.1800 
     77 C          -5.1489  -24.3830  -44.9658 C.2       13 UNK         0.5000 
     78 O          -6.0802  -25.1714  -44.7996 O.2       13 UNK        -0.5000 
     79 N          -4.3909  -24.3476  -46.0690 N.am      14 UNK        -0.5000 
     80 CA         -4.5882  -25.1930  -47.2462 C.3       14 UNK         0.1400 
     81 CB         -3.2550  -25.2975  -48.0042 C.3       14 UNK        -0.1800 
     82 C          -5.6933  -24.6848  -48.1937 C.2       14 UNK         0.5000 
     83 O          -5.9676  -25.3535  -49.1900 O.2       14 UNK        -0.5000 
     84 N          -6.2623  -23.4986  -47.9230 N.am      15 UNK        -0.5000 
     85 CA         -7.2275  -22.7670  -48.7576 C.3       15 UNK         0.1400 
     86 CB         -8.5951  -23.4797  -48.7479 C.3       15 UNK        -0.1800 
     87 C          -6.7003  -22.4967  -50.1867 C.2       15 UNK         0.5000 
     88 O          -7.4654  -22.5244  -51.1518 O.2       15 UNK        -0.5000 
     89 N          -5.3794  -22.2879  -50.2815 N.am      16 UNK        -0.5000 
     90 CA         -4.5529  -22.1368  -51.4801 C.3       16 UNK         0.1400 
     91 CB         -4.8742  -20.8138  -52.1987 C.3       16 UNK        -0.1800 
     92 C          -4.5600  -23.3511  -52.4381 C.2       16 UNK         0.5000 
     93 O          -4.0892  -23.2225  -53.5676 O.2       16 UNK        -0.5000 
     94 N          -5.0448  -24.5200  -51.9890 N.am      17 UNK        -0.5000 
     95 CA         -5.0948  -25.7437  -52.7965 C.3       17 UNK         0.1400 
     96 CB         -6.0744  -26.7413  -52.1609 C.3       17 UNK        -0.1800 
     97 C          -3.7089  -26.3899  -52.9788 C.2       17 UNK         0.5000 
     98 O          -3.4452  -26.9810  -54.0262 O.2       17 UNK        -0.5000 
     99 N          -2.8496  -26.2535  -51.9601 N.am      18 UNK        -0.5000 
    100 CA        -1.4676  -26.7400  -51.9593 C.3       18 UNK         0.1400 
    101 CB        -1.1017  -27.1700  -50.5292 C.3       18 UNK        -0.1800 
    102 C         -0.4662  -25.6854  -52.4725 C.2       18 UNK         0.5000 
    103 O          0.7063  -26.0116  -52.6636 O.2       18 UNK        -0.5000 
    104 N         -0.9250  -24.4407  -52.6569 N.am      19 UNK        -0.5000 
    105 CA        -0.1194  -23.3140  -53.1198 C.3       19 UNK         0.1400 
    106 CB        -0.8212  -22.0106  -52.7113 C.3       19 UNK        -0.1800 
    107 C          0.1057  -23.3632  -54.6422 C.2       19 UNK         0.5000 
    108 O         -0.6947  -23.9512  -55.3736 O.2       19 UNK        -0.5000 
    109 N          1.1880  -22.7183  -55.0940 N.am      20 UNK        -0.5000 
    110 CA         1.5681  -22.6179  -56.5069 C.3       20 UNK         0.1400 
    111 CB         3.0669  -22.2865  -56.5884 C.3       20 UNK        -0.1800 
    112 C          0.7444  -21.5784  -57.2962 C.2       20 UNK         0.5000 
    113 O          0.7850  -21.5844  -58.5274 O.2       20 UNK        -0.5000 
    114 N          0.0277  -20.7019  -56.5860 N.am      21 UNK        -0.5000 
    115 CA        -0.8150  -19.6379  -57.1168 C.3       21 UNK         0.1400 
    116 CB         0.0550  -18.4115  -57.4539 C.3       21 UNK        -0.1800 
    117 C         -1.8893  -19.2981  -56.0724 C.2       21 UNK         0.5000 
    118 O         -1.8286  -19.8008  -54.9484 O.2       21 UNK        -0.5000 
    119 N         -2.8362  -18.4348  -56.4574 N.am      22 UNK        -0.5000 
    120 CA        -3.9397  -17.9153  -55.6236 C.3       22 UNK         0.1400 
    121 C         -5.0879  -18.9300  -55.3363 C.2       22 UNK         0.5000 
    122 N         -5.0903  -20.1206  -55.9224 N.am      22 UNK        -0.7600 
    123 O         -6.0217  -18.6159  -54.6037 O.2       22 UNK        -0.5000 
    124 C124       -3.4628  -17.1852  -54.3322 C.3       23 UNK        -0.0398 
    125 S125       -2.3553  -15.7791  -54.6919 S.3       23 UNK        -0.2404 
    126 C126       -0.7615  -16.3617  -54.0162 C.3       23 UNK        -0.0205 
    127 H127       -2.9688  -16.8590  -42.6796 H         1 UNK         0.0600 
    128 H128       -4.6902  -16.7861  -42.2891 H         1 UNK         0.0600 
    129 H129       -3.5707  -15.6080  -41.5927 H         1 UNK         0.0600 
    130 H130       -2.6679  -16.2395  -44.7968 H         1 UNK         0.3000 
    131 H131       -4.4003  -14.3766  -46.1776 H         1 UNK         0.0600 
    132 H132       -3.2749  -16.4492  -47.1849 H         1 UNK         0.0800 
    133 H133       -1.7682  -15.5894  -47.1570 H         1 UNK         0.0800 
    134 H134       -1.0460  -13.9135  -48.7243 H         1 UNK         0.0800 
    135 H135       -1.8846  -13.3498  -50.1397 H         1 UNK         0.0800 
    136 H136       -1.8129  -14.5695  -52.2009 H         1 UNK         0.1150 
    137 H137        0.5159  -18.1668  -52.4356 H         1 UNK         0.1150 
    138 H138       -0.2416  -16.3419  -48.6389 H         1 UNK         0.1150 
    139 H139        1.9926  -18.5632  -50.3288 H         1 UNK         0.0800 
    140 H140        1.3412  -18.1231  -48.7758 H         1 UNK         0.0800 
    141 H141       -2.0072  -19.3569  -49.2993 H         1 UNK         0.0800 
    142 H142       -0.9895  -18.8593  -47.9687 H         1 UNK         0.0800 
    143 H143       -1.6162  -21.8059  -48.4675 H         1 UNK         0.0600 
    144 H144       -0.0140  -20.5603  -46.5122 H         1 UNK         0.3000 
    145 H145       -0.3511  -23.1095  -43.9725 H         1 UNK         0.0600 
    146 H146        2.1176  -22.8972  -44.1956 H         1 UNK         0.0600 
    147 H147        1.4352  -23.7847  -45.5505 H         1 UNK         0.0600 
    148 H148        1.9252  -22.1107  -45.7610 H         1 UNK         0.0600 
    149 H149        1.0409  -20.6678  -43.8407 H         1 UNK         0.3000 
    150 H150       -1.6302  -18.6631  -42.5052 H         1 UNK         0.0600 
    151 H151       -0.5998  -19.8841  -40.6214 H         1 UNK         0.0600 
    152 H152        0.1624  -18.3134  -40.8209 H         1 UNK         0.0600 
    153 H153        0.9871  -19.7714  -41.3667 H         1 UNK         0.0600 
    154 H154        1.1186  -18.1648  -43.2887 H         1 UNK         0.3000 
    155 H155        0.4025  -17.0980  -46.5775 H         1 UNK         0.0600 
    156 H156        1.1867  -15.3902  -44.1575 H         1 UNK         0.0600 
    157 H157       -0.1169  -15.0557  -45.2698 H         1 UNK         0.0600 
    158 H158        1.5417  -15.0127  -45.8452 H         1 UNK         0.0600 
    159 H159        2.7677  -17.1662  -44.9238 H         1 UNK         0.3000 
    160 H160        3.7358  -20.4929  -45.8148 H         1 UNK         0.0600 
    161 H161        4.8331  -17.7888  -46.7594 H         1 UNK         0.0600 
    162 H162        4.3673  -19.1225  -47.8086 H         1 UNK         0.0600 
    163 H163        5.7223  -19.3113  -46.7071 H         1 UNK         0.0600 
    164 H164        5.0856  -18.4405  -44.3767 H         1 UNK         0.3000 
    165 H165        3.5598  -18.8437  -41.2188 H         1 UNK         0.0600 
    166 H166        5.8529  -19.4008  -40.4527 H         1 UNK         0.0600 
    167 H167        5.1263  -20.7924  -41.2397 H         1 UNK         0.0600 
    168 H168        6.3280  -19.8334  -42.0957 H         1 UNK         0.0600 
    169 H169        5.8646  -17.3880  -42.0145 H         1 UNK         0.3000 
    170 H170        5.4311  -14.8785  -41.9477 H         1 UNK         0.0600 
    171 H171        6.5631  -16.1044  -43.8485 H         1 UNK         0.0600 
    172 H172        5.2606  -15.6377  -44.9369 H         1 UNK         0.0600 
    173 H173        6.3406  -14.4201  -44.2663 H         1 UNK         0.0600 
    174 H174        2.9324  -14.4987  -43.2472 H         1 UNK         0.3000 
    175 H175        2.9489  -11.0175  -42.9321 H         1 UNK         0.0600 
    176 H176        2.7936  -12.4258  -45.6522 H         1 UNK         0.0600 
    177 H177        2.0924  -10.8562  -45.2561 H         1 UNK         0.0600 
    178 H178        3.8367  -11.0613  -45.2691 H         1 UNK         0.0600 
    179 H179        0.9658  -12.7271  -44.0169 H         1 UNK         0.3000 
    180 H180       -0.2520  -14.4188  -42.1281 H         1 UNK         0.0600 
    181 H181       -1.9781  -13.6422  -40.4987 H         1 UNK         0.0600 
    182 H182       -1.0633  -12.1598  -40.2270 H         1 UNK         0.0600 
    183 H183       -0.3842  -13.7160  -39.7673 H         1 UNK         0.0600 
    184 H184       -1.6785  -13.4943  -43.5524 H         1 UNK         0.3000 
    185 H185       -3.4466  -10.7550  -43.7860 H         1 UNK         0.0600 
    186 H186       -2.8040  -10.0784  -46.1293 H         1 UNK         0.0600 
    187 H187       -1.8429   -9.2890  -44.8896 H         1 UNK         0.0600 
    188 H188       -1.1530  -10.6127  -45.8097 H         1 UNK         0.0600 
    189 H189       -4.0555  -12.7554  -44.4998 H         1 UNK         0.3000 
    190 H190       -2.6178  -19.6476  -45.7682 H         1 UNK         0.3000 
    191 H191       -5.3835  -19.5838  -46.4885 H         1 UNK         0.0600 
    192 H192       -5.6777  -18.7481  -44.1372 H         1 UNK         0.0600 
    193 H193       -4.4283  -17.8964  -45.0273 H         1 UNK         0.0600 
    194 H194       -3.9815  -19.0948  -43.8131 H         1 UNK         0.0600 
    195 H195       -3.5518  -21.6750  -44.2006 H         1 UNK         0.3000 
    196 H196       -5.7315  -23.2098  -43.2728 H         1 UNK         0.0600 
    197 H197       -2.7647  -23.9418  -43.5102 H         1 UNK         0.0600 
    198 H198       -3.5300  -23.1356  -42.1428 H         1 UNK         0.0600 
    199 H199       -3.9469  -24.7988  -42.5275 H         1 UNK         0.0600 
    200 H200       -3.5997  -23.7099  -46.0983 H         1 UNK         0.3000 
    201 H201       -4.8733  -26.1952  -46.9199 H         1 UNK         0.0600 
    202 H202       -2.9343  -24.3286  -48.3896 H         1 UNK         0.0600 
    203 H203       -3.3407  -25.9803  -48.8496 H         1 UNK         0.0600 
    204 H204       -2.4630  -25.6798  -47.3598 H         1 UNK         0.0600 
    205 H205       -5.9591  -23.0099  -47.0899 H         1 UNK         0.3000 
    206 H206       -7.3567  -21.7898  -48.2902 H         1 UNK         0.0600 
    207 H207       -8.9436  -23.6472  -47.7288 H         1 UNK         0.0600 
    208 H208       -9.3527  -22.8808  -49.2546 H         1 UNK         0.0600 
    209 H209       -8.5513  -24.4463  -49.2508 H         1 UNK         0.0600 
    210 H210       -4.8708  -22.2023  -49.4029 H         1 UNK         0.3000 
    211 H211       -3.5286  -22.0615  -51.1133 H         1 UNK         0.0600 
    212 H212       -4.1520  -20.6156  -52.9918 H         1 UNK         0.0600 
    213 H213       -4.8339  -19.9693  -51.5108 H         1 UNK         0.0600 
    214 H214       -5.8650  -20.8312  -52.6533 H         1 UNK         0.0600 
    215 H215       -5.4276  -24.5783  -51.0512 H         1 UNK         0.3000 
    216 H216       -5.4758  -25.4852  -53.7869 H         1 UNK         0.0600 
    217 H217       -5.7196  -27.0948  -51.1922 H         1 UNK         0.0600 
    218 H218       -6.2058  -27.6163  -52.7985 H         1 UNK         0.0600 
    219 H219       -7.0575  -26.2929  -52.0152 H         1 UNK         0.0600 
    220 H220       -3.1604  -25.7615  -51.1360 H         1 UNK         0.3000 
    221 H221       -1.3856  -27.6152  -52.6073 H         1 UNK         0.0600 
    222 H222       -1.8056  -27.9082  -50.1444 H         1 UNK         0.0600 
    223 H223       -1.0916  -26.3222  -49.8433 H         1 UNK         0.0600 
    224 H224       -0.1101  -27.6234  -50.5002 H         1 UNK         0.0600 
    225 H225       -1.9181  -24.2819  -52.5829 H         1 UNK         0.3000 
    226 H226        0.8514  -23.3527  -52.6206 H         1 UNK         0.0600 
    227 H227       -1.7713  -21.8856  -53.2306 H         1 UNK         0.0600 
    228 H228       -1.0201  -21.9878  -51.6403 H         1 UNK         0.0600 
    229 H229       -0.2060  -21.1407  -52.9445 H         1 UNK         0.0600 
    230 H230        1.7958  -22.2542  -54.4341 H         1 UNK         0.3000 
    231 H231        1.4091  -23.5883  -56.9820 H         1 UNK         0.0600 
    232 H232        3.2919  -21.3239  -56.1274 H         1 UNK         0.0600 
    233 H233        3.4020  -22.2395  -57.6255 H         1 UNK         0.0600 
    234 H234        3.6674  -23.0476  -56.0898 H         1 UNK         0.0600 
    235 H235       -0.0253  -20.8024  -55.5803 H         1 UNK         0.3000 
    236 H236       -1.3213  -19.9907  -58.0177 H         1 UNK         0.0600 
    237 H237        0.8027  -18.6531  -58.2094 H         1 UNK         0.0600 
    238 H238       -0.5461  -17.5920  -57.8489 H         1 UNK         0.0600 
    239 H239        0.5803  -18.0392  -56.5737 H         1 UNK         0.0600 
    240 H240       -2.8106  -18.0781  -57.4018 H         1 UNK         0.3000 
    241 H241       -4.4181  -17.1593  -56.2473 H         1 UNK         0.0600 
    242 H242       -5.8435  -20.7629  -55.7360 H         1 UNK         0.3800 
    243 H243       -4.3340  -20.3963  -56.5266 H         1 UNK         0.3800 
    244 H244       -2.9804  -17.8790  -53.6426 H         1 UNK         0.0800 
    245 H245       -4.3166  -16.7782  -53.7883 H         1 UNK         0.0800 
    246 H246        0.0269  -15.7070  -54.3889 H         1 UNK         0.0800 
    247 H247       -0.5477  -17.3525  -54.4157 H         1 UNK         0.0800 
@<TRIPOS>BOND
     1    1    2 1    
     2    1  127 1    
     3    1  128 1    
     4    1  129 1    
     5    2    3 2    
     6    2    4 am   BACKBONE|DICT|INTERRES
     7    4    5 1    
     8    4  130 1    
     9    5    6 1    
    10    5   65 1    
    11    5  131 1    
    12    6    7 1    
    13    6  132 1    
    14    6  133 1    
    15    7    8 1    
    16    8    9 1    
    17    8  134 1    
    18    8  135 1    
    19    9   10 ar   
    20    9   14 ar   
    21   10   11 ar   
    22   10  136 1    
    23   11   12 ar   
    24   11  126 1    
    25   12   13 ar   
    26   12  137 1    
    27   13   14 ar   
    28   13   15 1    
    29   14  138 1    
    30   15   16 1    
    31   15  139 1    
    32   15  140 1    
    33   16   17 1    
    34   17   18 1    
    35   17  141 1    
    36   17  142 1    
    37   18   19 1    
    38   18   67 1    
    39   18  143 1    
    40   19   20 am   BACKBONE|DICT|INTERRES
    41   19  144 1    
    42   20   21 2    
    43   20   22 1    
    44   22   23 1    
    45   22   24 1    
    46   22  145 1    
    47   23  146 1    
    48   23  147 1    
    49   23  148 1    
    50   24   25 am   BACKBONE|DICT|INTERRES
    51   24  149 1    
    52   25   26 2    
    53   25   27 1    
    54   27   28 1    
    55   27   29 1    
    56   27  150 1    
    57   28  151 1    
    58   28  152 1    
    59   28  153 1    
    60   29   30 am   BACKBONE|DICT|INTERRES
    61   29  154 1    
    62   30   31 2    
    63   30   32 1    
    64   32   33 1    
    65   32   34 1    
    66   32  155 1    
    67   33  156 1    
    68   33  157 1    
    69   33  158 1    
    70   34   35 am   BACKBONE|DICT|INTERRES
    71   34  159 1    
    72   35   36 2    
    73   35   37 1    
    74   37   38 1    
    75   37   39 1    
    76   37  160 1    
    77   38  161 1    
    78   38  162 1    
    79   38  163 1    
    80   39   40 am   BACKBONE|DICT|INTERRES
    81   39  164 1    
    82   40   41 2    
    83   40   42 1    
    84   42   43 1    
    85   42   44 1    
    86   42  165 1    
    87   43  166 1    
    88   43  167 1    
    89   43  168 1    
    90   44   45 am   BACKBONE|DICT|INTERRES
    91   44  169 1    
    92   45   46 2    
    93   45   47 1    
    94   47   48 1    
    95   47   49 1    
    96   47  170 1    
    97   48  171 1    
    98   48  172 1    
    99   48  173 1    
   100   49   50 am   BACKBONE|DICT|INTERRES
   101   49  174 1    
   102   50   51 2    
   103   50   52 1    
   104   52   53 1    
   105   52   54 1    
   106   52  175 1    
   107   53  176 1    
   108   53  177 1    
   109   53  178 1    
   110   54   55 am   BACKBONE|DICT|INTERRES
   111   54  179 1    
   112   55   56 2    
   113   55   57 1    
   114   57   58 1    
   115   57   59 1    
   116   57  180 1    
   117   58  181 1    
   118   58  182 1    
   119   58  183 1    
   120   59   60 am   BACKBONE|DICT|INTERRES
   121   59  184 1    
   122   60   61 2    
   123   60   62 1    
   124   62   63 1    
   125   62   64 1    
   126   62  185 1    
   127   63  186 1    
   128   63  187 1    
   129   63  188 1    
   130   64   65 am   BACKBONE|DICT|INTERRES
   131   64  189 1    
   132   65   66 2    
   133   67   68 2    
   134   67   69 am   BACKBONE|DICT|INTERRES
   135   69   70 1    
   136   69  190 1    
   137   70   71 1    
   138   70   72 1    
   139   70  191 1    
   140   71  192 1    
   141   71  193 1    
   142   71  194 1    
   143   72   73 2    
   144   72   74 am   BACKBONE|DICT|INTERRES
   145   74   75 1    
   146   74  195 1    
   147   75   76 1    
   148   75   77 1    
   149   75  196 1    
   150   76  197 1    
   151   76  198 1    
   152   76  199 1    
   153   77   78 2    
   154   77   79 am   BACKBONE|DICT|INTERRES
   155   79   80 1    
   156   79  200 1    
   157   80   81 1    
   158   80   82 1    
   159   80  201 1    
   160   81  202 1    
   161   81  203 1    
   162   81  204 1    
   163   82   83 2    
   164   82   84 am   BACKBONE|DICT|INTERRES
   165   84   85 1    
   166   84  205 1    
   167   85   86 1    
   168   85   87 1    
   169   85  206 1    
   170   86  207 1    
   171   86  208 1    
   172   86  209 1    
   173   87   88 2    
   174   87   89 am   BACKBONE|DICT|INTERRES
   175   89   90 1    
   176   89  210 1    
   177   90   91 1    
   178   90   92 1    
   179   90  211 1    
   180   91  212 1    
   181   91  213 1    
   182   91  214 1    
   183   92   93 2    
   184   92   94 am   BACKBONE|DICT|INTERRES
   185   94   95 1    
   186   94  215 1    
   187   95   96 1    
   188   95   97 1    
   189   95  216 1    
   190   96  217 1    
   191   96  218 1    
   192   96  219 1    
   193   97   98 2    
   194   97   99 am   BACKBONE|DICT|INTERRES
   195   99  100 1    
   196   99  220 1    
   197  100  101 1    
   198  100  102 1    
   199  100  221 1    
   200  101  222 1    
   201  101  223 1    
   202  101  224 1    
   203  102  103 2    
   204  102  104 am   BACKBONE|DICT|INTERRES
   205  104  105 1    
   206  104  225 1    
   207  105  106 1    
   208  105  107 1    
   209  105  226 1    
   210  106  227 1    
   211  106  228 1    
   212  106  229 1    
   213  107  108 2    
   214  107  109 am   BACKBONE|DICT|INTERRES
   215  109  110 1    
   216  109  230 1    
   217  110  111 1    
   218  110  112 1    
   219  110  231 1    
   220  111  232 1    
   221  111  233 1    
   222  111  234 1    
   223  112  113 2    
   224  112  114 am   BACKBONE|DICT|INTERRES
   225  114  115 1    
   226  114  235 1    
   227  115  116 1    
   228  115  117 1    
   229  115  236 1    
   230  116  237 1    
   231  116  238 1    
   232  116  239 1    
   233  117  118 2    
   234  117  119 am   BACKBONE|DICT|INTERRES
   235  119  120 1    
   236  119  240 1    
   237  120  121 1    
   238  120  124 1    
   239  120  241 1    
   240  121  122 am   BACKBONE|DICT|INTERRES
   241  121  123 2    
   242  122  242 1    
   243  122  243 1    
   244  124  125 1    
   245  124  244 1    
   246  124  245 1    
   247  125  126 1    
   248  126  246 1    
   249  126  247 1    
@<TRIPOS>SUBSTRUCTURE
     1 UNK         1 GROUP             0       ****    0 ROOT    
