@<TRIPOS>MOLECULE
3R540
247   249    1
SMALL
USER_CHARGES


@<TRIPOS>ATOM
      1 CA          4.5835  -21.7661  -47.7014 C.3       0 UNK        -0.1800 
      2 C           3.9763  -20.5511  -47.0165 C.2       0 UNK         0.5000 
      3 O           3.4299  -20.6702  -45.9200 O.2       0 UNK        -0.5000 
      4 N           4.0776  -19.3797  -47.6540 N.am      1 UNK        -0.5000 
      5 CA          3.6101  -18.0823  -47.1586 C.3       1 UNK         0.1400 
      6 C6          3.3168  -17.0724  -48.2999 C.3       23 UNK        -0.0398 
      7 S7          4.5025  -17.0889  -49.6941 S.3       23 UNK        -0.2404 
      8 C8          3.4735  -16.4775  -51.0776 C.3       23 UNK        -0.0205 
      9 C9          2.1784  -17.2600  -51.2779 C.ar      23 UNK        -0.0193 
     10 C10         0.9616  -16.5783  -51.4047 C.ar      23 UNK        -0.1150 
     11 C11        -0.2352  -17.2849  -51.5552 C.ar      23 UNK        -0.0193 
     12 C12        -0.2101  -18.6785  -51.5628 C.ar      23 UNK        -0.1150 
     13 C13         0.9923  -19.3730  -51.4342 C.ar      23 UNK        -0.0193 
     14 C14         2.1871  -18.6593  -51.3151 C.ar      23 UNK        -0.1150 
     15 C15         0.9851  -20.8930  -51.3855 C.3       23 UNK        -0.0205 
     16 S16         1.4335  -21.5266  -49.7382 S.3       23 UNK        -0.2404 
     17 C17         0.3745  -20.5321  -48.6310 C.3       23 UNK        -0.0398 
     18 CA          0.0153  -21.2690  -47.3186 C.3       11 UNK         0.1400 
     19 N          -0.0981  -20.3350  -46.1940 N.am      11 UNK        -0.5000 
     20 C           0.0492  -20.6764  -44.9061 C.2       10 UNK         0.5000 
     21 O           0.2016  -21.8360  -44.5190 O.2       10 UNK        -0.5000 
     22 CA         -0.0263  -19.5296  -43.8826 C.3       10 UNK         0.1400 
     23 CB          1.2566  -18.6905  -43.9195 C.3       10 UNK        -0.1800 
     24 N          -1.1839  -18.6656  -44.1088 N.am      10 UNK        -0.5000 
     25 C          -2.4535  -19.0493  -43.9173 C.2       9 UNK         0.5000 
     26 O          -2.7740  -20.1379  -43.4416 O.2       9 UNK        -0.5000 
     27 CA         -3.5513  -18.0707  -44.3695 C.3       9 UNK         0.1400 
     28 CB         -3.8543  -17.0387  -43.2719 C.3       9 UNK        -0.1800 
     29 N          -3.2118  -17.3885  -45.6208 N.am      9 UNK        -0.5000 
     30 C          -3.1319  -17.9989  -46.8128 C.2       8 UNK         0.5000 
     31 O          -3.3404  -19.1974  -46.9792 O.2       8 UNK        -0.5000 
     32 CA         -2.7174  -17.1365  -48.0182 C.3       8 UNK         0.1400 
     33 CB         -3.9409  -16.4379  -48.6313 C.3       8 UNK        -0.1800 
     34 N          -1.7158  -16.1298  -47.6742 N.am      8 UNK        -0.5000 
     35 C          -0.4650  -16.4013  -47.2781 C.2       7 UNK         0.5000 
     36 O          -0.0030  -17.5380  -47.1755 O.2       7 UNK        -0.5000 
     37 CA          0.3833  -15.1846  -46.8684 C.3       7 UNK         0.1400 
     38 CB          0.8640  -14.4197  -48.1131 C.3       7 UNK        -0.1800 
     39 N          -0.3463  -14.2600  -45.9964 N.am      7 UNK        -0.5000 
     40 C          -0.8674  -14.5761  -44.8044 C.2       6 UNK         0.5000 
     41 O          -0.7637  -15.6885  -44.2778 O.2       6 UNK        -0.5000 
     42 CA         -1.6939  -13.4822  -44.1164 C.3       6 UNK         0.1400 
     43 CB         -3.0978  -13.3857  -44.7445 C.3       6 UNK        -0.1800 
     44 N          -1.7931  -13.8100  -42.7011 N.am      6 UNK        -0.5000 
     45 C          -2.1490  -12.9803  -41.7144 C.2       5 UNK         0.5000 
     46 O          -2.5030  -11.8140  -41.8920 O.2       5 UNK        -0.5000 
     47 CA         -2.0823  -13.5445  -40.2797 C.3       5 UNK         0.1400 
     48 CB         -3.4544  -14.0932  -39.8585 C.3       5 UNK        -0.1800 
     49 N          -1.0767  -14.5991  -40.1115 N.am      5 UNK        -0.5000 
     50 C           0.2467  -14.4249  -40.2366 C.2       4 UNK         0.5000 
     51 O           0.7623  -13.3252  -40.4534 O.2       4 UNK        -0.5000 
     52 CA          1.1288  -15.6870  -40.1116 C.3       4 UNK         0.1400 
     53 CB          0.4250  -16.9549  -40.6343 C.3       4 UNK        -0.1800 
     54 N           2.3825  -15.5048  -40.8436 N.am      4 UNK        -0.5000 
     55 C           3.5025  -14.9697  -40.3445 C.2       3 UNK         0.5000 
     56 O           3.6588  -14.7136  -39.1484 O.2       3 UNK        -0.5000 
     57 CA          4.6331  -14.6772  -41.3581 C.3       3 UNK         0.1400 
     58 CB          5.8505  -13.9935  -40.7086 C.3       3 UNK        -0.1800 
     59 N           5.0947  -15.8754  -42.0639 N.am      3 UNK        -0.5000 
     60 C           4.4463  -16.4947  -43.0573 C.2       2 UNK         0.5000 
     61 O           3.3441  -16.1300  -43.4765 O.2       2 UNK        -0.5000 
     62 CA          5.1411  -17.7410  -43.6471 C.3       2 UNK         0.1400 
     63 CB          5.0997  -18.9080  -42.6467 C.3       2 UNK        -0.1800 
     64 N           4.5235  -18.1843  -44.8960 N.am      2 UNK        -0.5000 
     65 C           4.5337  -17.5182  -46.0559 C.2       1 UNK         0.5000 
     66 O           5.2242  -16.5179  -46.2607 O.2       1 UNK        -0.5000 
     67 C          -1.2095  -22.2026  -47.4798 C.2       11 UNK         0.5000 
     68 O          -1.1789  -23.0990  -48.3259 O.2       11 UNK        -0.5000 
     69 N          -2.2602  -22.0094  -46.6686 N.am      12 UNK        -0.5000 
     70 CA         -3.4632  -22.8441  -46.6045 C.3       12 UNK         0.1400 
     71 CB         -4.4413  -22.2612  -45.5745 C.3       12 UNK        -0.1800 
     72 C          -3.1610  -24.3182  -46.2862 C.2       12 UNK         0.5000 
     73 O          -3.7486  -25.2068  -46.9025 O.2       12 UNK        -0.5000 
     74 N          -2.2259  -24.5455  -45.3557 N.am      13 UNK        -0.5000 
     75 CA         -1.7654  -25.8786  -44.9694 C.3       13 UNK         0.1400 
     76 CB         -1.1921  -25.8079  -43.5455 C.3       13 UNK        -0.1800 
     77 C          -0.7144  -26.4499  -45.9397 C.2       13 UNK         0.5000 
     78 O          -0.5878  -27.6707  -46.0406 O.2       13 UNK        -0.5000 
     79 N           0.0395  -25.5662  -46.6068 N.am      14 UNK        -0.5000 
     80 CA          1.1821  -25.9267  -47.4428 C.3       14 UNK         0.1400 
     81 CB          2.1901  -24.7689  -47.4469 C.3       14 UNK        -0.1800 
     82 C           0.7826  -26.2944  -48.8802 C.2       14 UNK         0.5000 
     83 O           1.2714  -27.2990  -49.3993 O.2       14 UNK        -0.5000 
     84 N          -0.0707  -25.4740  -49.5072 N.am      15 UNK        -0.5000 
     85 CA         -0.4110  -25.5804  -50.9273 C.3       15 UNK         0.1400 
     86 CB          0.6814  -24.9064  -51.7821 C.3       15 UNK        -0.1800 
     87 C          -1.8168  -25.0291  -51.2140 C.2       15 UNK         0.5000 
     88 O          -2.0288  -24.3902  -52.2475 O.2       15 UNK        -0.5000 
     89 N          -2.7563  -25.2697  -50.2859 N.am      16 UNK        -0.5000 
     90 CA         -4.1862  -24.9360  -50.3746 C.3       16 UNK         0.1400 
     91 CB         -4.8776  -25.8465  -51.4108 C.3       16 UNK        -0.1800 
     92 C          -4.4644  -23.4395  -50.6351 C.2       16 UNK         0.5000 
     93 O          -5.4375  -23.1016  -51.3121 O.2       16 UNK        -0.5000 
     94 N          -3.5724  -22.5728  -50.1306 N.am      17 UNK        -0.5000 
     95 CA         -3.5636  -21.1164  -50.3019 C.3       17 UNK         0.1400 
     96 CB         -4.7670  -20.4755  -49.5852 C.3       17 UNK        -0.1800 
     97 C          -3.4447  -20.6803  -51.7775 C.2       17 UNK         0.5000 
     98 O          -3.9357  -19.6106  -52.1382 O.2       17 UNK        -0.5000 
     99 N          -2.7891  -21.5210  -52.5963 N.am      18 UNK        -0.5000 
    100 CA        -2.6485  -21.4069  -54.0496 C.3       18 UNK         0.1400 
    101 CB        -1.7119  -20.2425  -54.4327 C.3       18 UNK        -0.1800 
    102 C         -4.0265  -21.3703  -54.7406 C.2       18 UNK         0.5000 
    103 O         -4.3592  -20.4068  -55.4322 O.2       18 UNK        -0.5000 
    104 N         -4.8058  -22.4333  -54.4912 N.am      19 UNK        -0.5000 
    105 CA        -6.1814  -22.6591  -54.9441 C.3       19 UNK         0.1400 
    106 CB        -6.2593  -22.7433  -56.4835 C.3       19 UNK        -0.1800 
    107 C         -7.1724  -21.6479  -54.3333 C.2       19 UNK         0.5000 
    108 O         -7.9546  -21.0266  -55.0564 O.2       19 UNK        -0.5000 
    109 N         -7.1177  -21.5168  -52.9997 N.am      20 UNK        -0.5000 
    110 CA        -7.9755  -20.7265  -52.1075 C.3       20 UNK         0.1400 
    111 CB        -9.4455  -21.1805  -52.1987 C.3       20 UNK        -0.1800 
    112 C         -7.8580  -19.1973  -52.2629 C.2       20 UNK         0.5000 
    113 O         -7.6654  -18.4993  -51.2667 O.2       20 UNK        -0.5000 
    114 N         -8.0122  -18.7014  -53.4943 N.am      21 UNK        -0.5000 
    115 CA        -8.0867  -17.2792  -53.8304 C.3       21 UNK         0.1400 
    116 CB        -8.9435  -17.1295  -55.0997 C.3       21 UNK        -0.1800 
    117 C         -6.7118  -16.6133  -54.0302 C.2       21 UNK         0.5000 
    118 O         -6.6517  -15.3847  -54.1056 O.2       21 UNK        -0.5000 
    119 N         -5.6452  -17.4160  -54.1322 N.am      22 UNK        -0.5000 
    120 CA        -4.2912  -17.0029  -54.5309 C.3       22 UNK         0.1400 
    121 C         -4.1948  -16.5840  -56.0347 C.2       22 UNK         0.5000 
    122 N         -3.0675  -16.0379  -56.4726 N.am      22 UNK        -0.7600 
    123 O         -5.1169  -16.7733  -56.8268 O.2       22 UNK        -0.5000 
    124 C124       -3.6576  -15.9736  -53.5434 C.3       23 UNK        -0.0398 
    125 S125       -1.8363  -16.1105  -53.4540 S.3       23 UNK        -0.2404 
    126 C126       -1.5617  -16.5615  -51.7146 C.3       23 UNK        -0.0205 
    127 H127        5.1127  -21.4936  -48.6151 H         1 UNK         0.0600 
    128 H128        3.8013  -22.4764  -47.9631 H         1 UNK         0.0600 
    129 H129        5.2881  -22.2621  -47.0336 H         1 UNK         0.0600 
    130 H130        4.5503  -19.3392  -48.5462 H         1 UNK         0.3000 
    131 H131        2.6498  -18.2579  -46.6718 H         1 UNK         0.0600 
    132 H132        2.3252  -17.3034  -48.6857 H         1 UNK         0.0800 
    133 H133        3.2468  -16.0532  -47.9185 H         1 UNK         0.0800 
    134 H134        3.2592  -15.4219  -50.9034 H         1 UNK         0.0800 
    135 H135        4.0566  -16.5255  -51.9979 H         1 UNK         0.0800 
    136 H136        0.9421  -15.4976  -51.3898 H         1 UNK         0.1150 
    137 H137       -1.1338  -19.2228  -51.6670 H         1 UNK         0.1150 
    138 H138        3.1191  -19.1963  -51.2100 H         1 UNK         0.1150 
    139 H139        0.0052  -21.2871  -51.6582 H         1 UNK         0.0800 
    140 H140        1.6887  -21.2832  -52.1219 H         1 UNK         0.0800 
    141 H141       -0.5200  -20.1887  -49.1496 H         1 UNK         0.0800 
    142 H142        0.9510  -19.6327  -48.4120 H         1 UNK         0.0800 
    143 H143        0.8554  -21.9205  -47.0721 H         1 UNK         0.0600 
    144 H144       -0.2131  -19.3538  -46.4321 H         1 UNK         0.3000 
    145 H145       -0.1128  -19.9731  -42.8884 H         1 UNK         0.0600 
    146 H146        1.3038  -17.9924  -43.0883 H         1 UNK         0.0600 
    147 H147        2.1374  -19.3282  -43.8533 H         1 UNK         0.0600 
    148 H148        1.3311  -18.1064  -44.8352 H         1 UNK         0.0600 
    149 H149       -1.0018  -17.7295  -44.4550 H         1 UNK         0.3000 
    150 H150       -4.4594  -18.6524  -44.5425 H         1 UNK         0.0600 
    151 H151       -4.6642  -16.3719  -43.5678 H         1 UNK         0.0600 
    152 H152       -4.1635  -17.5331  -42.3502 H         1 UNK         0.0600 
    153 H153       -2.9838  -16.4288  -43.0350 H         1 UNK         0.0600 
    154 H154       -2.9779  -16.4102  -45.5595 H         1 UNK         0.3000 
    155 H155       -2.2864  -17.8020  -48.7697 H         1 UNK         0.0600 
    156 H156       -4.3907  -15.7295  -47.9346 H         1 UNK         0.0600 
    157 H157       -4.7121  -17.1583  -48.9044 H         1 UNK         0.0600 
    158 H158       -3.6742  -15.8924  -49.5363 H         1 UNK         0.0600 
    159 H159       -2.0080  -15.1650  -47.7173 H         1 UNK         0.3000 
    160 H160        1.2538  -15.5547  -46.3223 H         1 UNK         0.0600 
    161 H161        0.0429  -13.9050  -48.6135 H         1 UNK         0.0600 
    162 H162        1.3127  -15.0875  -48.8473 H         1 UNK         0.0600 
    163 H163        1.6145  -13.6742  -47.8500 H         1 UNK         0.0600 
    164 H164       -0.4776  -13.3234  -46.3507 H         1 UNK         0.3000 
    165 H165       -1.1706  -12.5300  -44.2254 H         1 UNK         0.0600 
    166 H166       -3.6836  -12.5877  -44.2886 H         1 UNK         0.0600 
    167 H167       -3.0398  -13.1683  -45.8116 H         1 UNK         0.0600 
    168 H168       -3.6563  -14.3144  -44.6277 H         1 UNK         0.0600 
    169 H169       -1.4750  -14.7439  -42.4765 H         1 UNK         0.3000 
    170 H170       -1.8219  -12.7201  -39.6127 H         1 UNK         0.0600 
    171 H171       -4.2249  -13.3259  -39.9446 H         1 UNK         0.0600 
    172 H172       -3.7596  -14.9354  -40.4811 H         1 UNK         0.0600 
    173 H173       -3.4452  -14.4270  -38.8207 H         1 UNK         0.0600 
    174 H174       -1.4272  -15.5269  -39.9232 H         1 UNK         0.3000 
    175 H175        1.3440  -15.8335  -39.0514 H         1 UNK         0.0600 
    176 H176        0.0179  -16.8060  -41.6353 H         1 UNK         0.0600 
    177 H177        1.1122  -17.8005  -40.6706 H         1 UNK         0.0600 
    178 H178       -0.3992  -17.2491  -39.9838 H         1 UNK         0.0600 
    179 H179        2.3603  -15.6847  -41.8431 H         1 UNK         0.3000 
    180 H180        4.2234  -13.9811  -42.0933 H         1 UNK         0.0600 
    181 H181        6.3252  -14.6357  -39.9658 H         1 UNK         0.0600 
    182 H182        5.5598  -13.0691  -40.2078 H         1 UNK         0.0600 
    183 H183        6.6008  -13.7322  -41.4551 H         1 UNK         0.0600 
    184 H184        5.9740  -16.2583  -41.7480 H         1 UNK         0.3000 
    185 H185        6.1828  -17.4875  -43.8536 H         1 UNK         0.0600 
    186 H186        5.6274  -18.6590  -41.7254 H         1 UNK         0.0600 
    187 H187        4.0766  -19.1708  -42.3754 H         1 UNK         0.0600 
    188 H188        5.5757  -19.7982  -43.0586 H         1 UNK         0.0600 
    189 H189        3.9717  -19.0344  -44.8557 H         1 UNK         0.3000 
    190 H190       -2.2378  -21.2113  -46.0488 H         1 UNK         0.3000 
    191 H191       -3.9525  -22.8121  -47.5752 H         1 UNK         0.0600 
    192 H192       -4.7133  -21.2352  -45.8220 H         1 UNK         0.0600 
    193 H193       -5.3643  -22.8414  -45.5414 H         1 UNK         0.0600 
    194 H194       -4.0171  -22.2630  -44.5700 H         1 UNK         0.0600 
    195 H195       -1.7862  -23.7563  -44.9017 H         1 UNK         0.3000 
    196 H196       -2.6163  -26.5633  -44.9585 H         1 UNK         0.0600 
    197 H197       -0.8525  -26.7892  -43.2111 H         1 UNK         0.0600 
    198 H198       -1.9443  -25.4659  -42.8344 H         1 UNK         0.0600 
    199 H199       -0.3411  -25.1277  -43.4871 H         1 UNK         0.0600 
    200 H200       -0.1570  -24.5837  -46.4950 H         1 UNK         0.3000 
    201 H201        1.6812  -26.7931  -47.0027 H         1 UNK         0.0600 
    202 H202        2.4973  -24.5027  -46.4352 H         1 UNK         0.0600 
    203 H203        1.7738  -23.8798  -47.9176 H         1 UNK         0.0600 
    204 H204        3.0901  -25.0387  -48.0009 H         1 UNK         0.0600 
    205 H205       -0.4373  -24.6582  -49.0202 H         1 UNK         0.3000 
    206 H206       -0.4531  -26.6355  -51.2050 H         1 UNK         0.0600 
    207 H207        1.6618  -25.3445  -51.5952 H         1 UNK         0.0600 
    208 H208        0.4770  -25.0211  -52.8472 H         1 UNK         0.0600 
    209 H209        0.7469  -23.8395  -51.5722 H         1 UNK         0.0600 
    210 H210       -2.4774  -25.7669  -49.4510 H         1 UNK         0.3000 
    211 H211       -4.6215  -25.1583  -49.4005 H         1 UNK         0.0600 
    212 H212       -4.5313  -25.6414  -52.4243 H         1 UNK         0.0600 
    213 H213       -5.9591  -25.7057  -51.3993 H         1 UNK         0.0600 
    214 H214       -4.6884  -26.8987  -51.1986 H         1 UNK         0.0600 
    215 H215       -2.7839  -22.9556  -49.6192 H         1 UNK         0.3000 
    216 H216       -2.6629  -20.7542  -49.8085 H         1 UNK         0.0600 
    217 H217       -4.7014  -19.3885  -49.6062 H         1 UNK         0.0600 
    218 H218       -4.8141  -20.7760  -48.5395 H         1 UNK         0.0600 
    219 H219       -5.7088  -20.7515  -50.0512 H         1 UNK         0.0600 
    220 H220       -2.4665  -22.4036  -52.2120 H         1 UNK         0.3000 
    221 H221       -2.1676  -22.3266  -54.3868 H         1 UNK         0.0600 
    222 H222       -2.0372  -19.2933  -54.0123 H         1 UNK         0.0600 
    223 H223       -0.6989  -20.4267  -54.0759 H         1 UNK         0.0600 
    224 H224       -1.6543  -20.1217  -55.5150 H         1 UNK         0.0600 
    225 H225       -4.4405  -23.1377  -53.8650 H         1 UNK         0.3000 
    226 H226       -6.4706  -23.6359  -54.5534 H         1 UNK         0.0600 
    227 H227       -5.5589  -23.4815  -56.8740 H         1 UNK         0.0600 
    228 H228       -7.2578  -23.0415  -56.8053 H         1 UNK         0.0600 
    229 H229       -6.0385  -21.7868  -56.9579 H         1 UNK         0.0600 
    230 H230       -6.4195  -22.0711  -52.5065 H         1 UNK         0.3000 
    231 H231       -7.6442  -20.9658  -51.0976 H         1 UNK         0.0600 
    232 H232       -9.8785  -20.9798  -53.1793 H         1 UNK         0.0600 
    233 H233      -10.0582  -20.6600  -51.4614 H         1 UNK         0.0600 
    234 H234       -9.5401  -22.2489  -52.0028 H         1 UNK         0.0600 
    235 H235       -8.1299  -19.3684  -54.2545 H         1 UNK         0.3000 
    236 H236       -8.5900  -16.7483  -53.0181 H         1 UNK         0.0600 
    237 H237       -9.9427  -17.5410  -54.9527 H         1 UNK         0.0600 
    238 H238       -9.0634  -16.0798  -55.3723 H         1 UNK         0.0600 
    239 H239       -8.4904  -17.6409  -55.9515 H         1 UNK         0.0600 
    240 H240       -5.7888  -18.4139  -54.0635 H         1 UNK         0.3000 
    241 H241       -3.7224  -17.9271  -54.4633 H         1 UNK         0.0600 
    242 H242       -2.9873  -15.7746  -57.4426 H         1 UNK         0.3800 
    243 H243       -2.2921  -15.8854  -55.8432 H         1 UNK         0.3800 
    244 H244       -3.9250  -14.9518  -53.8191 H         1 UNK         0.0800 
    245 H245       -4.0652  -16.1208  -52.5419 H         1 UNK         0.0800 
    246 H246       -2.3728  -17.2039  -51.3671 H         1 UNK         0.0800 
    247 H247       -1.5831  -15.6649  -51.0934 H         1 UNK         0.0800 
@<TRIPOS>BOND
     1    1    2 1    
     2    1  127 1    
     3    1  128 1    
     4    1  129 1    
     5    2    3 2    
     6    2    4 am   BACKBONE|DICT|INTERRES
     7    4    5 1    
     8    4  130 1    
     9    5    6 1    
    10    5   65 1    
    11    5  131 1    
    12    6    7 1    
    13    6  132 1    
    14    6  133 1    
    15    7    8 1    
    16    8    9 1    
    17    8  134 1    
    18    8  135 1    
    19    9   10 ar   
    20    9   14 ar   
    21   10   11 ar   
    22   10  136 1    
    23   11   12 ar   
    24   11  126 1    
    25   12   13 ar   
    26   12  137 1    
    27   13   14 ar   
    28   13   15 1    
    29   14  138 1    
    30   15   16 1    
    31   15  139 1    
    32   15  140 1    
    33   16   17 1    
    34   17   18 1    
    35   17  141 1    
    36   17  142 1    
    37   18   19 1    
    38   18   67 1    
    39   18  143 1    
    40   19   20 am   BACKBONE|DICT|INTERRES
    41   19  144 1    
    42   20   21 2    
    43   20   22 1    
    44   22   23 1    
    45   22   24 1    
    46   22  145 1    
    47   23  146 1    
    48   23  147 1    
    49   23  148 1    
    50   24   25 am   BACKBONE|DICT|INTERRES
    51   24  149 1    
    52   25   26 2    
    53   25   27 1    
    54   27   28 1    
    55   27   29 1    
    56   27  150 1    
    57   28  151 1    
    58   28  152 1    
    59   28  153 1    
    60   29   30 am   BACKBONE|DICT|INTERRES
    61   29  154 1    
    62   30   31 2    
    63   30   32 1    
    64   32   33 1    
    65   32   34 1    
    66   32  155 1    
    67   33  156 1    
    68   33  157 1    
    69   33  158 1    
    70   34   35 am   BACKBONE|DICT|INTERRES
    71   34  159 1    
    72   35   36 2    
    73   35   37 1    
    74   37   38 1    
    75   37   39 1    
    76   37  160 1    
    77   38  161 1    
    78   38  162 1    
    79   38  163 1    
    80   39   40 am   BACKBONE|DICT|INTERRES
    81   39  164 1    
    82   40   41 2    
    83   40   42 1    
    84   42   43 1    
    85   42   44 1    
    86   42  165 1    
    87   43  166 1    
    88   43  167 1    
    89   43  168 1    
    90   44   45 am   BACKBONE|DICT|INTERRES
    91   44  169 1    
    92   45   46 2    
    93   45   47 1    
    94   47   48 1    
    95   47   49 1    
    96   47  170 1    
    97   48  171 1    
    98   48  172 1    
    99   48  173 1    
   100   49   50 am   BACKBONE|DICT|INTERRES
   101   49  174 1    
   102   50   51 2    
   103   50   52 1    
   104   52   53 1    
   105   52   54 1    
   106   52  175 1    
   107   53  176 1    
   108   53  177 1    
   109   53  178 1    
   110   54   55 am   BACKBONE|DICT|INTERRES
   111   54  179 1    
   112   55   56 2    
   113   55   57 1    
   114   57   58 1    
   115   57   59 1    
   116   57  180 1    
   117   58  181 1    
   118   58  182 1    
   119   58  183 1    
   120   59   60 am   BACKBONE|DICT|INTERRES
   121   59  184 1    
   122   60   61 2    
   123   60   62 1    
   124   62   63 1    
   125   62   64 1    
   126   62  185 1    
   127   63  186 1    
   128   63  187 1    
   129   63  188 1    
   130   64   65 am   BACKBONE|DICT|INTERRES
   131   64  189 1    
   132   65   66 2    
   133   67   68 2    
   134   67   69 am   BACKBONE|DICT|INTERRES
   135   69   70 1    
   136   69  190 1    
   137   70   71 1    
   138   70   72 1    
   139   70  191 1    
   140   71  192 1    
   141   71  193 1    
   142   71  194 1    
   143   72   73 2    
   144   72   74 am   BACKBONE|DICT|INTERRES
   145   74   75 1    
   146   74  195 1    
   147   75   76 1    
   148   75   77 1    
   149   75  196 1    
   150   76  197 1    
   151   76  198 1    
   152   76  199 1    
   153   77   78 2    
   154   77   79 am   BACKBONE|DICT|INTERRES
   155   79   80 1    
   156   79  200 1    
   157   80   81 1    
   158   80   82 1    
   159   80  201 1    
   160   81  202 1    
   161   81  203 1    
   162   81  204 1    
   163   82   83 2    
   164   82   84 am   BACKBONE|DICT|INTERRES
   165   84   85 1    
   166   84  205 1    
   167   85   86 1    
   168   85   87 1    
   169   85  206 1    
   170   86  207 1    
   171   86  208 1    
   172   86  209 1    
   173   87   88 2    
   174   87   89 am   BACKBONE|DICT|INTERRES
   175   89   90 1    
   176   89  210 1    
   177   90   91 1    
   178   90   92 1    
   179   90  211 1    
   180   91  212 1    
   181   91  213 1    
   182   91  214 1    
   183   92   93 2    
   184   92   94 am   BACKBONE|DICT|INTERRES
   185   94   95 1    
   186   94  215 1    
   187   95   96 1    
   188   95   97 1    
   189   95  216 1    
   190   96  217 1    
   191   96  218 1    
   192   96  219 1    
   193   97   98 2    
   194   97   99 am   BACKBONE|DICT|INTERRES
   195   99  100 1    
   196   99  220 1    
   197  100  101 1    
   198  100  102 1    
   199  100  221 1    
   200  101  222 1    
   201  101  223 1    
   202  101  224 1    
   203  102  103 2    
   204  102  104 am   BACKBONE|DICT|INTERRES
   205  104  105 1    
   206  104  225 1    
   207  105  106 1    
   208  105  107 1    
   209  105  226 1    
   210  106  227 1    
   211  106  228 1    
   212  106  229 1    
   213  107  108 2    
   214  107  109 am   BACKBONE|DICT|INTERRES
   215  109  110 1    
   216  109  230 1    
   217  110  111 1    
   218  110  112 1    
   219  110  231 1    
   220  111  232 1    
   221  111  233 1    
   222  111  234 1    
   223  112  113 2    
   224  112  114 am   BACKBONE|DICT|INTERRES
   225  114  115 1    
   226  114  235 1    
   227  115  116 1    
   228  115  117 1    
   229  115  236 1    
   230  116  237 1    
   231  116  238 1    
   232  116  239 1    
   233  117  118 2    
   234  117  119 am   BACKBONE|DICT|INTERRES
   235  119  120 1    
   236  119  240 1    
   237  120  121 1    
   238  120  124 1    
   239  120  241 1    
   240  121  122 am   BACKBONE|DICT|INTERRES
   241  121  123 2    
   242  122  242 1    
   243  122  243 1    
   244  124  125 1    
   245  124  244 1    
   246  124  245 1    
   247  125  126 1    
   248  126  246 1    
   249  126  247 1    
@<TRIPOS>SUBSTRUCTURE
     1 UNK         1 GROUP             0       ****    0 ROOT    
