@<TRIPOS>MOLECULE
3R540
247   249    1
SMALL
USER_CHARGES


@<TRIPOS>ATOM
      1 CA          0.6343  -10.9465  -47.8694 C.3       0 UNK        -0.1800 
      2 C           0.6323  -12.4580  -48.0442 C.2       0 UNK         0.5000 
      3 O           1.6463  -13.1040  -47.7823 O.2       0 UNK        -0.5000 
      4 N          -0.5076  -13.0237  -48.4645 N.am      1 UNK        -0.5000 
      5 CA         -0.7188  -14.4524  -48.7474 C.3       1 UNK         0.1400 
      6 C6         -2.1450  -14.7133  -49.2909 C.3       23 UNK        -0.0398 
      7 S7         -2.3821  -14.0391  -50.9702 S.3       23 UNK        -0.2404 
      8 C8         -2.7279  -15.5496  -51.9310 C.3       23 UNK        -0.0205 
      9 C9         -1.4674  -16.2368  -52.4425 C.ar      23 UNK        -0.0193 
     10 C10        -1.2001  -16.2702  -53.8139 C.ar      23 UNK        -0.1150 
     11 C11        -0.0801  -16.9451  -54.3083 C.ar      23 UNK        -0.0193 
     12 C12         0.7817  -17.5921  -53.4174 C.ar      23 UNK        -0.1150 
     13 C13         0.5290  -17.5652  -52.0420 C.ar      23 UNK        -0.0193 
     14 C14        -0.5917  -16.8805  -51.5629 C.ar      23 UNK        -0.1150 
     15 C15         1.4629  -18.2769  -51.0731 C.3       23 UNK        -0.0205 
     16 S16         0.8951  -19.9667  -50.6943 S.3       23 UNK        -0.2404 
     17 C17        -0.4628  -19.6244  -49.5261 C.3       23 UNK        -0.0398 
     18 CA         -0.9796  -20.8925  -48.8145 C.3       11 UNK         0.1400 
     19 N           0.0604  -21.5349  -48.0108 N.am      11 UNK        -0.5000 
     20 C          -0.0714  -22.6590  -47.2921 C.2       10 UNK         0.5000 
     21 O          -1.0962  -23.3400  -47.2729 O.2       10 UNK        -0.5000 
     22 CA          1.1261  -23.0503  -46.4019 C.3       10 UNK         0.1400 
     23 CB          1.9647  -24.1427  -47.0808 C.3       10 UNK        -0.1800 
     24 N           1.9914  -21.9103  -46.0730 N.am      10 UNK        -0.5000 
     25 C           1.6102  -20.8525  -45.3437 C.2       9 UNK         0.5000 
     26 O           0.5014  -20.7487  -44.8142 O.2       9 UNK        -0.5000 
     27 CA          2.5858  -19.6665  -45.3058 C.3       9 UNK         0.1400 
     28 CB          2.1332  -18.6096  -46.3231 C.3       9 UNK        -0.1800 
     29 N           2.6530  -19.0682  -43.9743 N.am      9 UNK        -0.5000 
     30 C           3.3083  -19.6190  -42.9437 C.2       8 UNK         0.5000 
     31 O           3.9650  -20.6578  -43.0308 O.2       8 UNK        -0.5000 
     32 CA          3.2273  -18.8943  -41.5876 C.3       8 UNK         0.1400 
     33 CB          4.3615  -17.8671  -41.4483 C.3       8 UNK        -0.1800 
     34 N           1.9492  -18.2229  -41.3637 N.am      8 UNK        -0.5000 
     35 C           0.7830  -18.8419  -41.1422 C.2       7 UNK         0.5000 
     36 O           0.6489  -20.0657  -41.0912 O.2       7 UNK        -0.5000 
     37 CA         -0.4086  -17.9028  -40.8832 C.3       7 UNK         0.1400 
     38 CB         -1.7625  -18.6320  -40.7542 C.3       7 UNK        -0.1800 
     39 N          -0.1475  -17.0332  -39.7302 N.am      7 UNK        -0.5000 
     40 C           0.0067  -17.4029  -38.4465 C.2       6 UNK         0.5000 
     41 O          -0.1378  -18.5583  -38.0454 O.2       6 UNK        -0.5000 
     42 CA          0.4144  -16.3182  -37.4233 C.3       6 UNK         0.1400 
     43 CB          1.8031  -16.6273  -36.8390 C.3       6 UNK        -0.1800 
     44 N           0.4448  -14.9639  -37.9738 N.am      6 UNK        -0.5000 
     45 C          -0.6229  -14.2079  -38.2605 C.2       5 UNK         0.5000 
     46 O          -1.7811  -14.5333  -37.9986 O.2       5 UNK        -0.5000 
     47 CA         -0.3490  -12.8774  -38.9954 C.3       5 UNK         0.1400 
     48 CB         -0.4345  -11.6960  -38.0168 C.3       5 UNK        -0.1800 
     49 N           0.9449  -12.8259  -39.6919 N.am      5 UNK        -0.5000 
     50 C           1.3141  -13.6364  -40.6922 C.2       4 UNK         0.5000 
     51 O           0.6083  -14.5514  -41.1260 O.2       4 UNK        -0.5000 
     52 CA          2.7259  -13.4339  -41.2560 C.3       4 UNK         0.1400 
     53 CB          3.7776  -14.0887  -40.3437 C.3       4 UNK        -0.1800 
     54 N           2.7730  -14.0443  -42.5765 N.am      4 UNK        -0.5000 
     55 C           3.5631  -13.6943  -43.5927 C.2       3 UNK         0.5000 
     56 O           4.4356  -12.8292  -43.5055 O.2       3 UNK        -0.5000 
     57 CA          3.3285  -14.3943  -44.9484 C.3       3 UNK         0.1400 
     58 CB          4.2521  -15.6154  -45.1136 C.3       3 UNK        -0.1800 
     59 N           1.9231  -14.7182  -45.2462 N.am      3 UNK        -0.5000 
     60 C           1.0994  -15.5875  -44.6387 C.2       2 UNK         0.5000 
     61 O           1.4526  -16.3444  -43.7330 O.2       2 UNK        -0.5000 
     62 CA         -0.3795  -15.5910  -45.0735 C.3       2 UNK         0.1400 
     63 CB         -1.2605  -14.9690  -43.9792 C.3       2 UNK        -0.1800 
     64 N          -0.6217  -14.8665  -46.3205 N.am      2 UNK        -0.5000 
     65 C          -0.4477  -15.3810  -47.5442 C.2       1 UNK         0.5000 
     66 O          -0.0962  -16.5409  -47.7519 O.2       1 UNK        -0.5000 
     67 C          -2.2432  -20.5467  -47.9988 C.2       11 UNK         0.5000 
     68 O          -3.3400  -20.6114  -48.5530 O.2       11 UNK        -0.5000 
     69 N          -2.0844  -20.2112  -46.7087 N.am      12 UNK        -0.5000 
     70 CA         -3.1928  -19.9216  -45.7972 C.3       12 UNK         0.1400 
     71 CB         -2.6472  -19.3235  -44.4926 C.3       12 UNK        -0.1800 
     72 C          -4.0489  -21.1685  -45.5134 C.2       12 UNK         0.5000 
     73 O          -5.2764  -21.0921  -45.5755 O.2       12 UNK        -0.5000 
     74 N          -3.3820  -22.3059  -45.2679 N.am      13 UNK        -0.5000 
     75 CA         -4.0096  -23.6173  -45.0815 C.3       13 UNK         0.1400 
     76 CB         -2.9684  -24.6083  -44.5395 C.3       13 UNK        -0.1800 
     77 C          -4.6548  -24.1514  -46.3749 C.2       13 UNK         0.5000 
     78 O          -5.6677  -24.8476  -46.3104 O.2       13 UNK        -0.5000 
     79 N          -4.0853  -23.7692  -47.5252 N.am      14 UNK        -0.5000 
     80 CA         -4.5885  -24.0487  -48.8702 C.3       14 UNK         0.1400 
     81 CB         -3.4048  -24.0237  -49.8477 C.3       14 UNK        -0.1800 
     82 C          -5.7129  -23.0925  -49.3303 C.2       14 UNK         0.5000 
     83 O          -6.0253  -23.0774  -50.5225 O.2       14 UNK        -0.5000 
     84 N          -6.2934  -22.3207  -48.3976 N.am      15 UNK        -0.5000 
     85 CA         -7.4159  -21.3940  -48.5704 C.3       15 UNK         0.1400 
     86 CB         -8.6949  -22.1518  -48.9859 C.3       15 UNK        -0.1800 
     87 C          -7.0695  -20.2233  -49.5088 C.2       15 UNK         0.5000 
     88 O          -7.7317  -20.0227  -50.5273 O.2       15 UNK        -0.5000 
     89 N          -6.0091  -19.4877  -49.1466 N.am      16 UNK        -0.5000 
     90 CA         -5.4112  -18.3717  -49.8903 C.3       16 UNK         0.1400 
     91 CB         -6.3779  -17.1732  -49.9862 C.3       16 UNK        -0.1800 
     92 C          -4.8617  -18.8314  -51.2550 C.2       16 UNK         0.5000 
     93 O          -5.1216  -18.2053  -52.2829 O.2       16 UNK        -0.5000 
     94 N          -4.1208  -19.9466  -51.2107 N.am      17 UNK        -0.5000 
     95 CA         -3.4598  -20.6446  -52.3157 C.3       17 UNK         0.1400 
     96 CB         -2.4182  -19.7423  -53.0037 C.3       17 UNK        -0.1800 
     97 C          -4.4054  -21.2917  -53.3456 C.2       17 UNK         0.5000 
     98 O          -3.9165  -21.7711  -54.3689 O.2       17 UNK        -0.5000 
     99 N          -5.7153  -21.3441  -53.0687 N.am      18 UNK        -0.5000 
    100 CA        -6.7327  -21.9097  -53.9577 C.3       18 UNK         0.1400 
    101 CB        -8.1275  -21.6608  -53.3667 C.3       18 UNK        -0.1800 
    102 C         -6.5264  -23.4075  -54.2467 C.2       18 UNK         0.5000 
    103 O         -6.6716  -23.8291  -55.3947 O.2       18 UNK        -0.5000 
    104 N         -6.1626  -24.1746  -53.2107 N.am      19 UNK        -0.5000 
    105 CA        -5.8597  -25.6027  -53.3225 C.3       19 UNK         0.1400 
    106 CB        -6.1369  -26.2799  -51.9714 C.3       19 UNK        -0.1800 
    107 C         -4.4120  -25.8743  -53.7786 C.2       19 UNK         0.5000 
    108 O         -4.1379  -26.9590  -54.2934 O.2       19 UNK        -0.5000 
    109 N         -3.5104  -24.9054  -53.5676 N.am      20 UNK        -0.5000 
    110 CA        -2.0800  -25.0262  -53.8606 C.3       20 UNK         0.1400 
    111 CB        -1.2845  -24.1835  -52.8494 C.3       20 UNK        -0.1800 
    112 C         -1.7121  -24.5947  -55.2896 C.2       20 UNK         0.5000 
    113 O         -0.6653  -25.0127  -55.7857 O.2       20 UNK        -0.5000 
    114 N         -2.5271  -23.7180  -55.8966 N.am      21 UNK        -0.5000 
    115 CA        -2.2851  -23.0228  -57.1684 C.3       21 UNK         0.1400 
    116 CB        -2.3546  -24.0085  -58.3531 C.3       21 UNK        -0.1800 
    117 C         -0.9801  -22.1940  -57.1379 C.2       21 UNK         0.5000 
    118 O         -0.2293  -22.1749  -58.1146 O.2       21 UNK        -0.5000 
    119 N         -0.7252  -21.5668  -55.9808 N.am      22 UNK        -0.5000 
    120 CA         0.5101  -20.8517  -55.6050 C.3       22 UNK         0.1400 
    121 C          1.7576  -21.7671  -55.3960 C.2       22 UNK         0.5000 
    122 N          1.6425  -23.0904  -55.4176 N.am      22 UNK        -0.7600 
    123 O          2.8573  -21.2681  -55.1738 O.2       22 UNK        -0.5000 
    124 C124        0.8320  -19.6336  -56.5167 C.3       23 UNK        -0.0398 
    125 S125       -0.5280  -18.4168  -56.6213 S.3       23 UNK        -0.2404 
    126 C126        0.1944  -16.9567  -55.8045 C.3       23 UNK        -0.0205 
    127 H127       -0.3307  -10.5071  -48.1232 H         1 UNK         0.0600 
    128 H128        1.3920  -10.4967  -48.5109 H         1 UNK         0.0600 
    129 H129        0.8646  -10.6888  -46.8357 H         1 UNK         0.0600 
    130 H130       -1.2972  -12.4275  -48.6695 H         1 UNK         0.3000 
    131 H131        0.0034  -14.7335  -49.5167 H         1 UNK         0.0600 
    132 H132       -2.8904  -14.2633  -48.6329 H         1 UNK         0.0800 
    133 H133       -2.3777  -15.7792  -49.2991 H         1 UNK         0.0800 
    134 H134       -3.3693  -15.2746  -52.7698 H         1 UNK         0.0800 
    135 H135       -3.3128  -16.2510  -51.3370 H         1 UNK         0.0800 
    136 H136       -1.8730  -15.7802  -54.5035 H         1 UNK         0.1150 
    137 H137        1.6465  -18.1197  -53.7943 H         1 UNK         0.1150 
    138 H138       -0.7879  -16.8708  -50.5026 H         1 UNK         0.1150 
    139 H139        2.4646  -18.3342  -51.5013 H         1 UNK         0.0800 
    140 H140        1.5615  -17.7018  -50.1506 H         1 UNK         0.0800 
    141 H141       -1.2737  -19.1460  -50.0749 H         1 UNK         0.0800 
    142 H142       -0.1154  -18.8970  -48.7920 H         1 UNK         0.0800 
    143 H143       -1.2748  -21.6088  -49.5817 H         1 UNK         0.0600 
    144 H144        0.9527  -21.0655  -47.9907 H         1 UNK         0.3000 
    145 H145        0.7238  -23.4521  -45.4695 H         1 UNK         0.0600 
    146 H146        2.7736  -24.4798  -46.4323 H         1 UNK         0.0600 
    147 H147        1.3528  -25.0151  -47.3147 H         1 UNK         0.0600 
    148 H148        2.4052  -23.7910  -48.0145 H         1 UNK         0.0600 
    149 H149        2.9161  -21.9194  -46.4794 H         1 UNK         0.3000 
    150 H150        3.5845  -20.0084  -45.5861 H         1 UNK         0.0600 
    151 H151        2.1218  -19.0142  -47.3358 H         1 UNK         0.0600 
    152 H152        2.7997  -17.7506  -46.3307 H         1 UNK         0.0600 
    153 H153        1.1272  -18.2522  -46.1035 H         1 UNK         0.0600 
    154 H154        2.1269  -18.2135  -43.8218 H         1 UNK         0.3000 
    155 H155        3.3552  -19.6474  -40.8071 H         1 UNK         0.0600 
    156 H156        4.2376  -17.0317  -42.1381 H         1 UNK         0.0600 
    157 H157        5.3315  -18.3224  -41.6525 H         1 UNK         0.0600 
    158 H158        4.4017  -17.4637  -40.4366 H         1 UNK         0.0600 
    159 H159        1.9492  -17.2155  -41.4375 H         1 UNK         0.3000 
    160 H160       -0.4748  -17.2513  -41.7538 H         1 UNK         0.0600 
    161 H161       -1.7785  -19.3312  -39.9184 H         1 UNK         0.0600 
    162 H162       -1.9788  -19.2059  -41.6545 H         1 UNK         0.0600 
    163 H163       -2.5788  -17.9232  -40.6155 H         1 UNK         0.0600 
    164 H164        0.0215  -16.0611  -39.9687 H         1 UNK         0.3000 
    165 H165       -0.3147  -16.3463  -36.6110 H         1 UNK         0.0600 
    166 H166        2.5740  -16.6215  -37.6109 H         1 UNK         0.0600 
    167 H167        2.0830  -15.8986  -36.0780 H         1 UNK         0.0600 
    168 H168        1.8210  -17.6097  -36.3653 H         1 UNK         0.0600 
    169 H169        1.3538  -14.6023  -38.2201 H         1 UNK         0.3000 
    170 H170       -1.1331  -12.7581  -39.7459 H         1 UNK         0.0600 
    171 H171        0.3450  -11.7476  -37.2555 H         1 UNK         0.0600 
    172 H172       -0.3347  -10.7434  -38.5374 H         1 UNK         0.0600 
    173 H173       -1.3960  -11.6829  -37.5016 H         1 UNK         0.0600 
    174 H174        1.5878  -12.1114  -39.3810 H         1 UNK         0.3000 
    175 H175        2.9186  -12.3625  -41.3407 H         1 UNK         0.0600 
    176 H176        3.5794  -15.1515  -40.2029 H         1 UNK         0.0600 
    177 H177        4.7803  -13.9883  -40.7592 H         1 UNK         0.0600 
    178 H178        3.7883  -13.6227  -39.3578 H         1 UNK         0.0600 
    179 H179        2.0700  -14.7611  -42.7357 H         1 UNK         0.3000 
    180 H180        3.6208  -13.6693  -45.7097 H         1 UNK         0.0600 
    181 H181        4.2430  -15.9719  -46.1428 H         1 UNK         0.0600 
    182 H182        3.9682  -16.4417  -44.4637 H         1 UNK         0.0600 
    183 H183        5.2850  -15.3579  -44.8760 H         1 UNK         0.0600 
    184 H184        1.5353  -14.1699  -46.0061 H         1 UNK         0.3000 
    185 H185       -0.6762  -16.6330  -45.2015 H         1 UNK         0.0600 
    186 H186       -1.1576  -15.5034  -43.0360 H         1 UNK         0.0600 
    187 H187       -0.9951  -13.9278  -43.7914 H         1 UNK         0.0600 
    188 H188       -2.3149  -15.0041  -44.2536 H         1 UNK         0.0600 
    189 H189       -0.9170  -13.9042  -46.2399 H         1 UNK         0.3000 
    190 H190       -1.1562  -20.2170  -46.3047 H         1 UNK         0.3000 
    191 H191       -3.8345  -19.1747  -46.2696 H         1 UNK         0.0600 
    192 H192       -3.4591  -19.0749  -43.8080 H         1 UNK         0.0600 
    193 H193       -2.0903  -18.4071  -44.6809 H         1 UNK         0.0600 
    194 H194       -1.9832  -20.0182  -43.9773 H         1 UNK         0.0600 
    195 H195       -2.3724  -22.2862  -45.2797 H         1 UNK         0.3000 
    196 H196       -4.8004  -23.5115  -44.3358 H         1 UNK         0.0600 
    197 H197       -2.1484  -24.7593  -45.2420 H         1 UNK         0.0600 
    198 H198       -2.5441  -24.2594  -43.5979 H         1 UNK         0.0600 
    199 H199       -3.4205  -25.5827  -44.3506 H         1 UNK         0.0600 
    200 H200       -3.2181  -23.2480  -47.4706 H         1 UNK         0.3000 
    201 H201       -5.0076  -25.0566  -48.8778 H         1 UNK         0.0600 
    202 H202       -2.9986  -23.0204  -49.9531 H         1 UNK         0.0600 
    203 H203       -3.7071  -24.3582  -50.8384 H         1 UNK         0.0600 
    204 H204       -2.6006  -24.6806  -49.5153 H         1 UNK         0.0600 
    205 H205       -5.9247  -22.3745  -47.4576 H         1 UNK         0.3000 
    206 H206       -7.6036  -20.9551  -47.5892 H         1 UNK         0.0600 
    207 H207       -8.9337  -22.9402  -48.2722 H         1 UNK         0.0600 
    208 H208       -9.5512  -21.4776  -49.0237 H         1 UNK         0.0600 
    209 H209       -8.5987  -22.6103  -49.9701 H         1 UNK         0.0600 
    210 H210       -5.4783  -19.8007  -48.3440 H         1 UNK         0.3000 
    211 H211       -4.5467  -18.0458  -49.3097 H         1 UNK         0.0600 
    212 H212       -5.8818  -16.3087  -50.4291 H         1 UNK         0.0600 
    213 H213       -6.7326  -16.8736  -49.0002 H         1 UNK         0.0600 
    214 H214       -7.2487  -17.3987  -50.6023 H         1 UNK         0.0600 
    215 H215       -3.9869  -20.3613  -50.2915 H         1 UNK         0.3000 
    216 H216       -2.9192  -21.4697  -51.8530 H         1 UNK         0.0600 
    217 H217       -2.8793  -18.9017  -53.5223 H         1 UNK         0.0600 
    218 H218       -1.8433  -20.2969  -53.7415 H         1 UNK         0.0600 
    219 H219       -1.7059  -19.3441  -52.2879 H         1 UNK         0.0600 
    220 H220       -6.0427  -20.9679  -52.1890 H         1 UNK         0.3000 
    221 H221       -6.6682  -21.3788  -54.9096 H         1 UNK         0.0600 
    222 H222       -8.3181  -20.5946  -53.2432 H         1 UNK         0.0600 
    223 H223       -8.2395  -22.1357  -52.3914 H         1 UNK         0.0600 
    224 H224       -8.9068  -22.0577  -54.0184 H         1 UNK         0.0600 
    225 H225       -6.0963  -23.7529  -52.2861 H         1 UNK         0.3000 
    226 H226       -6.5264  -26.0524  -54.0614 H         1 UNK         0.0600 
    227 H227       -5.4832  -25.9015  -51.1869 H         1 UNK         0.0600 
    228 H228       -7.1674  -26.1194  -51.6541 H         1 UNK         0.0600 
    229 H229       -5.9805  -27.3574  -52.0357 H         1 UNK         0.0600 
    230 H230       -3.8328  -24.0297  -53.1857 H         1 UNK         0.3000 
    231 H231       -1.7715  -26.0674  -53.7434 H         1 UNK         0.0600 
    232 H232       -1.5622  -23.1306  -52.8906 H         1 UNK         0.0600 
    233 H233       -0.2131  -24.2436  -53.0467 H         1 UNK         0.0600 
    234 H234       -1.4380  -24.5383  -51.8314 H         1 UNK         0.0600 
    235 H235       -3.3146  -23.3606  -55.3651 H         1 UNK         0.3000 
    236 H236       -3.0990  -22.3057  -57.2854 H         1 UNK         0.0600 
    237 H237       -3.2900  -24.5679  -58.3445 H         1 UNK         0.0600 
    238 H238       -2.3025  -23.4787  -59.3049 H         1 UNK         0.0600 
    239 H239       -1.5341  -24.7263  -58.3335 H         1 UNK         0.0600 
    240 H240       -1.4221  -21.6437  -55.2543 H         1 UNK         0.3000 
    241 H241        0.3150  -20.4519  -54.6100 H         1 UNK         0.0600 
    242 H242        2.4656  -23.6518  -55.2680 H         1 UNK         0.3800 
    243 H243        0.7626  -23.5485  -55.6214 H         1 UNK         0.3800 
    244 H244        1.7303  -19.1261  -56.1636 H         1 UNK         0.0800 
    245 H245        1.0671  -19.9662  -57.5282 H         1 UNK         0.0800 
    246 H246        1.2662  -16.8950  -55.9970 H         1 UNK         0.0800 
    247 H247       -0.2361  -16.0637  -56.2602 H         1 UNK         0.0800 
@<TRIPOS>BOND
     1    1    2 1    
     2    1  127 1    
     3    1  128 1    
     4    1  129 1    
     5    2    3 2    
     6    2    4 am   BACKBONE|DICT|INTERRES
     7    4    5 1    
     8    4  130 1    
     9    5    6 1    
    10    5   65 1    
    11    5  131 1    
    12    6    7 1    
    13    6  132 1    
    14    6  133 1    
    15    7    8 1    
    16    8    9 1    
    17    8  134 1    
    18    8  135 1    
    19    9   10 ar   
    20    9   14 ar   
    21   10   11 ar   
    22   10  136 1    
    23   11   12 ar   
    24   11  126 1    
    25   12   13 ar   
    26   12  137 1    
    27   13   14 ar   
    28   13   15 1    
    29   14  138 1    
    30   15   16 1    
    31   15  139 1    
    32   15  140 1    
    33   16   17 1    
    34   17   18 1    
    35   17  141 1    
    36   17  142 1    
    37   18   19 1    
    38   18   67 1    
    39   18  143 1    
    40   19   20 am   BACKBONE|DICT|INTERRES
    41   19  144 1    
    42   20   21 2    
    43   20   22 1    
    44   22   23 1    
    45   22   24 1    
    46   22  145 1    
    47   23  146 1    
    48   23  147 1    
    49   23  148 1    
    50   24   25 am   BACKBONE|DICT|INTERRES
    51   24  149 1    
    52   25   26 2    
    53   25   27 1    
    54   27   28 1    
    55   27   29 1    
    56   27  150 1    
    57   28  151 1    
    58   28  152 1    
    59   28  153 1    
    60   29   30 am   BACKBONE|DICT|INTERRES
    61   29  154 1    
    62   30   31 2    
    63   30   32 1    
    64   32   33 1    
    65   32   34 1    
    66   32  155 1    
    67   33  156 1    
    68   33  157 1    
    69   33  158 1    
    70   34   35 am   BACKBONE|DICT|INTERRES
    71   34  159 1    
    72   35   36 2    
    73   35   37 1    
    74   37   38 1    
    75   37   39 1    
    76   37  160 1    
    77   38  161 1    
    78   38  162 1    
    79   38  163 1    
    80   39   40 am   BACKBONE|DICT|INTERRES
    81   39  164 1    
    82   40   41 2    
    83   40   42 1    
    84   42   43 1    
    85   42   44 1    
    86   42  165 1    
    87   43  166 1    
    88   43  167 1    
    89   43  168 1    
    90   44   45 am   BACKBONE|DICT|INTERRES
    91   44  169 1    
    92   45   46 2    
    93   45   47 1    
    94   47   48 1    
    95   47   49 1    
    96   47  170 1    
    97   48  171 1    
    98   48  172 1    
    99   48  173 1    
   100   49   50 am   BACKBONE|DICT|INTERRES
   101   49  174 1    
   102   50   51 2    
   103   50   52 1    
   104   52   53 1    
   105   52   54 1    
   106   52  175 1    
   107   53  176 1    
   108   53  177 1    
   109   53  178 1    
   110   54   55 am   BACKBONE|DICT|INTERRES
   111   54  179 1    
   112   55   56 2    
   113   55   57 1    
   114   57   58 1    
   115   57   59 1    
   116   57  180 1    
   117   58  181 1    
   118   58  182 1    
   119   58  183 1    
   120   59   60 am   BACKBONE|DICT|INTERRES
   121   59  184 1    
   122   60   61 2    
   123   60   62 1    
   124   62   63 1    
   125   62   64 1    
   126   62  185 1    
   127   63  186 1    
   128   63  187 1    
   129   63  188 1    
   130   64   65 am   BACKBONE|DICT|INTERRES
   131   64  189 1    
   132   65   66 2    
   133   67   68 2    
   134   67   69 am   BACKBONE|DICT|INTERRES
   135   69   70 1    
   136   69  190 1    
   137   70   71 1    
   138   70   72 1    
   139   70  191 1    
   140   71  192 1    
   141   71  193 1    
   142   71  194 1    
   143   72   73 2    
   144   72   74 am   BACKBONE|DICT|INTERRES
   145   74   75 1    
   146   74  195 1    
   147   75   76 1    
   148   75   77 1    
   149   75  196 1    
   150   76  197 1    
   151   76  198 1    
   152   76  199 1    
   153   77   78 2    
   154   77   79 am   BACKBONE|DICT|INTERRES
   155   79   80 1    
   156   79  200 1    
   157   80   81 1    
   158   80   82 1    
   159   80  201 1    
   160   81  202 1    
   161   81  203 1    
   162   81  204 1    
   163   82   83 2    
   164   82   84 am   BACKBONE|DICT|INTERRES
   165   84   85 1    
   166   84  205 1    
   167   85   86 1    
   168   85   87 1    
   169   85  206 1    
   170   86  207 1    
   171   86  208 1    
   172   86  209 1    
   173   87   88 2    
   174   87   89 am   BACKBONE|DICT|INTERRES
   175   89   90 1    
   176   89  210 1    
   177   90   91 1    
   178   90   92 1    
   179   90  211 1    
   180   91  212 1    
   181   91  213 1    
   182   91  214 1    
   183   92   93 2    
   184   92   94 am   BACKBONE|DICT|INTERRES
   185   94   95 1    
   186   94  215 1    
   187   95   96 1    
   188   95   97 1    
   189   95  216 1    
   190   96  217 1    
   191   96  218 1    
   192   96  219 1    
   193   97   98 2    
   194   97   99 am   BACKBONE|DICT|INTERRES
   195   99  100 1    
   196   99  220 1    
   197  100  101 1    
   198  100  102 1    
   199  100  221 1    
   200  101  222 1    
   201  101  223 1    
   202  101  224 1    
   203  102  103 2    
   204  102  104 am   BACKBONE|DICT|INTERRES
   205  104  105 1    
   206  104  225 1    
   207  105  106 1    
   208  105  107 1    
   209  105  226 1    
   210  106  227 1    
   211  106  228 1    
   212  106  229 1    
   213  107  108 2    
   214  107  109 am   BACKBONE|DICT|INTERRES
   215  109  110 1    
   216  109  230 1    
   217  110  111 1    
   218  110  112 1    
   219  110  231 1    
   220  111  232 1    
   221  111  233 1    
   222  111  234 1    
   223  112  113 2    
   224  112  114 am   BACKBONE|DICT|INTERRES
   225  114  115 1    
   226  114  235 1    
   227  115  116 1    
   228  115  117 1    
   229  115  236 1    
   230  116  237 1    
   231  116  238 1    
   232  116  239 1    
   233  117  118 2    
   234  117  119 am   BACKBONE|DICT|INTERRES
   235  119  120 1    
   236  119  240 1    
   237  120  121 1    
   238  120  124 1    
   239  120  241 1    
   240  121  122 am   BACKBONE|DICT|INTERRES
   241  121  123 2    
   242  122  242 1    
   243  122  243 1    
   244  124  125 1    
   245  124  244 1    
   246  124  245 1    
   247  125  126 1    
   248  126  246 1    
   249  126  247 1    
@<TRIPOS>SUBSTRUCTURE
     1 UNK         1 GROUP             0       ****    0 ROOT    
