@<TRIPOS>MOLECULE
3R540
247   249    1
SMALL
USER_CHARGES


@<TRIPOS>ATOM
      1 CA         -2.7072  -13.1104  -53.1854 C.3       0 UNK        -0.1800 
      2 C          -1.6562  -13.1191  -52.0846 C.2       0 UNK         0.5000 
      3 O          -0.9692  -12.1158  -51.8914 O.2       0 UNK        -0.5000 
      4 N          -1.5307  -14.2374  -51.3587 N.am      1 UNK        -0.5000 
      5 CA         -0.7035  -14.3458  -50.1549 C.3       1 UNK         0.1400 
      6 C6         -0.3057  -15.8182  -49.8821 C.3       23 UNK        -0.0398 
      7 S7          0.9557  -16.0009  -48.5746 S.3       23 UNK        -0.2404 
      8 C8          2.5193  -15.8808  -49.5075 C.3       23 UNK        -0.0205 
      9 C9          2.8255  -17.1357  -50.3146 C.ar      23 UNK        -0.0193 
     10 C10         3.0320  -17.0600  -51.6955 C.ar      23 UNK        -0.1150 
     11 C11         3.3035  -18.2160  -52.4337 C.ar      23 UNK        -0.0193 
     12 C12         3.3769  -19.4481  -51.7792 C.ar      23 UNK        -0.1150 
     13 C13         3.1739  -19.5446  -50.4013 C.ar      23 UNK        -0.0193 
     14 C14         2.9182  -18.3747  -49.6736 C.ar      23 UNK        -0.1150 
     15 C15         3.2480  -20.9321  -49.7608 C.3       23 UNK        -0.0205 
     16 S16         2.6058  -21.0596  -48.0589 S.3       23 UNK        -0.2404 
     17 C17         0.8267  -20.7138  -48.2920 C.3       23 UNK        -0.0398 
     18 CA         -0.0857  -21.7297  -47.5559 C.3       11 UNK         0.1400 
     19 N           0.3117  -21.8977  -46.1468 N.am      11 UNK        -0.5000 
     20 C          -0.0125  -22.8920  -45.3092 C.2       10 UNK         0.5000 
     21 O          -0.7912  -23.8003  -45.6062 O.2       10 UNK        -0.5000 
     22 CA          0.5431  -22.8163  -43.8730 C.3       10 UNK         0.1400 
     23 CB          0.8476  -24.2050  -43.2781 C.3       10 UNK        -0.1800 
     24 N           1.6719  -21.8995  -43.7022 N.am      10 UNK        -0.5000 
     25 C           2.9224  -22.0150  -44.1714 C.2       9 UNK         0.5000 
     26 O           3.3113  -22.9491  -44.8721 O.2       9 UNK        -0.5000 
     27 CA          3.9070  -20.8916  -43.7866 C.3       9 UNK         0.1400 
     28 CB          4.3687  -20.1117  -45.0277 C.3       9 UNK        -0.1800 
     29 N           3.3251  -19.9496  -42.8252 N.am      9 UNK        -0.5000 
     30 C           3.3595  -20.1032  -41.4954 C.2       8 UNK         0.5000 
     31 O           3.9363  -21.0320  -40.9286 O.2       8 UNK        -0.5000 
     32 CA          2.6062  -19.0542  -40.6578 C.3       8 UNK         0.1400 
     33 CB          3.4098  -17.7469  -40.5817 C.3       8 UNK        -0.1800 
     34 N           1.2520  -18.7675  -41.1404 N.am      8 UNK        -0.5000 
     35 C           0.2360  -19.6439  -41.1577 C.2       7 UNK         0.5000 
     36 O           0.3506  -20.8299  -40.8512 O.2       7 UNK        -0.5000 
     37 CA         -1.1359  -19.1132  -41.6076 C.3       7 UNK         0.1400 
     38 CB         -1.7592  -18.2051  -40.5365 C.3       7 UNK        -0.1800 
     39 N          -1.0216  -18.3886  -42.8692 N.am      7 UNK        -0.5000 
     40 C          -1.0660  -18.9659  -44.0766 C.2       6 UNK         0.5000 
     41 O          -1.3813  -20.1432  -44.2510 O.2       6 UNK        -0.5000 
     42 CA         -0.6677  -18.1044  -45.2935 C.3       6 UNK         0.1400 
     43 CB         -1.8975  -17.6833  -46.1068 C.3       6 UNK        -0.1800 
     44 N           0.0964  -16.9079  -44.9449 N.am      6 UNK        -0.5000 
     45 C           1.3454  -16.9054  -44.4649 C.2       5 UNK         0.5000 
     46 O           1.9968  -17.9258  -44.2495 O.2       5 UNK        -0.5000 
     47 CA          1.9359  -15.5347  -44.0968 C.3       5 UNK         0.1400 
     48 CB          2.4449  -14.7965  -45.3437 C.3       5 UNK        -0.1800 
     49 N           0.9723  -14.6940  -43.3853 N.am      5 UNK        -0.5000 
     50 C           0.5066  -14.9483  -42.1547 C.2       4 UNK         0.5000 
     51 O           0.8434  -15.9248  -41.4860 O.2       4 UNK        -0.5000 
     52 CA         -0.5437  -13.9708  -41.5990 C.3       4 UNK         0.1400 
     53 CB          0.1211  -12.6773  -41.1043 C.3       4 UNK        -0.1800 
     54 N          -1.5705  -13.6453  -42.5887 N.am      4 UNK        -0.5000 
     55 C          -2.4893  -14.5143  -43.0333 C.2       3 UNK         0.5000 
     56 O          -2.6020  -15.6649  -42.6135 O.2       3 UNK        -0.5000 
     57 CA         -3.4185  -14.0273  -44.1612 C.3       3 UNK         0.1400 
     58 CB         -4.6651  -13.3470  -43.5758 C.3       3 UNK        -0.1800 
     59 N          -2.7766  -13.1207  -45.1195 N.am      3 UNK        -0.5000 
     60 C          -1.7121  -13.4351  -45.8688 C.2       2 UNK         0.5000 
     61 O          -1.0873  -14.4908  -45.7603 O.2       2 UNK        -0.5000 
     62 CA         -1.2382  -12.3783  -46.8807 C.3       2 UNK         0.1400 
     63 CB         -0.1387  -11.5037  -46.2586 C.3       2 UNK        -0.1800 
     64 N          -0.7190  -12.9987  -48.1000 N.am      2 UNK        -0.5000 
     65 C          -1.4571  -13.7004  -48.9705 C.2       1 UNK         0.5000 
     66 O          -2.6801  -13.8389  -48.8738 O.2       1 UNK        -0.5000 
     67 C          -1.5899  -21.3939  -47.7544 C.2       11 UNK         0.5000 
     68 O          -1.9475  -20.6903  -48.6995 O.2       11 UNK        -0.5000 
     69 N          -2.4389  -21.9131  -46.8658 N.am      12 UNK        -0.5000 
     70 CA         -3.8963  -21.8717  -46.8505 C.3       12 UNK         0.1400 
     71 CB         -4.4441  -20.4400  -46.7124 C.3       12 UNK        -0.1800 
     72 C          -4.3975  -22.7486  -45.6973 C.2       12 UNK         0.5000 
     73 O          -5.3763  -23.4733  -45.8743 O.2       12 UNK        -0.5000 
     74 N          -3.7055  -22.6859  -44.5468 N.am      13 UNK        -0.5000 
     75 CA         -4.0185  -23.4700  -43.3487 C.3       13 UNK         0.1400 
     76 CB         -3.1703  -22.9760  -42.1677 C.3       13 UNK        -0.1800 
     77 C          -3.8479  -24.9885  -43.5502 C.2       13 UNK         0.5000 
     78 O          -4.6712  -25.7550  -43.0484 O.2       13 UNK        -0.5000 
     79 N          -2.8109  -25.3922  -44.2983 N.am      14 UNK        -0.5000 
     80 CA         -2.6390  -26.7595  -44.7838 C.3       14 UNK         0.1400 
     81 CB         -1.1444  -27.1171  -44.8578 C.3       14 UNK        -0.1800 
     82 C          -3.3282  -26.8942  -46.1495 C.2       14 UNK         0.5000 
     83 O          -4.2782  -27.6674  -46.2778 O.2       14 UNK        -0.5000 
     84 N          -2.8643  -26.1068  -47.1275 N.am      15 UNK        -0.5000 
     85 CA         -3.4169  -26.0007  -48.4744 C.3       15 UNK         0.1400 
     86 CB         -3.1528  -27.2871  -49.2819 C.3       15 UNK        -0.1800 
     87 C          -2.7732  -24.7976  -49.1734 C.2       15 UNK         0.5000 
     88 O          -1.6038  -24.5046  -48.9178 O.2       15 UNK        -0.5000 
     89 N          -3.5355  -24.1477  -50.0567 N.am      16 UNK        -0.5000 
     90 CA         -3.0689  -23.0846  -50.9459 C.3       16 UNK         0.1400 
     91 CB         -4.0801  -21.9285  -50.9076 C.3       16 UNK        -0.1800 
     92 C          -2.9649  -23.6324  -52.3774 C.2       16 UNK         0.5000 
     93 O          -3.6690  -24.5871  -52.7197 O.2       16 UNK        -0.5000 
     94 N          -2.1162  -23.0059  -53.2011 N.am      17 UNK        -0.5000 
     95 CA         -1.9542  -23.3448  -54.6189 C.3       17 UNK         0.1400 
     96 CB         -0.6862  -22.6682  -55.1556 C.3       17 UNK        -0.1800 
     97 C          -3.1731  -22.9532  -55.4801 C.2       17 UNK         0.5000 
     98 O          -3.4528  -23.6201  -56.4774 O.2       17 UNK        -0.5000 
     99 N          -3.8759  -21.8920  -55.0743 N.am      18 UNK        -0.5000 
    100 CA        -5.0919  -21.3604  -55.6785 C.3       18 UNK         0.1400 
    101 CB        -4.7418  -20.5328  -56.9306 C.3       18 UNK        -0.1800 
    102 C         -5.8351  -20.5340  -54.6143 C.2       18 UNK         0.5000 
    103 O         -5.3837  -20.4664  -53.4690 O.2       18 UNK        -0.5000 
    104 N         -6.9719  -19.9336  -54.9903 N.am      19 UNK        -0.5000 
    105 CA        -7.7937  -19.0806  -54.1279 C.3       19 UNK         0.1400 
    106 CB        -9.1015  -18.7385  -54.8613 C.3       19 UNK        -0.1800 
    107 C         -7.0329  -17.8085  -53.7030 C.2       19 UNK         0.5000 
    108 O         -6.8998  -16.8828  -54.5059 O.2       19 UNK        -0.5000 
    109 N         -6.4973  -17.8224  -52.4736 N.am      20 UNK        -0.5000 
    110 CA        -5.6391  -16.8257  -51.8128 C.3       20 UNK         0.1400 
    111 CB        -6.3431  -15.4619  -51.6858 C.3       20 UNK        -0.1800 
    112 C         -4.2391  -16.6661  -52.4391 C.2       20 UNK         0.5000 
    113 O         -3.2582  -16.5339  -51.7032 O.2       20 UNK        -0.5000 
    114 N         -4.1629  -16.6747  -53.7748 N.am      21 UNK        -0.5000 
    115 CA        -2.9457  -16.6413  -54.5791 C.3       21 UNK         0.1400 
    116 CB        -3.3298  -16.5524  -56.0643 C.3       21 UNK        -0.1800 
    117 C         -2.0560  -17.8604  -54.2856 C.2       21 UNK         0.5000 
    118 O         -2.3493  -18.9640  -54.7476 O.2       21 UNK        -0.5000 
    119 N         -1.0086  -17.6277  -53.4881 N.am      22 UNK        -0.5000 
    120 CA        -0.0704  -18.6439  -52.9932 C.3       22 UNK         0.1400 
    121 C         -0.7290  -19.7084  -52.0671 C.2       22 UNK         0.5000 
    122 N         -1.6510  -19.2982  -51.2042 N.am      22 UNK        -0.7600 
    123 O         -0.3991  -20.8911  -52.1047 O.2       22 UNK        -0.5000 
    124 C124        0.8436  -19.2150  -54.1135 C.3       23 UNK        -0.0398 
    125 S125        1.9054  -17.9063  -54.8252 S.3       23 UNK        -0.2404 
    126 C126        3.4837  -18.1509  -53.9439 C.3       23 UNK        -0.0205 
    127 H127       -2.2386  -13.2655  -54.1570 H         1 UNK         0.0600 
    128 H128       -3.2222  -12.1499  -53.2057 H         1 UNK         0.0600 
    129 H129       -3.4580  -13.8839  -53.0315 H         1 UNK         0.0600 
    130 H130       -2.1777  -15.0084  -51.5064 H         1 UNK         0.3000 
    131 H131        0.2164  -13.7823  -50.3259 H         1 UNK         0.0600 
    132 H132        0.0810  -16.2735  -50.7935 H         1 UNK         0.0800 
    133 H133       -1.1810  -16.4074  -49.6022 H         1 UNK         0.0800 
    134 H134        3.3329  -15.7188  -48.7994 H         1 UNK         0.0800 
    135 H135        2.4908  -14.9983  -50.1482 H         1 UNK         0.0800 
    136 H136        2.9645  -16.1075  -52.2023 H         1 UNK         0.1150 
    137 H137        3.5780  -20.3442  -52.3498 H         1 UNK         0.1150 
    138 H138        2.7737  -18.4125  -48.6041 H         1 UNK         0.1150 
    139 H139        2.7109  -21.6492  -50.3839 H         1 UNK         0.0800 
    140 H140        4.2914  -21.2495  -49.7538 H         1 UNK         0.0800 
    141 H141        0.6048  -20.7198  -49.3608 H         1 UNK         0.0800 
    142 H142        0.6305  -19.6963  -47.9519 H         1 UNK         0.0800 
    143 H143        0.0688  -22.6966  -48.0367 H         1 UNK         0.0600 
    144 H144        0.9395  -21.1929  -45.7920 H         1 UNK         0.3000 
    145 H145       -0.2550  -22.3795  -43.2752 H         1 UNK         0.0600 
    146 H146        1.2550  -24.1219  -42.2705 H         1 UNK         0.0600 
    147 H147       -0.0591  -24.8056  -43.2083 H         1 UNK         0.0600 
    148 H148        1.5616  -24.7600  -43.8872 H         1 UNK         0.0600 
    149 H149        1.4840  -21.0982  -43.1162 H         1 UNK         0.3000 
    150 H150        4.7855  -21.3664  -43.3449 H         1 UNK         0.0600 
    151 H151        4.8624  -20.7707  -45.7429 H         1 UNK         0.0600 
    152 H152        5.0800  -19.3301  -44.7611 H         1 UNK         0.0600 
    153 H153        3.5317  -19.6403  -45.5427 H         1 UNK         0.0600 
    154 H154        2.8277  -19.1543  -43.2253 H         1 UNK         0.3000 
    155 H155        2.5147  -19.4499  -39.6442 H         1 UNK         0.0600 
    156 H156        4.4211  -17.9282  -40.2155 H         1 UNK         0.0600 
    157 H157        2.9408  -17.0358  -39.9014 H         1 UNK         0.0600 
    158 H158        3.4933  -17.2690  -41.5583 H         1 UNK         0.0600 
    159 H159        1.0682  -17.7987  -41.3887 H         1 UNK         0.3000 
    160 H160       -1.8005  -19.9693  -41.7386 H         1 UNK         0.0600 
    161 H161       -1.1648  -17.3081  -40.3630 H         1 UNK         0.0600 
    162 H162       -1.8491  -18.7296  -39.5846 H         1 UNK         0.0600 
    163 H163       -2.7603  -17.8875  -40.8286 H         1 UNK         0.0600 
    164 H164       -0.8031  -17.4035  -42.8129 H         1 UNK         0.3000 
    165 H165       -0.0349  -18.7223  -45.9315 H         1 UNK         0.0600 
    166 H166       -1.6189  -17.0431  -46.9443 H         1 UNK         0.0600 
    167 H167       -2.3953  -18.5542  -46.5268 H         1 UNK         0.0600 
    168 H168       -2.6196  -17.1411  -45.4953 H         1 UNK         0.0600 
    169 H169       -0.3545  -16.0132  -45.1325 H         1 UNK         0.3000 
    170 H170        2.7879  -15.7082  -43.4363 H         1 UNK         0.0600 
    171 H171        3.1492  -15.4135  -45.9033 H         1 UNK         0.0600 
    172 H172        1.6301  -14.5359  -46.0191 H         1 UNK         0.0600 
    173 H173        2.9615  -13.8757  -45.0728 H         1 UNK         0.0600 
    174 H174        0.5906  -13.9124  -43.8961 H         1 UNK         0.3000 
    175 H175       -1.0285  -14.4513  -40.7464 H         1 UNK         0.0600 
    176 H176        0.8858  -12.8937  -40.3570 H         1 UNK         0.0600 
    177 H177        0.6014  -12.1310  -41.9171 H         1 UNK         0.0600 
    178 H178       -0.6077  -12.0136  -40.6388 H         1 UNK         0.0600 
    179 H179       -1.5519  -12.7181  -42.9864 H         1 UNK         0.3000 
    180 H180       -3.7428  -14.9103  -44.7157 H         1 UNK         0.0600 
    181 H181       -4.4106  -12.4316  -43.0402 H         1 UNK         0.0600 
    182 H182       -5.1768  -14.0068  -42.8737 H         1 UNK         0.0600 
    183 H183       -5.3799  -13.0916  -44.3583 H         1 UNK         0.0600 
    184 H184       -3.2231  -12.2252  -45.2552 H         1 UNK         0.3000 
    185 H185       -2.0834  -11.7429  -47.1533 H         1 UNK         0.0600 
    186 H186       -0.4970  -11.0055  -45.3568 H         1 UNK         0.0600 
    187 H187        0.7375  -12.0918  -45.9828 H         1 UNK         0.0600 
    188 H188        0.1845  -10.7256  -46.9504 H         1 UNK         0.0600 
    189 H189        0.2817  -12.9664  -48.2247 H         1 UNK         0.3000 
    190 H190       -2.0210  -22.5493  -46.1939 H         1 UNK         0.3000 
    191 H191       -4.2594  -22.3092  -47.7803 H         1 UNK         0.0600 
    192 H192       -4.0854  -19.9612  -45.8008 H         1 UNK         0.0600 
    193 H193       -5.5338  -20.4460  -46.6693 H         1 UNK         0.0600 
    194 H194       -4.1646  -19.8166  -47.5612 H         1 UNK         0.0600 
    195 H195       -2.9561  -22.0105  -44.4671 H         1 UNK         0.3000 
    196 H196       -5.0673  -23.2863  -43.1057 H         1 UNK         0.0600 
    197 H197       -3.4777  -23.4634  -41.2417 H         1 UNK         0.0600 
    198 H198       -3.2811  -21.9018  -42.0207 H         1 UNK         0.0600 
    199 H199       -2.1130  -23.1932  -42.3094 H         1 UNK         0.0600 
    200 H200       -2.1806  -24.6997  -44.6907 H         1 UNK         0.3000 
    201 H201       -3.1101  -27.4649  -44.0957 H         1 UNK         0.0600 
    202 H202       -0.6870  -27.0887  -43.8690 H         1 UNK         0.0600 
    203 H203       -0.5857  -26.4391  -45.5030 H         1 UNK         0.0600 
    204 H204       -1.0067  -28.1262  -45.2479 H         1 UNK         0.0600 
    205 H205       -2.0775  -25.4917  -46.9512 H         1 UNK         0.3000 
    206 H206       -4.4927  -25.8293  -48.3963 H         1 UNK         0.0600 
    207 H207       -3.6664  -28.1468  -48.8523 H         1 UNK         0.0600 
    208 H208       -3.5071  -27.1839  -50.3085 H         1 UNK         0.0600 
    209 H209       -2.0881  -27.5198  -49.3243 H         1 UNK         0.0600 
    210 H210       -4.4559  -24.5080  -50.2665 H         1 UNK         0.3000 
    211 H211       -2.0900  -22.7134  -50.6352 H         1 UNK         0.0600 
    212 H212       -3.7485  -21.1072  -51.5422 H         1 UNK         0.0600 
    213 H213       -4.1965  -21.5242  -49.9045 H         1 UNK         0.0600 
    214 H214       -5.0649  -22.2382  -51.2595 H         1 UNK         0.0600 
    215 H215       -1.5528  -22.2361  -52.8458 H         1 UNK         0.3000 
    216 H216       -1.8220  -24.4259  -54.6977 H         1 UNK         0.0600 
    217 H217        0.1877  -22.9199  -54.5544 H         1 UNK         0.0600 
    218 H218       -0.7963  -21.5852  -55.1576 H         1 UNK         0.0600 
    219 H219       -0.4814  -22.9790  -56.1807 H         1 UNK         0.0600 
    220 H220       -3.6017  -21.4099  -54.2263 H         1 UNK         0.3000 
    221 H221       -5.7407  -22.1917  -55.9610 H         1 UNK         0.0600 
    222 H222       -4.0824  -19.7011  -56.6857 H         1 UNK         0.0600 
    223 H223       -4.2374  -21.1436  -57.6794 H         1 UNK         0.0600 
    224 H224       -5.6332  -20.1209  -57.4040 H         1 UNK         0.0600 
    225 H225       -7.2761  -20.0208  -55.9488 H         1 UNK         0.3000 
    226 H226       -8.0528  -19.6492  -53.2322 H         1 UNK         0.0600 
    227 H227       -9.6741  -19.6384  -55.0868 H         1 UNK         0.0600 
    228 H228       -9.7350  -18.0961  -54.2483 H         1 UNK         0.0600 
    229 H229       -8.9151  -18.2158  -55.8003 H         1 UNK         0.0600 
    230 H230       -6.5979  -18.6837  -51.9536 H         1 UNK         0.3000 
    231 H231       -5.4791  -17.2041  -50.8019 H         1 UNK         0.0600 
    232 H232       -7.3056  -15.5601  -51.1840 H         1 UNK         0.0600 
    233 H233       -6.5159  -14.9976  -52.6571 H         1 UNK         0.0600 
    234 H234       -5.7393  -14.7684  -51.0987 H         1 UNK         0.0600 
    235 H235       -5.0389  -16.7720  -54.2799 H         1 UNK         0.3000 
    236 H236       -2.3903  -15.7380  -54.3250 H         1 UNK         0.0600 
    237 H237       -2.4445  -16.5823  -56.7006 H         1 UNK         0.0600 
    238 H238       -3.9802  -17.3745  -56.3629 H         1 UNK         0.0600 
    239 H239       -3.8540  -15.6208  -56.2780 H         1 UNK         0.0600 
    240 H240       -0.8638  -16.6929  -53.1392 H         1 UNK         0.3000 
    241 H241        0.5780  -18.1087  -52.3038 H         1 UNK         0.0600 
    242 H242       -1.9864  -18.3458  -51.2189 H         1 UNK         0.3800 
    243 H243       -1.9905  -19.9374  -50.4928 H         1 UNK         0.3800 
    244 H244        1.4683  -20.0300  -53.7474 H         1 UNK         0.0800 
    245 H245        0.2450  -19.6349  -54.9195 H         1 UNK         0.0800 
    246 H246        3.9586  -19.0608  -54.3141 H         1 UNK         0.0800 
    247 H247        4.1599  -17.3321  -54.1934 H         1 UNK         0.0800 
@<TRIPOS>BOND
     1    1    2 1    
     2    1  127 1    
     3    1  128 1    
     4    1  129 1    
     5    2    3 2    
     6    2    4 am   BACKBONE|DICT|INTERRES
     7    4    5 1    
     8    4  130 1    
     9    5    6 1    
    10    5   65 1    
    11    5  131 1    
    12    6    7 1    
    13    6  132 1    
    14    6  133 1    
    15    7    8 1    
    16    8    9 1    
    17    8  134 1    
    18    8  135 1    
    19    9   10 ar   
    20    9   14 ar   
    21   10   11 ar   
    22   10  136 1    
    23   11   12 ar   
    24   11  126 1    
    25   12   13 ar   
    26   12  137 1    
    27   13   14 ar   
    28   13   15 1    
    29   14  138 1    
    30   15   16 1    
    31   15  139 1    
    32   15  140 1    
    33   16   17 1    
    34   17   18 1    
    35   17  141 1    
    36   17  142 1    
    37   18   19 1    
    38   18   67 1    
    39   18  143 1    
    40   19   20 am   BACKBONE|DICT|INTERRES
    41   19  144 1    
    42   20   21 2    
    43   20   22 1    
    44   22   23 1    
    45   22   24 1    
    46   22  145 1    
    47   23  146 1    
    48   23  147 1    
    49   23  148 1    
    50   24   25 am   BACKBONE|DICT|INTERRES
    51   24  149 1    
    52   25   26 2    
    53   25   27 1    
    54   27   28 1    
    55   27   29 1    
    56   27  150 1    
    57   28  151 1    
    58   28  152 1    
    59   28  153 1    
    60   29   30 am   BACKBONE|DICT|INTERRES
    61   29  154 1    
    62   30   31 2    
    63   30   32 1    
    64   32   33 1    
    65   32   34 1    
    66   32  155 1    
    67   33  156 1    
    68   33  157 1    
    69   33  158 1    
    70   34   35 am   BACKBONE|DICT|INTERRES
    71   34  159 1    
    72   35   36 2    
    73   35   37 1    
    74   37   38 1    
    75   37   39 1    
    76   37  160 1    
    77   38  161 1    
    78   38  162 1    
    79   38  163 1    
    80   39   40 am   BACKBONE|DICT|INTERRES
    81   39  164 1    
    82   40   41 2    
    83   40   42 1    
    84   42   43 1    
    85   42   44 1    
    86   42  165 1    
    87   43  166 1    
    88   43  167 1    
    89   43  168 1    
    90   44   45 am   BACKBONE|DICT|INTERRES
    91   44  169 1    
    92   45   46 2    
    93   45   47 1    
    94   47   48 1    
    95   47   49 1    
    96   47  170 1    
    97   48  171 1    
    98   48  172 1    
    99   48  173 1    
   100   49   50 am   BACKBONE|DICT|INTERRES
   101   49  174 1    
   102   50   51 2    
   103   50   52 1    
   104   52   53 1    
   105   52   54 1    
   106   52  175 1    
   107   53  176 1    
   108   53  177 1    
   109   53  178 1    
   110   54   55 am   BACKBONE|DICT|INTERRES
   111   54  179 1    
   112   55   56 2    
   113   55   57 1    
   114   57   58 1    
   115   57   59 1    
   116   57  180 1    
   117   58  181 1    
   118   58  182 1    
   119   58  183 1    
   120   59   60 am   BACKBONE|DICT|INTERRES
   121   59  184 1    
   122   60   61 2    
   123   60   62 1    
   124   62   63 1    
   125   62   64 1    
   126   62  185 1    
   127   63  186 1    
   128   63  187 1    
   129   63  188 1    
   130   64   65 am   BACKBONE|DICT|INTERRES
   131   64  189 1    
   132   65   66 2    
   133   67   68 2    
   134   67   69 am   BACKBONE|DICT|INTERRES
   135   69   70 1    
   136   69  190 1    
   137   70   71 1    
   138   70   72 1    
   139   70  191 1    
   140   71  192 1    
   141   71  193 1    
   142   71  194 1    
   143   72   73 2    
   144   72   74 am   BACKBONE|DICT|INTERRES
   145   74   75 1    
   146   74  195 1    
   147   75   76 1    
   148   75   77 1    
   149   75  196 1    
   150   76  197 1    
   151   76  198 1    
   152   76  199 1    
   153   77   78 2    
   154   77   79 am   BACKBONE|DICT|INTERRES
   155   79   80 1    
   156   79  200 1    
   157   80   81 1    
   158   80   82 1    
   159   80  201 1    
   160   81  202 1    
   161   81  203 1    
   162   81  204 1    
   163   82   83 2    
   164   82   84 am   BACKBONE|DICT|INTERRES
   165   84   85 1    
   166   84  205 1    
   167   85   86 1    
   168   85   87 1    
   169   85  206 1    
   170   86  207 1    
   171   86  208 1    
   172   86  209 1    
   173   87   88 2    
   174   87   89 am   BACKBONE|DICT|INTERRES
   175   89   90 1    
   176   89  210 1    
   177   90   91 1    
   178   90   92 1    
   179   90  211 1    
   180   91  212 1    
   181   91  213 1    
   182   91  214 1    
   183   92   93 2    
   184   92   94 am   BACKBONE|DICT|INTERRES
   185   94   95 1    
   186   94  215 1    
   187   95   96 1    
   188   95   97 1    
   189   95  216 1    
   190   96  217 1    
   191   96  218 1    
   192   96  219 1    
   193   97   98 2    
   194   97   99 am   BACKBONE|DICT|INTERRES
   195   99  100 1    
   196   99  220 1    
   197  100  101 1    
   198  100  102 1    
   199  100  221 1    
   200  101  222 1    
   201  101  223 1    
   202  101  224 1    
   203  102  103 2    
   204  102  104 am   BACKBONE|DICT|INTERRES
   205  104  105 1    
   206  104  225 1    
   207  105  106 1    
   208  105  107 1    
   209  105  226 1    
   210  106  227 1    
   211  106  228 1    
   212  106  229 1    
   213  107  108 2    
   214  107  109 am   BACKBONE|DICT|INTERRES
   215  109  110 1    
   216  109  230 1    
   217  110  111 1    
   218  110  112 1    
   219  110  231 1    
   220  111  232 1    
   221  111  233 1    
   222  111  234 1    
   223  112  113 2    
   224  112  114 am   BACKBONE|DICT|INTERRES
   225  114  115 1    
   226  114  235 1    
   227  115  116 1    
   228  115  117 1    
   229  115  236 1    
   230  116  237 1    
   231  116  238 1    
   232  116  239 1    
   233  117  118 2    
   234  117  119 am   BACKBONE|DICT|INTERRES
   235  119  120 1    
   236  119  240 1    
   237  120  121 1    
   238  120  124 1    
   239  120  241 1    
   240  121  122 am   BACKBONE|DICT|INTERRES
   241  121  123 2    
   242  122  242 1    
   243  122  243 1    
   244  124  125 1    
   245  124  244 1    
   246  124  245 1    
   247  125  126 1    
   248  126  246 1    
   249  126  247 1    
@<TRIPOS>SUBSTRUCTURE
     1 UNK         1 GROUP             0       ****    0 ROOT    
