@<TRIPOS>MOLECULE
3R540
247   249    1
SMALL
USER_CHARGES


@<TRIPOS>ATOM
      1 CA         -2.8360  -10.7966  -46.5967 C.3       0 UNK        -0.1800 
      2 C          -1.9312  -11.9227  -46.1204 C.2       0 UNK         0.5000 
      3 O          -1.2315  -11.7662  -45.1203 O.2       0 UNK        -0.5000 
      4 N          -1.9524  -13.0673  -46.8153 N.am      1 UNK        -0.5000 
      5 CA         -1.1165  -14.2444  -46.5311 C.3       1 UNK         0.1400 
      6 C6         -1.2258  -15.3304  -47.6318 C.3       23 UNK        -0.0398 
      7 S7         -0.8803  -14.6508  -49.2909 S.3       23 UNK        -0.2404 
      8 C8          0.7630  -15.3384  -49.6752 C.3       23 UNK        -0.0205 
      9 C9          0.6852  -16.6579  -50.4338 C.ar      23 UNK        -0.0193 
     10 C10        -0.0176  -16.7318  -51.6432 C.ar      23 UNK        -0.1150 
     11 C11        -0.0578  -17.9219  -52.3740 C.ar      23 UNK        -0.0193 
     12 C12         0.6279  -19.0396  -51.8923 C.ar      23 UNK        -0.1150 
     13 C13         1.3463  -18.9790  -50.6971 C.ar      23 UNK        -0.0193 
     14 C14         1.3626  -17.7886  -49.9627 C.ar      23 UNK        -0.1150 
     15 C15         2.1315  -20.1977  -50.2396 C.3       23 UNK        -0.0205 
     16 S16         1.0525  -21.4474  -49.4804 S.3       23 UNK        -0.2404 
     17 C17         1.0298  -20.8506  -47.7630 C.3       23 UNK        -0.0398 
     18 CA          0.0911  -21.6851  -46.8607 C.3       11 UNK         0.1400 
     19 N           0.5330  -21.6878  -45.4650 N.am      11 UNK        -0.5000 
     20 C           0.0222  -22.4648  -44.4997 C.2       10 UNK         0.5000 
     21 O          -0.8491  -23.3121  -44.6942 O.2       10 UNK        -0.5000 
     22 CA          0.5315  -22.2118  -43.0676 C.3       10 UNK         0.1400 
     23 CB          1.8796  -22.9073  -42.8291 C.3       10 UNK        -0.1800 
     24 N           0.6524  -20.7844  -42.7661 N.am      10 UNK        -0.5000 
     25 C          -0.3808  -19.9299  -42.7411 C.2       9 UNK         0.5000 
     26 O          -1.5531  -20.2694  -42.8958 O.2       9 UNK        -0.5000 
     27 CA         -0.0443  -18.4411  -42.5664 C.3       9 UNK         0.1400 
     28 CB          0.1174  -18.0940  -41.0790 C.3       9 UNK        -0.1800 
     29 N           1.1537  -18.0574  -43.3130 N.am      9 UNK        -0.5000 
     30 C           1.2337  -18.0404  -44.6521 C.2       8 UNK         0.5000 
     31 O           0.3043  -18.3427  -45.4014 O.2       8 UNK        -0.5000 
     32 CA          2.6056  -17.6977  -45.2584 C.3       8 UNK         0.1400 
     33 CB          2.8463  -16.1837  -45.2683 C.3       8 UNK        -0.1800 
     34 N           3.7006  -18.3677  -44.5574 N.am      8 UNK        -0.5000 
     35 C           3.8847  -19.6953  -44.5690 C.2       7 UNK         0.5000 
     36 O           3.1671  -20.4755  -45.1920 O.2       7 UNK        -0.5000 
     37 CA          5.0322  -20.2596  -43.7152 C.3       7 UNK         0.1400 
     38 CB          6.3279  -20.3309  -44.5364 C.3       7 UNK        -0.1800 
     39 N           5.2834  -19.5116  -42.4839 N.am      7 UNK        -0.5000 
     40 C           4.3976  -19.3016  -41.5005 C.2       6 UNK         0.5000 
     41 O           3.2238  -19.6743  -41.5466 O.2       6 UNK        -0.5000 
     42 CA          4.9101  -18.5687  -40.2441 C.3       6 UNK         0.1400 
     43 CB          6.4490  -18.4365  -40.1784 C.3       6 UNK        -0.1800 
     44 N           4.2972  -17.2534  -40.0410 N.am      6 UNK        -0.5000 
     45 C           4.2593  -16.2197  -40.8945 C.2       5 UNK         0.5000 
     46 O           4.6111  -16.2714  -42.0762 O.2       5 UNK        -0.5000 
     47 CA          3.8327  -14.8811  -40.2612 C.3       5 UNK         0.1400 
     48 CB          5.0059  -14.2705  -39.4766 C.3       5 UNK        -0.1800 
     49 N           3.3652  -13.8884  -41.2274 N.am      5 UNK        -0.5000 
     50 C           2.1646  -13.9146  -41.8133 C.2       4 UNK         0.5000 
     51 O           1.3662  -14.8430  -41.6846 O.2       4 UNK        -0.5000 
     52 CA          1.7893  -12.6771  -42.6548 C.3       4 UNK         0.1400 
     53 CB          2.2095  -12.8443  -44.1218 C.3       4 UNK        -0.1800 
     54 N           0.3544  -12.4025  -42.6023 N.am      4 UNK        -0.5000 
     55 C          -0.3172  -12.0155  -41.5089 C.2       3 UNK         0.5000 
     56 O           0.2238  -11.7172  -40.4429 O.2       3 UNK        -0.5000 
     57 CA         -1.8516  -11.9631  -41.6182 C.3       3 UNK         0.1400 
     58 CB         -2.3228  -10.5677  -42.0575 C.3       3 UNK        -0.1800 
     59 N          -2.3643  -12.9684  -42.5508 N.am      3 UNK        -0.5000 
     60 C          -2.6096  -14.2459  -42.2235 C.2       2 UNK         0.5000 
     61 O          -2.4942  -14.6911  -41.0812 O.2       2 UNK        -0.5000 
     62 CA         -3.0849  -15.1872  -43.3494 C.3       2 UNK         0.1400 
     63 CB         -4.6163  -15.3097  -43.3323 C.3       2 UNK        -0.1800 
     64 N          -2.6586  -14.7623  -44.6838 N.am      2 UNK        -0.5000 
     65 C          -1.3993  -14.8434  -45.1374 C.2       1 UNK         0.5000 
     66 O          -0.4739  -15.3197  -44.4879 O.2       1 UNK        -0.5000 
     67 C          -1.3756  -21.2302  -46.9962 C.2       11 UNK         0.5000 
     68 O          -2.1475  -21.8813  -47.6993 O.2       11 UNK        -0.5000 
     69 N          -1.7452  -20.1548  -46.2854 N.am      12 UNK        -0.5000 
     70 CA         -3.1071  -19.6239  -46.2256 C.3       12 UNK         0.1400 
     71 CB         -3.1078  -18.2851  -45.4760 C.3       12 UNK        -0.1800 
     72 C          -4.1071  -20.6089  -45.5933 C.2       12 UNK         0.5000 
     73 O          -5.2115  -20.7611  -46.1144 O.2       12 UNK        -0.5000 
     74 N          -3.6927  -21.3019  -44.5228 N.am      13 UNK        -0.5000 
     75 CA         -4.4598  -22.3681  -43.8705 C.3       13 UNK         0.1400 
     76 CB         -3.7594  -22.7811  -42.5675 C.3       13 UNK        -0.1800 
     77 C          -4.6855  -23.5915  -44.7819 C.2       13 UNK         0.5000 
     78 O          -5.7465  -24.2125  -44.7166 O.2       13 UNK        -0.5000 
     79 N          -3.7054  -23.8829  -45.6469 N.am      14 UNK        -0.5000 
     80 CA         -3.7761  -24.8947  -46.7034 C.3       14 UNK         0.1400 
     81 CB         -2.3474  -25.3675  -47.0214 C.3       14 UNK        -0.1800 
     82 C          -4.4856  -24.3946  -47.9824 C.2       14 UNK         0.5000 
     83 O          -4.5458  -25.1397  -48.9623 O.2       14 UNK        -0.5000 
     84 N          -4.9703  -23.1417  -47.9767 N.am      15 UNK        -0.5000 
     85 CA         -5.6369  -22.4225  -49.0698 C.3       15 UNK         0.1400 
     86 CB         -7.0149  -23.0514  -49.3621 C.3       15 UNK        -0.1800 
     87 C          -4.7734  -22.2818  -50.3417 C.2       15 UNK         0.5000 
     88 O          -5.3225  -22.1574  -51.4362 O.2       15 UNK        -0.5000 
     89 N          -3.4417  -22.3353  -50.1762 N.am      16 UNK        -0.5000 
     90 CA         -2.4105  -22.3959  -51.2171 C.3       16 UNK         0.1400 
     91 CB         -2.2975  -21.0394  -51.9360 C.3       16 UNK        -0.1800 
     92 C          -2.6066  -23.5732  -52.1982 C.2       16 UNK         0.5000 
     93 O          -2.3185  -23.4336  -53.3895 O.2       16 UNK        -0.5000 
     94 N          -3.1490  -24.6913  -51.6872 N.am      17 UNK        -0.5000 
     95 CA         -3.7056  -25.8514  -52.3965 C.3       17 UNK         0.1400 
     96 CB         -2.6881  -26.5137  -53.3466 C.3       17 UNK        -0.1800 
     97 C          -5.0289  -25.5051  -53.1068 C.2       17 UNK         0.5000 
     98 O          -6.0518  -26.1353  -52.8356 O.2       17 UNK        -0.5000 
     99 N          -4.9934  -24.4752  -53.9541 N.am      18 UNK        -0.5000 
    100 CA        -6.1387  -23.7643  -54.4976 C.3       18 UNK         0.1400 
    101 CB        -6.6415  -24.4470  -55.7802 C.3       18 UNK        -0.1800 
    102 C         -5.6639  -22.3340  -54.7693 C.2       18 UNK         0.5000 
    103 O         -4.6081  -22.1598  -55.3818 O.2       18 UNK        -0.5000 
    104 N         -6.4358  -21.3343  -54.3277 N.am      19 UNK        -0.5000 
    105 CA        -6.0637  -19.9162  -54.3886 C.3       19 UNK         0.1400 
    106 CB        -7.1003  -19.0901  -53.6129 C.3       19 UNK        -0.1800 
    107 C         -5.8954  -19.3744  -55.8213 C.2       19 UNK         0.5000 
    108 O         -5.0834  -18.4753  -56.0405 O.2       19 UNK        -0.5000 
    109 N         -6.6456  -19.9515  -56.7697 N.am      20 UNK        -0.5000 
    110 CA        -6.5515  -19.6564  -58.1992 C.3       20 UNK         0.1400 
    111 CB        -7.8212  -20.1684  -58.8968 C.3       20 UNK        -0.1800 
    112 C         -5.2955  -20.2605  -58.8583 C.2       20 UNK         0.5000 
    113 O         -4.8325  -19.7263  -59.8669 O.2       20 UNK        -0.5000 
    114 N         -4.7736  -21.3579  -58.2923 N.am      21 UNK        -0.5000 
    115 CA        -3.5603  -22.0279  -58.7571 C.3       21 UNK         0.1400 
    116 CB        -3.6482  -23.5313  -58.4465 C.3       21 UNK        -0.1800 
    117 C         -2.3087  -21.4104  -58.1144 C.2       21 UNK         0.5000 
    118 O         -1.3392  -21.1411  -58.8239 O.2       21 UNK        -0.5000 
    119 N         -2.3698  -21.1867  -56.7937 N.am      22 UNK        -0.5000 
    120 CA        -1.2892  -20.6873  -55.9345 C.3       22 UNK         0.1400 
    121 C         -0.0832  -21.6719  -55.9012 C.2       22 UNK         0.5000 
    122 N         -0.1969  -22.7707  -55.1662 N.am      22 UNK        -0.7600 
    123 O          0.9452  -21.4622  -56.5400 O.2       22 UNK        -0.5000 
    124 C124       -0.9255  -19.2064  -56.2480 C.3       23 UNK        -0.0398 
    125 S125        0.2509  -18.4559  -55.0697 S.3       23 UNK        -0.2404 
    126 C126       -0.8374  -18.0113  -53.6795 C.3       23 UNK        -0.0205 
    127 H127       -3.4113  -11.0836  -47.4772 H         1 UNK         0.0600 
    128 H128       -2.2397   -9.9200  -46.8496 H         1 UNK         0.0600 
    129 H129       -3.5348  -10.5188  -45.8077 H         1 UNK         0.0600 
    130 H130       -2.5324  -13.1358  -47.6398 H         1 UNK         0.3000 
    131 H131       -0.0808  -13.8977  -46.5159 H         1 UNK         0.0600 
    132 H132       -2.2301  -15.7568  -47.6503 H         1 UNK         0.0800 
    133 H133       -0.5472  -16.1612  -47.4264 H         1 UNK         0.0800 
    134 H134        1.3472  -15.4386  -48.7590 H         1 UNK         0.0800 
    135 H135        1.2983  -14.6204  -50.2978 H         1 UNK         0.0800 
    136 H136       -0.5324  -15.8568  -52.0148 H         1 UNK         0.1150 
    137 H137        0.6184  -19.9591  -52.4603 H         1 UNK         0.1150 
    138 H138        1.9239  -17.7357  -49.0405 H         1 UNK         0.1150 
    139 H139        2.6299  -20.6455  -51.1007 H         1 UNK         0.0800 
    140 H140        2.9255  -19.9131  -49.5474 H         1 UNK         0.0800 
    141 H141        0.7829  -19.7876  -47.7357 H         1 UNK         0.0800 
    142 H142        2.0565  -20.9309  -47.4087 H         1 UNK         0.0800 
    143 H143        0.1378  -22.7258  -47.1895 H         1 UNK         0.0600 
    144 H144        1.2901  -21.0532  -45.2304 H         1 UNK         0.3000 
    145 H145       -0.1974  -22.6373  -42.3747 H         1 UNK         0.0600 
    146 H146        2.2318  -22.7476  -41.8098 H         1 UNK         0.0600 
    147 H147        1.7926  -23.9839  -42.9799 H         1 UNK         0.0600 
    148 H148        2.6485  -22.5435  -43.5099 H         1 UNK         0.0600 
    149 H149        1.5828  -20.4229  -42.5843 H         1 UNK         0.3000 
    150 H150       -0.8816  -17.8617  -42.9593 H         1 UNK         0.0600 
    151 H151       -0.7582  -18.4076  -40.5092 H         1 UNK         0.0600 
    152 H152        0.2223  -17.0202  -40.9342 H         1 UNK         0.0600 
    153 H153        0.9871  -18.5801  -40.6374 H         1 UNK         0.0600 
    154 H154        1.9760  -17.8345  -42.7711 H         1 UNK         0.3000 
    155 H155        2.6057  -18.0438  -46.2944 H         1 UNK         0.0600 
    156 H156        2.8579  -15.7762  -44.2571 H         1 UNK         0.0600 
    157 H157        2.0592  -15.6725  -45.8238 H         1 UNK         0.0600 
    158 H158        3.7955  -15.9349  -45.7428 H         1 UNK         0.0600 
    159 H159        4.3010  -17.7931  -43.9799 H         1 UNK         0.3000 
    160 H160        4.7561  -21.2757  -43.4277 H         1 UNK         0.0600 
    161 H161        6.6780  -19.3383  -44.8227 H         1 UNK         0.0600 
    162 H162        6.1784  -20.9035  -45.4529 H         1 UNK         0.0600 
    163 H163        7.1247  -20.8204  -43.9761 H         1 UNK         0.0600 
    164 H164        6.2179  -19.1495  -42.3632 H         1 UNK         0.3000 
    165 H165        4.6011  -19.1842  -39.3980 H         1 UNK         0.0600 
    166 H166        6.8417  -17.7913  -40.9653 H         1 UNK         0.0600 
    167 H167        6.7600  -18.0115  -39.2239 H         1 UNK         0.0600 
    168 H168        6.9356  -19.4091  -40.2647 H         1 UNK         0.0600 
    169 H169        3.9444  -17.0988  -39.1072 H         1 UNK         0.3000 
    170 H170        3.0189  -15.0810  -39.5604 H         1 UNK         0.0600 
    171 H171        5.8491  -14.0406  -40.1294 H         1 UNK         0.0600 
    172 H172        4.7089  -13.3493  -38.9747 H         1 UNK         0.0600 
    173 H173        5.3663  -14.9536  -38.7063 H         1 UNK         0.0600 
    174 H174        3.9896  -13.1179  -41.4146 H         1 UNK         0.3000 
    175 H175        2.3117  -11.8104  -42.2446 H         1 UNK         0.0600 
    176 H176        3.2677  -13.0948  -44.2050 H         1 UNK         0.0600 
    177 H177        2.0451  -11.9251  -44.6844 H         1 UNK         0.0600 
    178 H178        1.6415  -13.6351  -44.6091 H         1 UNK         0.0600 
    179 H179       -0.1739  -12.5999  -43.4427 H         1 UNK         0.3000 
    180 H180       -2.2623  -12.1540  -40.6244 H         1 UNK         0.0600 
    181 H181       -3.4103  -10.5180  -42.1133 H         1 UNK         0.0600 
    182 H182       -1.9235  -10.2906  -43.0331 H         1 UNK         0.0600 
    183 H183       -1.9990   -9.8076  -41.3455 H         1 UNK         0.0600 
    184 H184       -2.4290  -12.6890  -43.5205 H         1 UNK         0.3000 
    185 H185       -2.6621  -16.1741  -43.1514 H         1 UNK         0.0600 
    186 H186       -4.9665  -16.0214  -44.0794 H         1 UNK         0.0600 
    187 H187       -4.9687  -15.6611  -42.3615 H         1 UNK         0.0600 
    188 H188       -5.0987  -14.3514  -43.5290 H         1 UNK         0.0600 
    189 H189       -3.3592  -14.3381  -45.2741 H         1 UNK         0.3000 
    190 H190       -1.0344  -19.6406  -45.7710 H         1 UNK         0.3000 
    191 H191       -3.4300  -19.4366  -47.2519 H         1 UNK         0.0600 
    192 H192       -4.0975  -17.8285  -45.4968 H         1 UNK         0.0600 
    193 H193       -2.4130  -17.5814  -45.9318 H         1 UNK         0.0600 
    194 H194       -2.8219  -18.4056  -44.4314 H         1 UNK         0.0600 
    195 H195       -2.7927  -21.0710  -44.1094 H         1 UNK         0.3000 
    196 H196       -5.4408  -21.9627  -43.6145 H         1 UNK         0.0600 
    197 H197       -2.7604  -23.1750  -42.7543 H         1 UNK         0.0600 
    198 H198       -3.6629  -21.9349  -41.8869 H         1 UNK         0.0600 
    199 H199       -4.3259  -23.5544  -42.0472 H         1 UNK         0.0600 
    200 H200       -2.8459  -23.3478  -45.5981 H         1 UNK         0.3000 
    201 H201       -4.3419  -25.7527  -46.3352 H         1 UNK         0.0600 
    202 H202       -2.3525  -26.1761  -47.7532 H         1 UNK         0.0600 
    203 H203       -1.7372  -24.5607  -47.4280 H         1 UNK         0.0600 
    204 H204       -1.8490  -25.7436  -46.1277 H         1 UNK         0.0600 
    205 H205       -4.8406  -22.5945  -47.1346 H         1 UNK         0.3000 
    206 H206       -5.8061  -21.4073  -48.7094 H         1 UNK         0.0600 
    207 H207       -7.6088  -23.1398  -48.4524 H         1 UNK         0.0600 
    208 H208       -7.5855  -22.4395  -50.0617 H         1 UNK         0.0600 
    209 H209       -6.9200  -24.0456  -49.8003 H         1 UNK         0.0600 
    210 H210       -3.0876  -22.3670  -49.2218 H         1 UNK         0.3000 
    211 H211       -1.4675  -22.5821  -50.7029 H         1 UNK         0.0600 
    212 H212       -1.4456  -21.0389  -52.6143 H         1 UNK         0.0600 
    213 H213       -2.1470  -20.2268  -51.2252 H         1 UNK         0.0600 
    214 H214       -3.1878  -20.8162  -52.5246 H         1 UNK         0.0600 
    215 H215       -3.3961  -24.6663  -50.7036 H         1 UNK         0.3000 
    216 H216       -3.9443  -26.5788  -51.6188 H         1 UNK         0.0600 
    217 H217       -3.0843  -27.4507  -53.7392 H         1 UNK         0.0600 
    218 H218       -1.7579  -26.7452  -52.8280 H         1 UNK         0.0600 
    219 H219       -2.4474  -25.8841  -54.2033 H         1 UNK         0.0600 
    220 H220       -4.1053  -23.9955  -54.0816 H         1 UNK         0.3000 
    221 H221       -6.9385  -23.7416  -53.7542 H         1 UNK         0.0600 
    222 H222       -6.9880  -25.4603  -55.5766 H         1 UNK         0.0600 
    223 H223       -5.8599  -24.5086  -56.5375 H         1 UNK         0.0600 
    224 H224       -7.4781  -23.8973  -56.2127 H         1 UNK         0.0600 
    225 H225       -7.2780  -21.5551  -53.8166 H         1 UNK         0.3000 
    226 H226       -5.0999  -19.8078  -53.8865 H         1 UNK         0.0600 
    227 H227       -7.1541  -19.4058  -52.5707 H         1 UNK         0.0600 
    228 H228       -6.8388  -18.0311  -53.6173 H         1 UNK         0.0600 
    229 H229       -8.0967  -19.1849  -54.0463 H         1 UNK         0.0600 
    230 H230       -7.2929  -20.6750  -56.4932 H         1 UNK         0.3000 
    231 H231       -6.5049  -18.5729  -58.3279 H         1 UNK         0.0600 
    232 H232       -7.9301  -21.2488  -58.7934 H         1 UNK         0.0600 
    233 H233       -7.7992  -19.9414  -59.9635 H         1 UNK         0.0600 
    234 H234       -8.7146  -19.6990  -58.4846 H         1 UNK         0.0600 
    235 H235       -5.1644  -21.6906  -57.4211 H         1 UNK         0.3000 
    236 H236       -3.4768  -21.9179  -59.8406 H         1 UNK         0.0600 
    237 H237       -4.5332  -23.9772  -58.9005 H         1 UNK         0.0600 
    238 H238       -2.7790  -24.0588  -58.8411 H         1 UNK         0.0600 
    239 H239       -3.6859  -23.7260  -57.3744 H         1 UNK         0.0600 
    240 H240       -3.2041  -21.4951  -56.2976 H         1 UNK         0.3000 
    241 H241       -1.7143  -20.6979  -54.9315 H         1 UNK         0.0600 
    242 H242       -1.0361  -22.9702  -54.6240 H         1 UNK         0.3800 
    243 H243        0.5699  -23.4229  -55.1409 H         1 UNK         0.3800 
    244 H244       -1.8312  -18.5982  -56.2667 H         1 UNK         0.0800 
    245 H245       -0.4913  -19.1273  -57.2454 H         1 UNK         0.0800 
    246 H246       -1.3332  -17.0663  -53.9064 H         1 UNK         0.0800 
    247 H247       -1.6273  -18.7530  -53.5657 H         1 UNK         0.0800 
@<TRIPOS>BOND
     1    1    2 1    
     2    1  127 1    
     3    1  128 1    
     4    1  129 1    
     5    2    3 2    
     6    2    4 am   BACKBONE|DICT|INTERRES
     7    4    5 1    
     8    4  130 1    
     9    5    6 1    
    10    5   65 1    
    11    5  131 1    
    12    6    7 1    
    13    6  132 1    
    14    6  133 1    
    15    7    8 1    
    16    8    9 1    
    17    8  134 1    
    18    8  135 1    
    19    9   10 ar   
    20    9   14 ar   
    21   10   11 ar   
    22   10  136 1    
    23   11   12 ar   
    24   11  126 1    
    25   12   13 ar   
    26   12  137 1    
    27   13   14 ar   
    28   13   15 1    
    29   14  138 1    
    30   15   16 1    
    31   15  139 1    
    32   15  140 1    
    33   16   17 1    
    34   17   18 1    
    35   17  141 1    
    36   17  142 1    
    37   18   19 1    
    38   18   67 1    
    39   18  143 1    
    40   19   20 am   BACKBONE|DICT|INTERRES
    41   19  144 1    
    42   20   21 2    
    43   20   22 1    
    44   22   23 1    
    45   22   24 1    
    46   22  145 1    
    47   23  146 1    
    48   23  147 1    
    49   23  148 1    
    50   24   25 am   BACKBONE|DICT|INTERRES
    51   24  149 1    
    52   25   26 2    
    53   25   27 1    
    54   27   28 1    
    55   27   29 1    
    56   27  150 1    
    57   28  151 1    
    58   28  152 1    
    59   28  153 1    
    60   29   30 am   BACKBONE|DICT|INTERRES
    61   29  154 1    
    62   30   31 2    
    63   30   32 1    
    64   32   33 1    
    65   32   34 1    
    66   32  155 1    
    67   33  156 1    
    68   33  157 1    
    69   33  158 1    
    70   34   35 am   BACKBONE|DICT|INTERRES
    71   34  159 1    
    72   35   36 2    
    73   35   37 1    
    74   37   38 1    
    75   37   39 1    
    76   37  160 1    
    77   38  161 1    
    78   38  162 1    
    79   38  163 1    
    80   39   40 am   BACKBONE|DICT|INTERRES
    81   39  164 1    
    82   40   41 2    
    83   40   42 1    
    84   42   43 1    
    85   42   44 1    
    86   42  165 1    
    87   43  166 1    
    88   43  167 1    
    89   43  168 1    
    90   44   45 am   BACKBONE|DICT|INTERRES
    91   44  169 1    
    92   45   46 2    
    93   45   47 1    
    94   47   48 1    
    95   47   49 1    
    96   47  170 1    
    97   48  171 1    
    98   48  172 1    
    99   48  173 1    
   100   49   50 am   BACKBONE|DICT|INTERRES
   101   49  174 1    
   102   50   51 2    
   103   50   52 1    
   104   52   53 1    
   105   52   54 1    
   106   52  175 1    
   107   53  176 1    
   108   53  177 1    
   109   53  178 1    
   110   54   55 am   BACKBONE|DICT|INTERRES
   111   54  179 1    
   112   55   56 2    
   113   55   57 1    
   114   57   58 1    
   115   57   59 1    
   116   57  180 1    
   117   58  181 1    
   118   58  182 1    
   119   58  183 1    
   120   59   60 am   BACKBONE|DICT|INTERRES
   121   59  184 1    
   122   60   61 2    
   123   60   62 1    
   124   62   63 1    
   125   62   64 1    
   126   62  185 1    
   127   63  186 1    
   128   63  187 1    
   129   63  188 1    
   130   64   65 am   BACKBONE|DICT|INTERRES
   131   64  189 1    
   132   65   66 2    
   133   67   68 2    
   134   67   69 am   BACKBONE|DICT|INTERRES
   135   69   70 1    
   136   69  190 1    
   137   70   71 1    
   138   70   72 1    
   139   70  191 1    
   140   71  192 1    
   141   71  193 1    
   142   71  194 1    
   143   72   73 2    
   144   72   74 am   BACKBONE|DICT|INTERRES
   145   74   75 1    
   146   74  195 1    
   147   75   76 1    
   148   75   77 1    
   149   75  196 1    
   150   76  197 1    
   151   76  198 1    
   152   76  199 1    
   153   77   78 2    
   154   77   79 am   BACKBONE|DICT|INTERRES
   155   79   80 1    
   156   79  200 1    
   157   80   81 1    
   158   80   82 1    
   159   80  201 1    
   160   81  202 1    
   161   81  203 1    
   162   81  204 1    
   163   82   83 2    
   164   82   84 am   BACKBONE|DICT|INTERRES
   165   84   85 1    
   166   84  205 1    
   167   85   86 1    
   168   85   87 1    
   169   85  206 1    
   170   86  207 1    
   171   86  208 1    
   172   86  209 1    
   173   87   88 2    
   174   87   89 am   BACKBONE|DICT|INTERRES
   175   89   90 1    
   176   89  210 1    
   177   90   91 1    
   178   90   92 1    
   179   90  211 1    
   180   91  212 1    
   181   91  213 1    
   182   91  214 1    
   183   92   93 2    
   184   92   94 am   BACKBONE|DICT|INTERRES
   185   94   95 1    
   186   94  215 1    
   187   95   96 1    
   188   95   97 1    
   189   95  216 1    
   190   96  217 1    
   191   96  218 1    
   192   96  219 1    
   193   97   98 2    
   194   97   99 am   BACKBONE|DICT|INTERRES
   195   99  100 1    
   196   99  220 1    
   197  100  101 1    
   198  100  102 1    
   199  100  221 1    
   200  101  222 1    
   201  101  223 1    
   202  101  224 1    
   203  102  103 2    
   204  102  104 am   BACKBONE|DICT|INTERRES
   205  104  105 1    
   206  104  225 1    
   207  105  106 1    
   208  105  107 1    
   209  105  226 1    
   210  106  227 1    
   211  106  228 1    
   212  106  229 1    
   213  107  108 2    
   214  107  109 am   BACKBONE|DICT|INTERRES
   215  109  110 1    
   216  109  230 1    
   217  110  111 1    
   218  110  112 1    
   219  110  231 1    
   220  111  232 1    
   221  111  233 1    
   222  111  234 1    
   223  112  113 2    
   224  112  114 am   BACKBONE|DICT|INTERRES
   225  114  115 1    
   226  114  235 1    
   227  115  116 1    
   228  115  117 1    
   229  115  236 1    
   230  116  237 1    
   231  116  238 1    
   232  116  239 1    
   233  117  118 2    
   234  117  119 am   BACKBONE|DICT|INTERRES
   235  119  120 1    
   236  119  240 1    
   237  120  121 1    
   238  120  124 1    
   239  120  241 1    
   240  121  122 am   BACKBONE|DICT|INTERRES
   241  121  123 2    
   242  122  242 1    
   243  122  243 1    
   244  124  125 1    
   245  124  244 1    
   246  124  245 1    
   247  125  126 1    
   248  126  246 1    
   249  126  247 1    
@<TRIPOS>SUBSTRUCTURE
     1 UNK         1 GROUP             0       ****    0 ROOT    
