@<TRIPOS>MOLECULE
3R540
247   249    1
SMALL
USER_CHARGES


@<TRIPOS>ATOM
      1 CA         -1.5177  -10.7920  -48.1992 C.3       0 UNK        -0.1800 
      2 C          -2.8203  -11.4365  -48.6726 C.2       0 UNK         0.5000 
      3 O          -3.5785  -10.8006  -49.4015 O.2       0 UNK        -0.5000 
      4 N          -3.1291  -12.6841  -48.2888 N.am      1 UNK        -0.5000 
      5 CA         -2.3410  -13.5567  -47.4075 C.3       1 UNK         0.1400 
      6 C6         -2.6124  -15.0583  -47.6672 C.3       23 UNK        -0.0398 
      7 S7         -1.9268  -15.6180  -49.2598 S.3       23 UNK        -0.2404 
      8 C8         -0.1462  -15.6702  -48.8668 C.3       23 UNK        -0.0205 
      9 C9          0.5700  -16.8452  -49.5170 C.ar      23 UNK        -0.0193 
     10 C10         0.5955  -16.9783  -50.9087 C.ar      23 UNK        -0.1150 
     11 C11         1.2956  -18.0280  -51.5103 C.ar      23 UNK        -0.0193 
     12 C12         1.9967  -18.9325  -50.7090 C.ar      23 UNK        -0.1150 
     13 C13         1.9563  -18.8298  -49.3166 C.ar      23 UNK        -0.0193 
     14 C14         1.2424  -17.7826  -48.7258 C.ar      23 UNK        -0.1150 
     15 C15         2.6751  -19.8575  -48.4514 C.3       23 UNK        -0.0205 
     16 S16         2.0733  -21.5558  -48.7393 S.3       23 UNK        -0.2404 
     17 C17         0.2851  -21.3411  -48.4574 C.3       23 UNK        -0.0398 
     18 CA         -0.3881  -22.5755  -47.8190 C.3       11 UNK         0.1400 
     19 N           0.2192  -22.9468  -46.5368 N.am      11 UNK        -0.5000 
     20 C          -0.0321  -24.0888  -45.8813 C.2       10 UNK         0.5000 
     21 O          -0.8060  -24.9532  -46.2895 O.2       10 UNK        -0.5000 
     22 CA          0.6482  -24.2720  -44.5114 C.3       10 UNK         0.1400 
     23 CB          2.0418  -24.8932  -44.6838 C.3       10 UNK        -0.1800 
     24 N           0.7659  -23.0298  -43.7453 N.am      10 UNK        -0.5000 
     25 C          -0.2482  -22.2194  -43.4096 C.2       9 UNK         0.5000 
     26 O          -1.4239  -22.4522  -43.6908 O.2       9 UNK        -0.5000 
     27 CA          0.1018  -20.9170  -42.6661 C.3       9 UNK         0.1400 
     28 CB         -0.3374  -20.9988  -41.1971 C.3       9 UNK        -0.1800 
     29 N           1.5209  -20.5556  -42.7170 N.am      9 UNK        -0.5000 
     30 C           2.1840  -20.1561  -43.8120 C.2       8 UNK         0.5000 
     31 O           1.6831  -20.1406  -44.9375 O.2       8 UNK        -0.5000 
     32 CA          3.6382  -19.6945  -43.5961 C.3       8 UNK         0.1400 
     33 CB          4.1275  -18.7190  -44.6818 C.3       8 UNK        -0.1800 
     34 N           3.7846  -19.0777  -42.2765 N.am      8 UNK        -0.5000 
     35 C           4.8699  -19.1518  -41.4947 C.2       7 UNK         0.5000 
     36 O           5.8869  -19.7724  -41.8092 O.2       7 UNK        -0.5000 
     37 CA          4.7994  -18.4403  -40.1221 C.3       7 UNK         0.1400 
     38 CB          6.1795  -17.9654  -39.6195 C.3       7 UNK        -0.1800 
     39 N           3.8095  -17.3560  -40.0680 N.am      7 UNK        -0.5000 
     40 C           3.8263  -16.2054  -40.7564 C.2       6 UNK         0.5000 
     41 O           4.7459  -15.8463  -41.4940 O.2       6 UNK        -0.5000 
     42 CA          2.5578  -15.3366  -40.6423 C.3       6 UNK         0.1400 
     43 CB          2.9003  -13.9004  -40.2174 C.3       6 UNK        -0.1800 
     44 N           1.8228  -15.3125  -41.9090 N.am      6 UNK        -0.5000 
     45 C           1.3125  -16.3973  -42.5134 C.2       5 UNK         0.5000 
     46 O           1.3234  -17.5146  -41.9956 O.2       5 UNK        -0.5000 
     47 CA          0.6899  -16.2393  -43.9172 C.3       5 UNK         0.1400 
     48 CB         -0.8101  -16.5706  -43.8833 C.3       5 UNK        -0.1800 
     49 N           0.8796  -14.9143  -44.5131 N.am      5 UNK        -0.5000 
     50 C           2.0437  -14.4491  -44.9901 C.2       4 UNK         0.5000 
     51 O           3.0752  -15.1182  -45.0296 O.2       4 UNK        -0.5000 
     52 CA          2.0792  -12.9907  -45.4900 C.3       4 UNK         0.1400 
     53 CB          1.9597  -12.9414  -47.0203 C.3       4 UNK        -0.1800 
     54 N           1.0554  -12.1203  -44.9039 N.am      4 UNK        -0.5000 
     55 C           0.9945  -11.7549  -43.6141 C.2       3 UNK         0.5000 
     56 O           1.7653  -12.1674  -42.7490 O.2       3 UNK        -0.5000 
     57 CA         -0.1532  -10.8090  -43.2327 C.3       3 UNK         0.1400 
     58 CB          0.0935   -9.3949  -43.7956 C.3       3 UNK        -0.1800 
     59 N          -1.3941  -11.3859  -43.7373 N.am      3 UNK        -0.5000 
     60 C          -2.6493  -10.9656  -43.5703 C.2       2 UNK         0.5000 
     61 O          -2.9504   -9.9412  -42.9555 O.2       2 UNK        -0.5000 
     62 CA         -3.7503  -11.8602  -44.1978 C.3       2 UNK         0.1400 
     63 CB         -5.1276  -11.1726  -44.2161 C.3       2 UNK        -0.1800 
     64 N          -3.4489  -12.3329  -45.5580 N.am      2 UNK        -0.5000 
     65 C          -2.5113  -13.2248  -45.9114 C.2       1 UNK         0.5000 
     66 O          -1.7431  -13.7490  -45.1041 O.2       1 UNK        -0.5000 
     67 C          -1.9045  -22.3249  -47.6947 C.2       11 UNK         0.5000 
     68 O          -2.6466  -22.6253  -48.6308 O.2       11 UNK        -0.5000 
     69 N          -2.3372  -21.7798  -46.5497 N.am      12 UNK        -0.5000 
     70 CA         -3.7434  -21.5450  -46.2315 C.3       12 UNK         0.1400 
     71 CB         -3.8568  -20.4437  -45.1663 C.3       12 UNK        -0.1800 
     72 C          -4.4332  -22.8399  -45.7743 C.2       12 UNK         0.5000 
     73 O          -5.5606  -23.1000  -46.1920 O.2       12 UNK        -0.5000 
     74 N          -3.7305  -23.6496  -44.9685 N.am      13 UNK        -0.5000 
     75 CA         -4.1881  -24.9529  -44.4791 C.3       13 UNK         0.1400 
     76 CB         -3.1897  -25.4879  -43.4422 C.3       13 UNK        -0.1800 
     77 C          -4.4044  -25.9783  -45.6088 C.2       13 UNK         0.5000 
     78 O          -5.3937  -26.7110  -45.5846 O.2       13 UNK        -0.5000 
     79 N          -3.4995  -25.9823  -46.5976 N.am      14 UNK        -0.5000 
     80 CA         -3.5979  -26.7851  -47.8196 C.3       14 UNK         0.1400 
     81 CB         -2.2009  -26.8905  -48.4526 C.3       14 UNK        -0.1800 
     82 C          -4.5995  -26.2168  -48.8464 C.2       14 UNK         0.5000 
     83 O          -4.9063  -26.8999  -49.8235 O.2       14 UNK        -0.5000 
     84 N          -5.0553  -24.9731  -48.6298 N.am      15 UNK        -0.5000 
     85 CA         -5.9302  -24.1622  -49.4850 C.3       15 UNK         0.1400 
     86 CB         -7.3075  -24.8284  -49.6761 C.3       15 UNK        -0.1800 
     87 C          -5.2879  -23.7436  -50.8240 C.2       15 UNK         0.5000 
     88 O          -5.9881  -23.2356  -51.6998 O.2       15 UNK        -0.5000 
     89 N          -3.9639  -23.9045  -50.9509 N.am      16 UNK        -0.5000 
     90 CA         -3.1743  -23.5006  -52.1127 C.3       16 UNK         0.1400 
     91 CB         -1.7490  -24.0568  -51.9818 C.3       16 UNK        -0.1800 
     92 C          -3.1462  -21.9750  -52.2925 C.2       16 UNK         0.5000 
     93 O          -3.2053  -21.4997  -53.4258 O.2       16 UNK        -0.5000 
     94 N          -3.0993  -21.2418  -51.1717 N.am      17 UNK        -0.5000 
     95 CA         -3.1998  -19.7828  -51.1314 C.3       17 UNK         0.1400 
     96 CB         -2.8494  -19.2856  -49.7213 C.3       17 UNK        -0.1800 
     97 C          -4.5912  -19.2746  -51.5512 C.2       17 UNK         0.5000 
     98 O          -4.6861  -18.2646  -52.2477 O.2       17 UNK        -0.5000 
     99 N          -5.6417  -19.9959  -51.1345 N.am      18 UNK        -0.5000 
    100 CA        -7.0379  -19.6883  -51.4479 C.3       18 UNK         0.1400 
    101 CB        -7.9593  -20.4726  -50.5002 C.3       18 UNK        -0.1800 
    102 C         -7.3825  -19.9806  -52.9189 C.2       18 UNK         0.5000 
    103 O         -8.0661  -19.1795  -53.5570 O.2       18 UNK        -0.5000 
    104 N         -6.8817  -21.1110  -53.4344 N.am      19 UNK        -0.5000 
    105 CA        -7.0390  -21.5382  -54.8255 C.3       19 UNK         0.1400 
    106 CB        -6.7160  -23.0387  -54.9132 C.3       19 UNK        -0.1800 
    107 C         -6.1566  -20.7527  -55.8160 C.2       19 UNK         0.5000 
    108 O         -6.4118  -20.8129  -57.0192 O.2       19 UNK        -0.5000 
    109 N         -5.1201  -20.0730  -55.3003 N.am      20 UNK        -0.5000 
    110 CA        -4.0238  -19.4245  -56.0313 C.3       20 UNK         0.1400 
    111 CB        -4.5354  -18.2551  -56.8974 C.3       20 UNK        -0.1800 
    112 C         -3.1650  -20.4402  -56.8186 C.2       20 UNK         0.5000 
    113 O         -2.6119  -20.1153  -57.8704 O.2       20 UNK        -0.5000 
    114 N         -3.0660  -21.6587  -56.2735 N.am      21 UNK        -0.5000 
    115 CA        -2.2807  -22.7773  -56.7924 C.3       21 UNK         0.1400 
    116 CB        -3.0104  -24.0829  -56.4379 C.3       21 UNK        -0.1800 
    117 C         -0.8465  -22.7876  -56.2283 C.2       21 UNK         0.5000 
    118 O         -0.0219  -23.5795  -56.6853 O.2       21 UNK        -0.5000 
    119 N         -0.5780  -21.9210  -55.2436 N.am      22 UNK        -0.5000 
    120 CA         0.7142  -21.7422  -54.5674 C.3       22 UNK         0.1400 
    121 C          1.8801  -21.1976  -55.4489 C.2       22 UNK         0.5000 
    122 N          1.6301  -20.6840  -56.6472 N.am      22 UNK        -0.7600 
    123 O          3.0353  -21.2497  -55.0360 O.2       22 UNK        -0.5000 
    124 C124        0.5417  -20.9116  -53.2708 C.3       23 UNK        -0.0398 
    125 S125       -0.1087  -19.2253  -53.5668 S.3       23 UNK        -0.2404 
    126 C126        1.2845  -18.1862  -53.0228 C.3       23 UNK        -0.0205 
    127 H127       -0.6542  -11.3492  -48.5623 H         1 UNK         0.0600 
    128 H128       -1.4747  -10.7375  -47.1120 H         1 UNK         0.0600 
    129 H129       -1.4367   -9.7743  -48.5818 H         1 UNK         0.0600 
    130 H130       -3.9870  -13.0899  -48.6351 H         1 UNK         0.3000 
    131 H131       -1.2864  -13.3843  -47.6164 H         1 UNK         0.0600 
    132 H132       -2.1837  -15.6896  -46.8872 H         1 UNK         0.0800 
    133 H133       -3.6842  -15.2625  -47.6563 H         1 UNK         0.0800 
    134 H134       -0.0019  -15.6983  -47.7856 H         1 UNK         0.0800 
    135 H135        0.3148  -14.7445  -49.2130 H         1 UNK         0.0800 
    136 H136        0.0645  -16.2650  -51.5235 H         1 UNK         0.1150 
    137 H137        2.5588  -19.7359  -51.1615 H         1 UNK         0.1150 
    138 H138        1.2200  -17.6921  -47.6485 H         1 UNK         0.1150 
    139 H139        2.5544  -19.6194  -47.3948 H         1 UNK         0.0800 
    140 H140        3.7450  -19.8166  -48.6585 H         1 UNK         0.0800 
    141 H141       -0.1658  -21.1191  -49.4264 H         1 UNK         0.0800 
    142 H142        0.1251  -20.4616  -47.8303 H         1 UNK         0.0800 
    143 H143       -0.2589  -23.4193  -48.5004 H         1 UNK         0.0600 
    144 H144        0.8612  -22.2789  -46.1308 H         1 UNK         0.3000 
    145 H145        0.0374  -24.9614  -43.9266 H         1 UNK         0.0600 
    146 H146        1.9846  -25.8330  -45.2348 H         1 UNK         0.0600 
    147 H147        2.4993  -25.1116  -43.7188 H         1 UNK         0.0600 
    148 H148        2.7129  -24.2310  -45.2326 H         1 UNK         0.0600 
    149 H149        1.6966  -22.7546  -43.4700 H         1 UNK         0.3000 
    150 H150       -0.4634  -20.1147  -43.1449 H         1 UNK         0.0600 
    151 H151        0.2102  -21.7711  -40.6555 H         1 UNK         0.0600 
    152 H152       -1.4002  -21.2322  -41.1180 H         1 UNK         0.0600 
    153 H153       -0.1766  -20.0492  -40.6859 H         1 UNK         0.0600 
    154 H154        2.0102  -20.5443  -41.8343 H         1 UNK         0.3000 
    155 H155        4.2510  -20.5967  -43.6442 H         1 UNK         0.0600 
    156 H156        5.1520  -18.3983  -44.4929 H         1 UNK         0.0600 
    157 H157        3.5032  -17.8269  -44.7285 H         1 UNK         0.0600 
    158 H158        4.1145  -19.1868  -45.6658 H         1 UNK         0.0600 
    159 H159        2.9825  -18.5372  -41.9613 H         1 UNK         0.3000 
    160 H160        4.4458  -19.1968  -39.4203 H         1 UNK         0.0600 
    161 H161        6.6509  -17.2728  -40.3170 H         1 UNK         0.0600 
    162 H162        6.8596  -18.8081  -39.4905 H         1 UNK         0.0600 
    163 H163        6.0979  -17.4667  -38.6537 H         1 UNK         0.0600 
    164 H164        2.9867  -17.5597  -39.5170 H         1 UNK         0.3000 
    165 H165        1.8999  -15.7625  -39.8820 H         1 UNK         0.0600 
    166 H166        1.9986  -13.3011  -40.0896 H         1 UNK         0.0600 
    167 H167        3.4351  -13.8918  -39.2670 H         1 UNK         0.0600 
    168 H168        3.5313  -13.4017  -40.9543 H         1 UNK         0.0600 
    169 H169        1.7954  -14.4249  -42.3942 H         1 UNK         0.3000 
    170 H170        1.1753  -16.9745  -44.5623 H         1 UNK         0.0600 
    171 H171       -1.2363  -16.5652  -44.8855 H         1 UNK         0.0600 
    172 H172       -1.3659  -15.8552  -43.2761 H         1 UNK         0.0600 
    173 H173       -0.9858  -17.5631  -43.4663 H         1 UNK         0.0600 
    174 H174        0.0549  -14.3257  -44.5622 H         1 UNK         0.3000 
    175 H175        3.0544  -12.5831  -45.2150 H         1 UNK         0.0600 
    176 H176        2.7229  -13.5606  -47.4938 H         1 UNK         0.0600 
    177 H177        0.9904  -13.3033  -47.3567 H         1 UNK         0.0600 
    178 H178        2.0886  -11.9258  -47.3951 H         1 UNK         0.0600 
    179 H179        0.3932  -11.7147  -45.5467 H         1 UNK         0.3000 
    180 H180       -0.2096  -10.7588  -42.1437 H         1 UNK         0.0600 
    181 H181        0.0527   -9.3791  -44.8852 H         1 UNK         0.0600 
    182 H182        1.0743   -9.0226  -43.4972 H         1 UNK         0.0600 
    183 H183       -0.6430   -8.6826  -43.4248 H         1 UNK         0.0600 
    184 H184       -1.2940  -12.2836  -44.2066 H         1 UNK         0.3000 
    185 H185       -3.8322  -12.7387  -43.5546 H         1 UNK         0.0600 
    186 H186       -5.4352  -10.8776  -43.2121 H         1 UNK         0.0600 
    187 H187       -5.1190  -10.2752  -44.8359 H         1 UNK         0.0600 
    188 H188       -5.8974  -11.8407  -44.6027 H         1 UNK         0.0600 
    189 H189       -4.0121  -11.9334  -46.2950 H         1 UNK         0.3000 
    190 H190       -1.6739  -21.6192  -45.8043 H         1 UNK         0.3000 
    191 H191       -4.2560  -21.1944  -47.1297 H         1 UNK         0.0600 
    192 H192       -3.3953  -19.5171  -45.5082 H         1 UNK         0.0600 
    193 H193       -4.9021  -20.2241  -44.9456 H         1 UNK         0.0600 
    194 H194       -3.3788  -20.7299  -44.2294 H         1 UNK         0.0600 
    195 H195       -2.8269  -23.3288  -44.6311 H         1 UNK         0.3000 
    196 H196       -5.1473  -24.7997  -43.9802 H         1 UNK         0.0600 
    197 H197       -3.5453  -26.4215  -43.0048 H         1 UNK         0.0600 
    198 H198       -3.0468  -24.7785  -42.6267 H         1 UNK         0.0600 
    199 H199       -2.2159  -25.6862  -43.8891 H         1 UNK         0.0600 
    200 H200       -2.6675  -25.4052  -46.5045 H         1 UNK         0.3000 
    201 H201       -3.9316  -27.7903  -47.5541 H         1 UNK         0.0600 
    202 H202       -2.2184  -27.5177  -49.3448 H         1 UNK         0.0600 
    203 H203       -1.4865  -27.3345  -47.7590 H         1 UNK         0.0600 
    204 H204       -1.8181  -25.9120  -48.7461 H         1 UNK         0.0600 
    205 H205       -4.7539  -24.5132  -47.7809 H         1 UNK         0.3000 
    206 H206       -6.0941  -23.2327  -48.9385 H         1 UNK         0.0600 
    207 H207       -7.7469  -25.1056  -48.7178 H         1 UNK         0.0600 
    208 H208       -8.0057  -24.1494  -50.1670 H         1 UNK         0.0600 
    209 H209       -7.2441  -25.7265  -50.2906 H         1 UNK         0.0600 
    210 H210       -3.4530  -24.2414  -50.1475 H         1 UNK         0.3000 
    211 H211       -3.6363  -23.9351  -53.0009 H         1 UNK         0.0600 
    212 H212       -1.2355  -23.6519  -51.1086 H         1 UNK         0.0600 
    213 H213       -1.1521  -23.8099  -52.8607 H         1 UNK         0.0600 
    214 H214       -1.7574  -25.1432  -51.8914 H         1 UNK         0.0600 
    215 H215       -3.0371  -21.7273  -50.2811 H         1 UNK         0.3000 
    216 H216       -2.4739  -19.3650  -51.8304 H         1 UNK         0.0600 
    217 H217       -3.0551  -18.2209  -49.6233 H         1 UNK         0.0600 
    218 H218       -1.7922  -19.4277  -49.5025 H         1 UNK         0.0600 
    219 H219       -3.4299  -19.7973  -48.9541 H         1 UNK         0.0600 
    220 H220       -5.4689  -20.8316  -50.5979 H         1 UNK         0.3000 
    221 H221       -7.2010  -18.6228  -51.2720 H         1 UNK         0.0600 
    222 H222       -7.8464  -21.5500  -50.6220 H         1 UNK         0.0600 
    223 H223       -7.7528  -20.2293  -49.4579 H         1 UNK         0.0600 
    224 H224       -9.0061  -20.2310  -50.6886 H         1 UNK         0.0600 
    225 H225       -6.3931  -21.7560  -52.8183 H         1 UNK         0.3000 
    226 H226       -8.0801  -21.3918  -55.1202 H         1 UNK         0.0600 
    227 H227       -6.8485  -23.4118  -55.9295 H         1 UNK         0.0600 
    228 H228       -5.6860  -23.2447  -54.6189 H         1 UNK         0.0600 
    229 H229       -7.3709  -23.6215  -54.2651 H         1 UNK         0.0600 
    230 H230       -4.9952  -20.1197  -54.2979 H         1 UNK         0.3000 
    231 H231       -3.3659  -19.0040  -55.2690 H         1 UNK         0.0600 
    232 H232       -5.1343  -18.6021  -57.7395 H         1 UNK         0.0600 
    233 H233       -3.7032  -17.6806  -57.3056 H         1 UNK         0.0600 
    234 H234       -5.1455  -17.5686  -56.3103 H         1 UNK         0.0600 
    235 H235       -3.4794  -21.7885  -55.3557 H         1 UNK         0.3000 
    236 H236       -2.2115  -22.7035  -57.8796 H         1 UNK         0.0600 
    237 H237       -3.0821  -24.2236  -55.3592 H         1 UNK         0.0600 
    238 H238       -4.0218  -24.0920  -56.8450 H         1 UNK         0.0600 
    239 H239       -2.4877  -24.9478  -56.8480 H         1 UNK         0.0600 
    240 H240       -1.3242  -21.3186  -54.9243 H         1 UNK         0.3000 
    241 H241        1.0338  -22.7401  -54.2614 H         1 UNK         0.0600 
    242 H242        0.6860  -20.6305  -56.9942 H         1 UNK         0.3800 
    243 H243        2.3923  -20.3394  -57.2092 H         1 UNK         0.3800 
    244 H244        1.4869  -20.8696  -52.7321 H         1 UNK         0.0800 
    245 H245       -0.1484  -21.4186  -52.5963 H         1 UNK         0.0800 
    246 H246        1.1952  -17.2065  -53.4943 H         1 UNK         0.0800 
    247 H247        2.2275  -18.6071  -53.3753 H         1 UNK         0.0800 
@<TRIPOS>BOND
     1    1    2 1    
     2    1  127 1    
     3    1  128 1    
     4    1  129 1    
     5    2    3 2    
     6    2    4 am   BACKBONE|DICT|INTERRES
     7    4    5 1    
     8    4  130 1    
     9    5    6 1    
    10    5   65 1    
    11    5  131 1    
    12    6    7 1    
    13    6  132 1    
    14    6  133 1    
    15    7    8 1    
    16    8    9 1    
    17    8  134 1    
    18    8  135 1    
    19    9   10 ar   
    20    9   14 ar   
    21   10   11 ar   
    22   10  136 1    
    23   11   12 ar   
    24   11  126 1    
    25   12   13 ar   
    26   12  137 1    
    27   13   14 ar   
    28   13   15 1    
    29   14  138 1    
    30   15   16 1    
    31   15  139 1    
    32   15  140 1    
    33   16   17 1    
    34   17   18 1    
    35   17  141 1    
    36   17  142 1    
    37   18   19 1    
    38   18   67 1    
    39   18  143 1    
    40   19   20 am   BACKBONE|DICT|INTERRES
    41   19  144 1    
    42   20   21 2    
    43   20   22 1    
    44   22   23 1    
    45   22   24 1    
    46   22  145 1    
    47   23  146 1    
    48   23  147 1    
    49   23  148 1    
    50   24   25 am   BACKBONE|DICT|INTERRES
    51   24  149 1    
    52   25   26 2    
    53   25   27 1    
    54   27   28 1    
    55   27   29 1    
    56   27  150 1    
    57   28  151 1    
    58   28  152 1    
    59   28  153 1    
    60   29   30 am   BACKBONE|DICT|INTERRES
    61   29  154 1    
    62   30   31 2    
    63   30   32 1    
    64   32   33 1    
    65   32   34 1    
    66   32  155 1    
    67   33  156 1    
    68   33  157 1    
    69   33  158 1    
    70   34   35 am   BACKBONE|DICT|INTERRES
    71   34  159 1    
    72   35   36 2    
    73   35   37 1    
    74   37   38 1    
    75   37   39 1    
    76   37  160 1    
    77   38  161 1    
    78   38  162 1    
    79   38  163 1    
    80   39   40 am   BACKBONE|DICT|INTERRES
    81   39  164 1    
    82   40   41 2    
    83   40   42 1    
    84   42   43 1    
    85   42   44 1    
    86   42  165 1    
    87   43  166 1    
    88   43  167 1    
    89   43  168 1    
    90   44   45 am   BACKBONE|DICT|INTERRES
    91   44  169 1    
    92   45   46 2    
    93   45   47 1    
    94   47   48 1    
    95   47   49 1    
    96   47  170 1    
    97   48  171 1    
    98   48  172 1    
    99   48  173 1    
   100   49   50 am   BACKBONE|DICT|INTERRES
   101   49  174 1    
   102   50   51 2    
   103   50   52 1    
   104   52   53 1    
   105   52   54 1    
   106   52  175 1    
   107   53  176 1    
   108   53  177 1    
   109   53  178 1    
   110   54   55 am   BACKBONE|DICT|INTERRES
   111   54  179 1    
   112   55   56 2    
   113   55   57 1    
   114   57   58 1    
   115   57   59 1    
   116   57  180 1    
   117   58  181 1    
   118   58  182 1    
   119   58  183 1    
   120   59   60 am   BACKBONE|DICT|INTERRES
   121   59  184 1    
   122   60   61 2    
   123   60   62 1    
   124   62   63 1    
   125   62   64 1    
   126   62  185 1    
   127   63  186 1    
   128   63  187 1    
   129   63  188 1    
   130   64   65 am   BACKBONE|DICT|INTERRES
   131   64  189 1    
   132   65   66 2    
   133   67   68 2    
   134   67   69 am   BACKBONE|DICT|INTERRES
   135   69   70 1    
   136   69  190 1    
   137   70   71 1    
   138   70   72 1    
   139   70  191 1    
   140   71  192 1    
   141   71  193 1    
   142   71  194 1    
   143   72   73 2    
   144   72   74 am   BACKBONE|DICT|INTERRES
   145   74   75 1    
   146   74  195 1    
   147   75   76 1    
   148   75   77 1    
   149   75  196 1    
   150   76  197 1    
   151   76  198 1    
   152   76  199 1    
   153   77   78 2    
   154   77   79 am   BACKBONE|DICT|INTERRES
   155   79   80 1    
   156   79  200 1    
   157   80   81 1    
   158   80   82 1    
   159   80  201 1    
   160   81  202 1    
   161   81  203 1    
   162   81  204 1    
   163   82   83 2    
   164   82   84 am   BACKBONE|DICT|INTERRES
   165   84   85 1    
   166   84  205 1    
   167   85   86 1    
   168   85   87 1    
   169   85  206 1    
   170   86  207 1    
   171   86  208 1    
   172   86  209 1    
   173   87   88 2    
   174   87   89 am   BACKBONE|DICT|INTERRES
   175   89   90 1    
   176   89  210 1    
   177   90   91 1    
   178   90   92 1    
   179   90  211 1    
   180   91  212 1    
   181   91  213 1    
   182   91  214 1    
   183   92   93 2    
   184   92   94 am   BACKBONE|DICT|INTERRES
   185   94   95 1    
   186   94  215 1    
   187   95   96 1    
   188   95   97 1    
   189   95  216 1    
   190   96  217 1    
   191   96  218 1    
   192   96  219 1    
   193   97   98 2    
   194   97   99 am   BACKBONE|DICT|INTERRES
   195   99  100 1    
   196   99  220 1    
   197  100  101 1    
   198  100  102 1    
   199  100  221 1    
   200  101  222 1    
   201  101  223 1    
   202  101  224 1    
   203  102  103 2    
   204  102  104 am   BACKBONE|DICT|INTERRES
   205  104  105 1    
   206  104  225 1    
   207  105  106 1    
   208  105  107 1    
   209  105  226 1    
   210  106  227 1    
   211  106  228 1    
   212  106  229 1    
   213  107  108 2    
   214  107  109 am   BACKBONE|DICT|INTERRES
   215  109  110 1    
   216  109  230 1    
   217  110  111 1    
   218  110  112 1    
   219  110  231 1    
   220  111  232 1    
   221  111  233 1    
   222  111  234 1    
   223  112  113 2    
   224  112  114 am   BACKBONE|DICT|INTERRES
   225  114  115 1    
   226  114  235 1    
   227  115  116 1    
   228  115  117 1    
   229  115  236 1    
   230  116  237 1    
   231  116  238 1    
   232  116  239 1    
   233  117  118 2    
   234  117  119 am   BACKBONE|DICT|INTERRES
   235  119  120 1    
   236  119  240 1    
   237  120  121 1    
   238  120  124 1    
   239  120  241 1    
   240  121  122 am   BACKBONE|DICT|INTERRES
   241  121  123 2    
   242  122  242 1    
   243  122  243 1    
   244  124  125 1    
   245  124  244 1    
   246  124  245 1    
   247  125  126 1    
   248  126  246 1    
   249  126  247 1    
@<TRIPOS>SUBSTRUCTURE
     1 UNK         1 GROUP             0       ****    0 ROOT    
