@<TRIPOS>MOLECULE
3R540
247   249    1
SMALL
USER_CHARGES


@<TRIPOS>ATOM
      1 CA          4.1233  -17.0227  -45.1659 C.3       0 UNK        -0.1800 
      2 C           4.3013  -16.0012  -46.2768 C.2       0 UNK         0.5000 
      3 O           5.0995  -15.0747  -46.1362 O.2       0 UNK        -0.5000 
      4 N           3.5511  -16.1684  -47.3727 N.am      1 UNK        -0.5000 
      5 CA          3.5476  -15.3342  -48.5768 C.3       1 UNK         0.1400 
      6 C6          4.7952  -15.5818  -49.4706 C.3       23 UNK        -0.0398 
      7 S7          4.4758  -15.1541  -51.2173 S.3       23 UNK        -0.2404 
      8 C8          4.1032  -16.7840  -51.9525 C.3       23 UNK        -0.0205 
      9 C9          2.9628  -17.4985  -51.2386 C.ar      23 UNK        -0.0193 
     10 C10         1.6682  -16.9704  -51.2728 C.ar      23 UNK        -0.1150 
     11 C11         0.6325  -17.5795  -50.5579 C.ar      23 UNK        -0.0193 
     12 C12         0.8926  -18.7528  -49.8452 C.ar      23 UNK        -0.1150 
     13 C13         2.1735  -19.3118  -49.8302 C.ar      23 UNK        -0.0193 
     14 C14         3.2076  -18.6734  -50.5204 C.ar      23 UNK        -0.1150 
     15 C15         2.4294  -20.6135  -49.0852 C.3       23 UNK        -0.0205 
     16 S16         2.3424  -20.3885  -47.2812 S.3       23 UNK        -0.2404 
     17 C17         2.5089  -22.1042  -46.6871 C.3       23 UNK        -0.0398 
     18 CA          1.1884  -22.8483  -46.3590 C.3       11 UNK         0.1400 
     19 N           0.4213  -22.2825  -45.2426 N.am      11 UNK        -0.5000 
     20 C          -0.5245  -22.9790  -44.5903 C.2       10 UNK         0.5000 
     21 O          -0.8083  -24.1481  -44.8551 O.2       10 UNK        -0.5000 
     22 CA         -1.3198  -22.2546  -43.4924 C.3       10 UNK         0.1400 
     23 CB         -0.5048  -22.1373  -42.1954 C.3       10 UNK        -0.1800 
     24 N          -1.7833  -20.9366  -43.9199 N.am      10 UNK        -0.5000 
     25 C          -2.7417  -20.7314  -44.8351 C.2       9 UNK         0.5000 
     26 O          -3.3336  -21.6372  -45.4206 O.2       9 UNK        -0.5000 
     27 CA         -3.0691  -19.2659  -45.1793 C.3       9 UNK         0.1400 
     28 CB         -4.1232  -18.7002  -44.2169 C.3       9 UNK        -0.1800 
     29 N          -1.8854  -18.4071  -45.1632 N.am      9 UNK        -0.5000 
     30 C          -0.8624  -18.5444  -46.0187 C.2       8 UNK         0.5000 
     31 O          -0.8442  -19.3733  -46.9266 O.2       8 UNK        -0.5000 
     32 CA          0.3625  -17.6478  -45.7782 C.3       8 UNK         0.1400 
     33 CB          0.1245  -16.2415  -46.3386 C.3       8 UNK        -0.1800 
     34 N           0.7222  -17.5638  -44.3631 N.am      8 UNK        -0.5000 
     35 C           1.1022  -18.5891  -43.5894 C.2       7 UNK         0.5000 
     36 O           1.2125  -19.7414  -44.0069 O.2       7 UNK        -0.5000 
     37 CA          1.3570  -18.3131  -42.0901 C.3       7 UNK         0.1400 
     38 CB          2.8473  -18.0494  -41.8039 C.3       7 UNK        -0.1800 
     39 N           0.5032  -17.2777  -41.4875 N.am      7 UNK        -0.5000 
     40 C           0.4469  -15.9703  -41.7741 C.2       6 UNK         0.5000 
     41 O           1.1620  -15.4166  -42.6108 O.2       6 UNK        -0.5000 
     42 CA         -0.6384  -15.1595  -41.0442 C.3       6 UNK         0.1400 
     43 CB         -0.0092  -14.2295  -39.9964 C.3       6 UNK        -0.1800 
     44 N          -1.4456  -14.3662  -41.9728 N.am      6 UNK        -0.5000 
     45 C          -2.1591  -14.8546  -42.9977 C.2       5 UNK         0.5000 
     46 O          -2.2288  -16.0524  -43.2801 O.2       5 UNK        -0.5000 
     47 CA         -2.9035  -13.8346  -43.8819 C.3       5 UNK         0.1400 
     48 CB         -4.4005  -13.8386  -43.5391 C.3       5 UNK        -0.1800 
     49 N          -2.3980  -12.4584  -43.7689 N.am      5 UNK        -0.5000 
     50 C          -1.2860  -11.9396  -44.3170 C.2       4 UNK         0.5000 
     51 O          -1.0161  -10.7439  -44.1978 O.2       4 UNK        -0.5000 
     52 CA         -0.3650  -12.8406  -45.1755 C.3       4 UNK         0.1400 
     53 CB         -0.8134  -12.7763  -46.6458 C.3       4 UNK        -0.1800 
     54 N           1.0713  -12.5519  -45.1020 N.am      4 UNK        -0.5000 
     55 C           1.8038  -12.3315  -43.9963 C.2       3 UNK         0.5000 
     56 O           1.3310  -12.2447  -42.8623 O.2       3 UNK        -0.5000 
     57 CA          3.3367  -12.2126  -44.1592 C.3       3 UNK         0.1400 
     58 CB          4.0495  -13.3104  -43.3519 C.3       3 UNK        -0.1800 
     59 N           3.8040  -12.2788  -45.5463 N.am      3 UNK        -0.5000 
     60 C           3.7097  -11.2843  -46.4403 C.2       2 UNK         0.5000 
     61 O           3.2480  -10.1747  -46.1732 O.2       2 UNK        -0.5000 
     62 CA          4.1912  -11.5731  -47.8788 C.3       2 UNK         0.1400 
     63 CB          5.5599  -10.9216  -48.1287 C.3       2 UNK        -0.1800 
     64 N           4.2814  -12.9977  -48.2119 N.am      2 UNK        -0.5000 
     65 C           3.2486  -13.8512  -48.2567 C.2       1 UNK         0.5000 
     66 O           2.0895  -13.5143  -48.0181 O.2       1 UNK        -0.5000 
     67 C           0.3070  -23.1003  -47.5991 C.2       11 UNK         0.5000 
     68 O           0.5003  -24.1140  -48.2689 O.2       11 UNK        -0.5000 
     69 N          -0.6759  -22.2229  -47.8580 N.am      12 UNK        -0.5000 
     70 CA         -1.6629  -22.4087  -48.9220 C.3       12 UNK         0.1400 
     71 CB         -2.4876  -21.1316  -49.1152 C.3       12 UNK        -0.1800 
     72 C          -2.5873  -23.6120  -48.6665 C.2       12 UNK         0.5000 
     73 O          -2.8959  -24.3439  -49.6068 O.2       12 UNK        -0.5000 
     74 N          -2.9979  -23.8193  -47.4075 N.am      13 UNK        -0.5000 
     75 CA         -3.7634  -24.9907  -46.9787 C.3       13 UNK         0.1400 
     76 CB         -4.2724  -24.7944  -45.5436 C.3       13 UNK        -0.1800 
     77 C          -2.9565  -26.2943  -47.1107 C.2       13 UNK         0.5000 
     78 O          -3.4852  -27.2776  -47.6287 O.2       13 UNK        -0.5000 
     79 N          -1.6801  -26.2652  -46.6995 N.am      14 UNK        -0.5000 
     80 CA         -0.7350  -27.3786  -46.8346 C.3       14 UNK         0.1400 
     81 CB          0.5649  -27.0420  -46.0894 C.3       14 UNK        -0.1800 
     82 C          -0.4420  -27.7508  -48.3022 C.2       14 UNK         0.5000 
     83 O          -0.3124  -28.9343  -48.6161 O.2       14 UNK        -0.5000 
     84 N          -0.3852  -26.7388  -49.1783 N.am      15 UNK        -0.5000 
     85 CA         -0.2407  -26.8790  -50.6293 C.3       15 UNK         0.1400 
     86 CB          0.2488  -25.5397  -51.2047 C.3       15 UNK        -0.1800 
     87 C          -1.5337  -27.3271  -51.3449 C.2       15 UNK         0.5000 
     88 O          -1.4854  -27.5956  -52.5458 O.2       15 UNK        -0.5000 
     89 N          -2.6596  -27.3766  -50.6156 N.am      16 UNK        -0.5000 
     90 CA         -4.0177  -27.6889  -51.0761 C.3       16 UNK         0.1400 
     91 CB         -4.1051  -29.1209  -51.6443 C.3       16 UNK        -0.1800 
     92 C          -4.6095  -26.6242  -52.0260 C.2       16 UNK         0.5000 
     93 O          -5.5433  -26.9184  -52.7739 O.2       16 UNK        -0.5000 
     94 N          -4.0822  -25.3950  -51.9550 N.am      17 UNK        -0.5000 
     95 CA         -4.5997  -24.2148  -52.6461 C.3       17 UNK         0.1400 
     96 CB         -3.4408  -23.2377  -52.8987 C.3       17 UNK        -0.1800 
     97 C          -5.7137  -23.5237  -51.8384 C.2       17 UNK         0.5000 
     98 O          -6.4859  -22.7557  -52.4124 O.2       17 UNK        -0.5000 
     99 N          -5.7552  -23.7774  -50.5187 N.am      18 UNK        -0.5000 
    100 CA        -6.7585  -23.3229  -49.5422 C.3       18 UNK         0.1400 
    101 CB        -8.1096  -24.0132  -49.8180 C.3       18 UNK        -0.1800 
    102 C         -6.8977  -21.7872  -49.4381 C.2       18 UNK         0.5000 
    103 O         -7.9414  -21.2901  -49.0141 O.2       18 UNK        -0.5000 
    104 N         -5.8436  -21.0724  -49.8571 N.am      19 UNK        -0.5000 
    105 CA        -5.7373  -19.6179  -50.0118 C.3       19 UNK         0.1400 
    106 CB        -5.8754  -18.9005  -48.6535 C.3       19 UNK        -0.1800 
    107 C         -6.6693  -19.0331  -51.0971 C.2       19 UNK         0.5000 
    108 O         -6.8472  -17.8162  -51.1413 O.2       19 UNK        -0.5000 
    109 N         -7.2188  -19.8851  -51.9767 N.am      20 UNK        -0.5000 
    110 CA        -8.0757  -19.4784  -53.0923 C.3       20 UNK         0.1400 
    111 CB        -8.9511  -20.6659  -53.5211 C.3       20 UNK        -0.1800 
    112 C         -7.2573  -18.9478  -54.2828 C.2       20 UNK         0.5000 
    113 O         -7.7202  -18.0504  -54.9873 O.2       20 UNK        -0.5000 
    114 N         -6.0523  -19.5033  -54.4773 N.am      21 UNK        -0.5000 
    115 CA        -5.0897  -19.0641  -55.4911 C.3       21 UNK         0.1400 
    116 CB        -4.0878  -20.1998  -55.7508 C.3       21 UNK        -0.1800 
    117 C         -4.3450  -17.7778  -55.0810 C.2       21 UNK         0.5000 
    118 O         -3.8853  -17.0362  -55.9503 O.2       21 UNK        -0.5000 
    119 N         -4.2298  -17.5506  -53.7677 N.am      22 UNK        -0.5000 
    120 CA        -3.6173  -16.3665  -53.1526 C.3       22 UNK         0.1400 
    121 C         -4.4865  -15.0887  -53.3218 C.2       22 UNK         0.5000 
    122 N         -3.8657  -13.9186  -53.3883 N.am      22 UNK        -0.7600 
    123 O         -5.7136  -15.1381  -53.3579 O.2       22 UNK        -0.5000 
    124 C124       -3.2977  -16.6275  -51.6587 C.3       23 UNK        -0.0398 
    125 S125       -1.9853  -17.8851  -51.4595 S.3       23 UNK        -0.2404 
    126 C126       -0.7480  -16.9400  -50.5162 C.3       23 UNK        -0.0205 
    127 H127        5.0835  -17.2637  -44.7102 H         1 UNK         0.0600 
    128 H128        3.6803  -17.9485  -45.5339 H         1 UNK         0.0600 
    129 H129        3.4709  -16.6105  -44.3987 H         1 UNK         0.0600 
    130 H130        2.9172  -16.9532  -47.4075 H         1 UNK         0.3000 
    131 H131        2.6726  -15.6800  -49.1243 H         1 UNK         0.0600 
    132 H132        5.6737  -15.0437  -49.1137 H         1 UNK         0.0800 
    133 H133        5.0774  -16.6345  -49.4280 H         1 UNK         0.0800 
    134 H134        3.8375  -16.6470  -53.0016 H         1 UNK         0.0800 
    135 H135        5.0088  -17.3926  -51.9436 H         1 UNK         0.0800 
    136 H136        1.4813  -16.0579  -51.8215 H         1 UNK         0.1150 
    137 H137        0.0989  -19.2313  -49.2936 H         1 UNK         0.1150 
    138 H138        4.2042  -19.0913  -50.4973 H         1 UNK         0.1150 
    139 H139        1.6911  -21.3483  -49.4061 H         1 UNK         0.0800 
    140 H140        3.4063  -21.0223  -49.3479 H         1 UNK         0.0800 
    141 H141        3.1265  -22.0730  -45.7887 H         1 UNK         0.0800 
    142 H142        3.0889  -22.6767  -47.4130 H         1 UNK         0.0800 
    143 H143        1.5045  -23.8393  -46.0259 H         1 UNK         0.0600 
    144 H144        0.6293  -21.3252  -44.9695 H         1 UNK         0.3000 
    145 H145       -2.2020  -22.8598  -43.2722 H         1 UNK         0.0600 
    146 H146       -1.0772  -21.6406  -41.4119 H         1 UNK         0.0600 
    147 H147       -0.2326  -23.1250  -41.8214 H         1 UNK         0.0600 
    148 H148        0.4206  -21.5815  -42.3405 H         1 UNK         0.0600 
    149 H149       -1.3052  -20.1362  -43.5357 H         1 UNK         0.3000 
    150 H150       -3.4840  -19.2483  -46.1888 H         1 UNK         0.0600 
    151 H151       -5.0254  -19.3132  -44.2208 H         1 UNK         0.0600 
    152 H152       -4.4149  -17.6895  -44.5032 H         1 UNK         0.0600 
    153 H153       -3.7531  -18.6625  -43.1915 H         1 UNK         0.0600 
    154 H154       -1.8476  -17.6855  -44.4498 H         1 UNK         0.3000 
    155 H155        1.2128  -18.0729  -46.3064 H         1 UNK         0.0600 
    156 H156        0.0490  -16.2662  -47.4257 H         1 UNK         0.0600 
    157 H157        0.9432  -15.5667  -46.0873 H         1 UNK         0.0600 
    158 H158       -0.8021  -15.8135  -45.9570 H         1 UNK         0.0600 
    159 H159        0.6987  -16.6458  -43.9280 H         1 UNK         0.3000 
    160 H160        1.0951  -19.2381  -41.5743 H         1 UNK         0.0600 
    161 H161        3.1759  -17.0799  -42.1754 H         1 UNK         0.0600 
    162 H162        3.4769  -18.8092  -42.2690 H         1 UNK         0.0600 
    163 H163        3.0474  -18.0748  -40.7328 H         1 UNK         0.0600 
    164 H164       -0.1568  -17.6287  -40.8074 H         1 UNK         0.3000 
    165 H165       -1.3123  -15.8486  -40.5314 H         1 UNK         0.0600 
    166 H166       -0.7728  -13.6869  -39.4389 H         1 UNK         0.0600 
    167 H167        0.5796  -14.7966  -39.2743 H         1 UNK         0.0600 
    168 H168        0.6549  -13.4971  -40.4575 H         1 UNK         0.0600 
    169 H169       -1.4044  -13.3643  -41.8558 H         1 UNK         0.3000 
    170 H170       -2.8064  -14.1668  -44.9166 H         1 UNK         0.0600 
    171 H171       -4.8228  -14.8397  -43.6397 H         1 UNK         0.0600 
    172 H172       -4.5809  -13.5080  -42.5155 H         1 UNK         0.0600 
    173 H173       -4.9604  -13.1842  -44.2075 H         1 UNK         0.0600 
    174 H174       -2.9821  -11.8361  -43.2300 H         1 UNK         0.3000 
    175 H175       -0.4462  -13.8659  -44.8290 H         1 UNK         0.0600 
    176 H176       -0.5566  -11.8181  -47.0989 H         1 UNK         0.0600 
    177 H177       -0.3509  -13.5621  -47.2400 H         1 UNK         0.0600 
    178 H178       -1.8921  -12.9029  -46.7442 H         1 UNK         0.0600 
    179 H179        1.5673  -12.6091  -45.9820 H         1 UNK         0.3000 
    180 H180        3.6298  -11.2461  -43.7444 H         1 UNK         0.0600 
    181 H181        3.7468  -14.3051  -43.6786 H         1 UNK         0.0600 
    182 H182        3.8127  -13.2334  -42.2900 H         1 UNK         0.0600 
    183 H183        5.1328  -13.2379  -43.4495 H         1 UNK         0.0600 
    184 H184        4.2101  -13.1593  -45.8443 H         1 UNK         0.3000 
    185 H185        3.4669  -11.1192  -48.5583 H         1 UNK         0.0600 
    186 H186        5.5271   -9.8504  -47.9253 H         1 UNK         0.0600 
    187 H187        6.3322  -11.3534  -47.4908 H         1 UNK         0.0600 
    188 H188        5.8724  -11.0438  -49.1660 H         1 UNK         0.0600 
    189 H189        5.2112  -13.3582  -48.3666 H         1 UNK         0.3000 
    190 H190       -0.7482  -21.3744  -47.3044 H         1 UNK         0.3000 
    191 H191       -1.1185  -22.5978  -49.8494 H         1 UNK         0.0600 
    192 H192       -1.8527  -20.2665  -49.2931 H         1 UNK         0.0600 
    193 H193       -3.1320  -21.2293  -49.9868 H         1 UNK         0.0600 
    194 H194       -3.1136  -20.9142  -48.2489 H         1 UNK         0.0600 
    195 H195       -2.7650  -23.1405  -46.6903 H         1 UNK         0.3000 
    196 H196       -4.6340  -25.0793  -47.6310 H         1 UNK         0.0600 
    197 H197       -4.8475  -25.6594  -45.2111 H         1 UNK         0.0600 
    198 H198       -4.9257  -23.9245  -45.4748 H         1 UNK         0.0600 
    199 H199       -3.4536  -24.6532  -44.8383 H         1 UNK         0.0600 
    200 H200       -1.3351  -25.4270  -46.2399 H         1 UNK         0.3000 
    201 H201       -1.1837  -28.2514  -46.3560 H         1 UNK         0.0600 
    202 H202        0.3726  -26.8187  -45.0397 H         1 UNK         0.0600 
    203 H203        1.0686  -26.1812  -46.5285 H         1 UNK         0.0600 
    204 H204        1.2613  -27.8807  -46.1222 H         1 UNK         0.0600 
    205 H205       -0.4165  -25.7886  -48.8215 H         1 UNK         0.3000 
    206 H206        0.5207  -27.6352  -50.8299 H         1 UNK         0.0600 
    207 H207        1.1922  -25.2362  -50.7506 H         1 UNK         0.0600 
    208 H208        0.4158  -25.6095  -52.2802 H         1 UNK         0.0600 
    209 H209       -0.4760  -24.7426  -51.0365 H         1 UNK         0.0600 
    210 H210       -2.5904  -27.1357  -49.6345 H         1 UNK         0.3000 
    211 H211       -4.6420  -27.6600  -50.1822 H         1 UNK         0.0600 
    212 H212       -3.5827  -29.2145  -52.5964 H         1 UNK         0.0600 
    213 H213       -5.1426  -29.4108  -51.8140 H         1 UNK         0.0600 
    214 H214       -3.6767  -29.8460  -50.9522 H         1 UNK         0.0600 
    215 H215       -3.3553  -25.2250  -51.2660 H         1 UNK         0.3000 
    216 H216       -5.0184  -24.5083  -53.6109 H         1 UNK         0.0600 
    217 H217       -3.7881  -22.3494  -53.4262 H         1 UNK         0.0600 
    218 H218       -2.6666  -23.6980  -53.5127 H         1 UNK         0.0600 
    219 H219       -2.9763  -22.9077  -51.9693 H         1 UNK         0.0600 
    220 H220       -5.0169  -24.3621  -50.1474 H         1 UNK         0.3000 
    221 H221       -6.4093  -23.6566  -48.5646 H         1 UNK         0.0600 
    222 H222       -8.5501  -23.6755  -50.7568 H         1 UNK         0.0600 
    223 H223       -7.9949  -25.0958  -49.8721 H         1 UNK         0.0600 
    224 H224       -8.8286  -23.8047  -49.0249 H         1 UNK         0.0600 
    225 H225       -5.0573  -21.6020  -50.2013 H         1 UNK         0.3000 
    226 H226       -4.7245  -19.4307  -50.3703 H         1 UNK         0.0600 
    227 H227       -5.2160  -19.3415  -47.9067 H         1 UNK         0.0600 
    228 H228       -5.6083  -17.8465  -48.7386 H         1 UNK         0.0600 
    229 H229       -6.8950  -18.9478  -48.2708 H         1 UNK         0.0600 
    230 H230       -7.0207  -20.8778  -51.9004 H         1 UNK         0.3000 
    231 H231       -8.7371  -18.6773  -52.7552 H         1 UNK         0.0600 
    232 H232       -8.3527  -21.4919  -53.9067 H         1 UNK         0.0600 
    233 H233       -9.6474  -20.3717  -54.3073 H         1 UNK         0.0600 
    234 H234       -9.5423  -21.0420  -52.6859 H         1 UNK         0.0600 
    235 H235       -5.7703  -20.2613  -53.8735 H         1 UNK         0.3000 
    236 H236       -5.6252  -18.8606  -56.4210 H         1 UNK         0.0600 
    237 H237       -4.5957  -21.1169  -56.0500 H         1 UNK         0.0600 
    238 H238       -3.3987  -19.9337  -56.5534 H         1 UNK         0.0600 
    239 H239       -3.4886  -20.4180  -54.8662 H         1 UNK         0.0600 
    240 H240       -4.6765  -18.1951  -53.1362 H         1 UNK         0.3000 
    241 H241       -2.6744  -16.1826  -53.6723 H         1 UNK         0.0600 
    242 H242       -4.4161  -13.0793  -53.4860 H         1 UNK         0.3800 
    243 H243       -2.8602  -13.8472  -53.3609 H         1 UNK         0.3800 
    244 H244       -2.9879  -15.7042  -51.1665 H         1 UNK         0.0800 
    245 H245       -4.1893  -16.9585  -51.1249 H         1 UNK         0.0800 
    246 H246       -1.0810  -16.8593  -49.4808 H         1 UNK         0.0800 
    247 H247       -0.6922  -15.9214  -50.9030 H         1 UNK         0.0800 
@<TRIPOS>BOND
     1    1    2 1    
     2    1  127 1    
     3    1  128 1    
     4    1  129 1    
     5    2    3 2    
     6    2    4 am   BACKBONE|DICT|INTERRES
     7    4    5 1    
     8    4  130 1    
     9    5    6 1    
    10    5   65 1    
    11    5  131 1    
    12    6    7 1    
    13    6  132 1    
    14    6  133 1    
    15    7    8 1    
    16    8    9 1    
    17    8  134 1    
    18    8  135 1    
    19    9   10 ar   
    20    9   14 ar   
    21   10   11 ar   
    22   10  136 1    
    23   11   12 ar   
    24   11  126 1    
    25   12   13 ar   
    26   12  137 1    
    27   13   14 ar   
    28   13   15 1    
    29   14  138 1    
    30   15   16 1    
    31   15  139 1    
    32   15  140 1    
    33   16   17 1    
    34   17   18 1    
    35   17  141 1    
    36   17  142 1    
    37   18   19 1    
    38   18   67 1    
    39   18  143 1    
    40   19   20 am   BACKBONE|DICT|INTERRES
    41   19  144 1    
    42   20   21 2    
    43   20   22 1    
    44   22   23 1    
    45   22   24 1    
    46   22  145 1    
    47   23  146 1    
    48   23  147 1    
    49   23  148 1    
    50   24   25 am   BACKBONE|DICT|INTERRES
    51   24  149 1    
    52   25   26 2    
    53   25   27 1    
    54   27   28 1    
    55   27   29 1    
    56   27  150 1    
    57   28  151 1    
    58   28  152 1    
    59   28  153 1    
    60   29   30 am   BACKBONE|DICT|INTERRES
    61   29  154 1    
    62   30   31 2    
    63   30   32 1    
    64   32   33 1    
    65   32   34 1    
    66   32  155 1    
    67   33  156 1    
    68   33  157 1    
    69   33  158 1    
    70   34   35 am   BACKBONE|DICT|INTERRES
    71   34  159 1    
    72   35   36 2    
    73   35   37 1    
    74   37   38 1    
    75   37   39 1    
    76   37  160 1    
    77   38  161 1    
    78   38  162 1    
    79   38  163 1    
    80   39   40 am   BACKBONE|DICT|INTERRES
    81   39  164 1    
    82   40   41 2    
    83   40   42 1    
    84   42   43 1    
    85   42   44 1    
    86   42  165 1    
    87   43  166 1    
    88   43  167 1    
    89   43  168 1    
    90   44   45 am   BACKBONE|DICT|INTERRES
    91   44  169 1    
    92   45   46 2    
    93   45   47 1    
    94   47   48 1    
    95   47   49 1    
    96   47  170 1    
    97   48  171 1    
    98   48  172 1    
    99   48  173 1    
   100   49   50 am   BACKBONE|DICT|INTERRES
   101   49  174 1    
   102   50   51 2    
   103   50   52 1    
   104   52   53 1    
   105   52   54 1    
   106   52  175 1    
   107   53  176 1    
   108   53  177 1    
   109   53  178 1    
   110   54   55 am   BACKBONE|DICT|INTERRES
   111   54  179 1    
   112   55   56 2    
   113   55   57 1    
   114   57   58 1    
   115   57   59 1    
   116   57  180 1    
   117   58  181 1    
   118   58  182 1    
   119   58  183 1    
   120   59   60 am   BACKBONE|DICT|INTERRES
   121   59  184 1    
   122   60   61 2    
   123   60   62 1    
   124   62   63 1    
   125   62   64 1    
   126   62  185 1    
   127   63  186 1    
   128   63  187 1    
   129   63  188 1    
   130   64   65 am   BACKBONE|DICT|INTERRES
   131   64  189 1    
   132   65   66 2    
   133   67   68 2    
   134   67   69 am   BACKBONE|DICT|INTERRES
   135   69   70 1    
   136   69  190 1    
   137   70   71 1    
   138   70   72 1    
   139   70  191 1    
   140   71  192 1    
   141   71  193 1    
   142   71  194 1    
   143   72   73 2    
   144   72   74 am   BACKBONE|DICT|INTERRES
   145   74   75 1    
   146   74  195 1    
   147   75   76 1    
   148   75   77 1    
   149   75  196 1    
   150   76  197 1    
   151   76  198 1    
   152   76  199 1    
   153   77   78 2    
   154   77   79 am   BACKBONE|DICT|INTERRES
   155   79   80 1    
   156   79  200 1    
   157   80   81 1    
   158   80   82 1    
   159   80  201 1    
   160   81  202 1    
   161   81  203 1    
   162   81  204 1    
   163   82   83 2    
   164   82   84 am   BACKBONE|DICT|INTERRES
   165   84   85 1    
   166   84  205 1    
   167   85   86 1    
   168   85   87 1    
   169   85  206 1    
   170   86  207 1    
   171   86  208 1    
   172   86  209 1    
   173   87   88 2    
   174   87   89 am   BACKBONE|DICT|INTERRES
   175   89   90 1    
   176   89  210 1    
   177   90   91 1    
   178   90   92 1    
   179   90  211 1    
   180   91  212 1    
   181   91  213 1    
   182   91  214 1    
   183   92   93 2    
   184   92   94 am   BACKBONE|DICT|INTERRES
   185   94   95 1    
   186   94  215 1    
   187   95   96 1    
   188   95   97 1    
   189   95  216 1    
   190   96  217 1    
   191   96  218 1    
   192   96  219 1    
   193   97   98 2    
   194   97   99 am   BACKBONE|DICT|INTERRES
   195   99  100 1    
   196   99  220 1    
   197  100  101 1    
   198  100  102 1    
   199  100  221 1    
   200  101  222 1    
   201  101  223 1    
   202  101  224 1    
   203  102  103 2    
   204  102  104 am   BACKBONE|DICT|INTERRES
   205  104  105 1    
   206  104  225 1    
   207  105  106 1    
   208  105  107 1    
   209  105  226 1    
   210  106  227 1    
   211  106  228 1    
   212  106  229 1    
   213  107  108 2    
   214  107  109 am   BACKBONE|DICT|INTERRES
   215  109  110 1    
   216  109  230 1    
   217  110  111 1    
   218  110  112 1    
   219  110  231 1    
   220  111  232 1    
   221  111  233 1    
   222  111  234 1    
   223  112  113 2    
   224  112  114 am   BACKBONE|DICT|INTERRES
   225  114  115 1    
   226  114  235 1    
   227  115  116 1    
   228  115  117 1    
   229  115  236 1    
   230  116  237 1    
   231  116  238 1    
   232  116  239 1    
   233  117  118 2    
   234  117  119 am   BACKBONE|DICT|INTERRES
   235  119  120 1    
   236  119  240 1    
   237  120  121 1    
   238  120  124 1    
   239  120  241 1    
   240  121  122 am   BACKBONE|DICT|INTERRES
   241  121  123 2    
   242  122  242 1    
   243  122  243 1    
   244  124  125 1    
   245  124  244 1    
   246  124  245 1    
   247  125  126 1    
   248  126  246 1    
   249  126  247 1    
@<TRIPOS>SUBSTRUCTURE
     1 UNK         1 GROUP             0       ****    0 ROOT    
