@<TRIPOS>MOLECULE
3R540
247   249    1
SMALL
USER_CHARGES


@<TRIPOS>ATOM
      1 CA          7.7021  -15.8681  -48.7924 C.3       0 UNK        -0.1800 
      2 C           6.7047  -14.8756  -49.3725 C.2       0 UNK         0.5000 
      3 O           7.0601  -13.7231  -49.6182 O.2       0 UNK        -0.5000 
      4 N           5.4590  -15.3230  -49.5794 N.am      1 UNK        -0.5000 
      5 CA          4.3309  -14.5644  -50.1462 C.3       1 UNK         0.1400 
      6 C6          4.5655  -14.0237  -51.5889 C.3       23 UNK        -0.0398 
      7 S7          5.2788  -15.2199  -52.7708 S.3       23 UNK        -0.2404 
      8 C8          3.7999  -16.1154  -53.3624 C.3       23 UNK        -0.0205 
      9 C9          3.2582  -17.1710  -52.3980 C.ar      23 UNK        -0.0193 
     10 C10         1.9024  -17.5130  -52.4510 C.ar      23 UNK        -0.1150 
     11 C11         1.3820  -18.5024  -51.6106 C.ar      23 UNK        -0.0193 
     12 C12         2.2253  -19.1486  -50.7054 C.ar      23 UNK        -0.1150 
     13 C13         3.5751  -18.8022  -50.6214 C.ar      23 UNK        -0.0193 
     14 C14         4.0887  -17.8336  -51.4850 C.ar      23 UNK        -0.1150 
     15 C15         4.4881  -19.4816  -49.6142 C.3       23 UNK        -0.0205 
     16 S16         4.5220  -18.6199  -48.0058 S.3       23 UNK        -0.2404 
     17 C17         2.8800  -18.9715  -47.2807 C.3       23 UNK        -0.0398 
     18 CA          2.7789  -20.3762  -46.6195 C.3       11 UNK         0.1400 
     19 N           2.0433  -20.3540  -45.3519 N.am      11 UNK        -0.5000 
     20 C           2.1498  -21.3076  -44.4139 C.2       10 UNK         0.5000 
     21 O           2.9494  -22.2421  -44.4699 O.2       10 UNK        -0.5000 
     22 CA          1.1792  -21.2169  -43.2253 C.3       10 UNK         0.1400 
     23 CB          1.7338  -20.2822  -42.1395 C.3       10 UNK        -0.1800 
     24 N          -0.1418  -20.7458  -43.6304 N.am      10 UNK        -0.5000 
     25 C          -1.0253  -21.4340  -44.3637 C.2       9 UNK         0.5000 
     26 O          -0.8160  -22.5705  -44.7874 O.2       9 UNK        -0.5000 
     27 CA         -2.3443  -20.7194  -44.7210 C.3       9 UNK         0.1400 
     28 CB         -3.5427  -21.6884  -44.7550 C.3       9 UNK        -0.1800 
     29 N          -2.6240  -19.5466  -43.8861 N.am      9 UNK        -0.5000 
     30 C          -2.8819  -19.5133  -42.5692 C.2       8 UNK         0.5000 
     31 O          -2.9909  -20.5171  -41.8646 O.2       8 UNK        -0.5000 
     32 CA         -2.9899  -18.1233  -41.9100 C.3       8 UNK         0.1400 
     33 CB         -1.7770  -17.8803  -40.9971 C.3       8 UNK        -0.1800 
     34 N          -3.0808  -17.0248  -42.8752 N.am      8 UNK        -0.5000 
     35 C          -4.1745  -16.7295  -43.5907 C.2       7 UNK         0.5000 
     36 O          -5.2495  -17.3177  -43.4693 O.2       7 UNK        -0.5000 
     37 CA         -4.0363  -15.6108  -44.6390 C.3       7 UNK         0.1400 
     38 CB         -4.2402  -14.2357  -43.9858 C.3       7 UNK        -0.1800 
     39 N          -2.7556  -15.6309  -45.3522 N.am      7 UNK        -0.5000 
     40 C          -2.3402  -16.6220  -46.1563 C.2       6 UNK         0.5000 
     41 O          -2.9781  -17.6547  -46.3555 O.2       6 UNK        -0.5000 
     42 CA         -0.9578  -16.4534  -46.8098 C.3       6 UNK         0.1400 
     43 CB         -0.9915  -15.3828  -47.9108 C.3       6 UNK        -0.1800 
     44 N           0.0634  -16.1077  -45.8263 N.am      6 UNK        -0.5000 
     45 C           0.4966  -16.9174  -44.8530 C.2       5 UNK         0.5000 
     46 O           0.1797  -18.1032  -44.7570 O.2       5 UNK        -0.5000 
     47 CA          1.4311  -16.2986  -43.7995 C.3       5 UNK         0.1400 
     48 CB          2.9005  -16.4464  -44.2189 C.3       5 UNK        -0.1800 
     49 N           1.1325  -14.8888  -43.5427 N.am      5 UNK        -0.5000 
     50 C           0.0355  -14.4544  -42.9063 C.2       4 UNK         0.5000 
     51 O          -0.8453  -15.1979  -42.4768 O.2       4 UNK        -0.5000 
     52 CA         -0.1207  -12.9307  -42.7619 C.3       4 UNK         0.1400 
     53 CB          0.7546  -12.3982  -41.6175 C.3       4 UNK        -0.1800 
     54 N           0.2036  -12.2182  -43.9975 N.am      4 UNK        -0.5000 
     55 C          -0.5143  -12.3049  -45.1255 C.2       3 UNK         0.5000 
     56 O          -1.5383  -12.9779  -45.2358 O.2       3 UNK        -0.5000 
     57 CA          0.0308  -11.5505  -46.3508 C.3       3 UNK         0.1400 
     58 CB         -0.4130  -10.0804  -46.3220 C.3       3 UNK        -0.1800 
     59 N           1.4891  -11.6174  -46.4881 N.am      3 UNK        -0.5000 
     60 C           2.1922  -12.7501  -46.6170 C.2       2 UNK         0.5000 
     61 O           1.7037  -13.8777  -46.5257 O.2       2 UNK        -0.5000 
     62 CA          3.7012  -12.6048  -46.8690 C.3       2 UNK         0.1400 
     63 CB          4.4933  -12.8673  -45.5792 C.3       2 UNK        -0.1800 
     64 N           4.1474  -13.5344  -47.9056 N.am      2 UNK        -0.5000 
     65 C           3.8165  -13.4493  -49.2027 C.2       1 UNK         0.5000 
     66 O           3.1317  -12.5322  -49.6609 O.2       1 UNK        -0.5000 
     67 C           2.1491  -21.4094  -47.5764 C.2       11 UNK         0.5000 
     68 O           2.8696  -22.2003  -48.1840 O.2       11 UNK        -0.5000 
     69 N           0.8122  -21.3711  -47.6911 N.am      12 UNK        -0.5000 
     70 CA          0.0269  -22.1844  -48.6197 C.3       12 UNK         0.1400 
     71 CB         -1.4352  -21.7126  -48.6005 C.3       12 UNK        -0.1800 
     72 C           0.1237  -23.6940  -48.3409 C.2       12 UNK         0.5000 
     73 O           0.4280  -24.4565  -49.2587 O.2       12 UNK        -0.5000 
     74 N          -0.1227  -24.0900  -47.0830 N.am      13 UNK        -0.5000 
     75 CA         -0.0959  -25.4593  -46.5646 C.3       13 UNK         0.1400 
     76 CB          1.3670  -25.9242  -46.3922 C.3       13 UNK        -0.1800 
     77 C          -0.9665  -26.4177  -47.4064 C.2       13 UNK         0.5000 
     78 O          -2.1943  -26.3461  -47.3314 O.2       13 UNK        -0.5000 
     79 N          -0.3185  -27.2676  -48.2141 N.am      14 UNK        -0.5000 
     80 CA         -0.9421  -28.2200  -49.1327 C.3       14 UNK         0.1400 
     81 CB          0.1396  -29.1745  -49.6614 C.3       14 UNK        -0.1800 
     82 C          -1.7056  -27.5698  -50.3050 C.2       14 UNK         0.5000 
     83 O          -2.5437  -28.2409  -50.9102 O.2       14 UNK        -0.5000 
     84 N          -1.4306  -26.2923  -50.6121 N.am      15 UNK        -0.5000 
     85 CA         -2.1324  -25.5073  -51.6296 C.3       15 UNK         0.1400 
     86 CB         -1.2701  -24.3015  -52.0443 C.3       15 UNK        -0.1800 
     87 C          -3.5290  -25.0860  -51.1330 C.2       15 UNK         0.5000 
     88 O          -3.7283  -23.9346  -50.7427 O.2       15 UNK        -0.5000 
     89 N          -4.4520  -26.0585  -51.1131 N.am      16 UNK        -0.5000 
     90 CA         -5.8893  -25.9561  -50.8234 C.3       16 UNK         0.1400 
     91 CB         -6.5907  -25.1722  -51.9517 C.3       16 UNK        -0.1800 
     92 C          -6.2502  -25.3900  -49.4317 C.2       16 UNK         0.5000 
     93 O          -7.4041  -25.0139  -49.2194 O.2       16 UNK        -0.5000 
     94 N          -5.2695  -25.3285  -48.5165 N.am      17 UNK        -0.5000 
     95 CA         -5.3087  -24.6111  -47.2381 C.3       17 UNK         0.1400 
     96 CB         -6.2628  -25.3008  -46.2411 C.3       17 UNK        -0.1800 
     97 C          -5.6045  -23.1076  -47.4368 C.2       17 UNK         0.5000 
     98 O          -6.4341  -22.5396  -46.7246 O.2       17 UNK        -0.5000 
     99 N          -4.9189  -22.5095  -48.4237 N.am      18 UNK        -0.5000 
    100 CA        -5.0864  -21.1472  -48.9265 C.3       18 UNK         0.1400 
    101 CB        -4.8299  -20.0806  -47.8366 C.3       18 UNK        -0.1800 
    102 C         -6.4250  -21.0001  -49.6693 C.2       18 UNK         0.5000 
    103 O         -6.6014  -21.6423  -50.7056 O.2       18 UNK        -0.5000 
    104 N         -7.3200  -20.1340  -49.1718 N.am      19 UNK        -0.5000 
    105 CA        -8.5848  -19.7392  -49.7991 C.3       19 UNK         0.1400 
    106 CB        -9.5994  -20.9046  -49.7585 C.3       19 UNK        -0.1800 
    107 C         -8.3270  -19.1626  -51.2074 C.2       19 UNK         0.5000 
    108 O         -7.5287  -18.2325  -51.3327 O.2       19 UNK        -0.5000 
    109 N         -8.9377  -19.7446  -52.2461 N.am      20 UNK        -0.5000 
    110 CA        -8.7585  -19.3588  -53.6482 C.3       20 UNK         0.1400 
    111 CB        -9.7441  -20.1635  -54.5097 C.3       20 UNK        -0.1800 
    112 C         -7.3188  -19.5221  -54.1845 C.2       20 UNK         0.5000 
    113 O         -6.9776  -18.8788  -55.1778 O.2       20 UNK        -0.5000 
    114 N         -6.5023  -20.3662  -53.5367 N.am      21 UNK        -0.5000 
    115 CA        -5.1244  -20.6469  -53.9408 C.3       21 UNK         0.1400 
    116 CB        -4.7703  -22.0878  -53.5414 C.3       21 UNK        -0.1800 
    117 C         -4.0912  -19.6599  -53.3619 C.2       21 UNK         0.5000 
    118 O         -2.9352  -19.7165  -53.7837 O.2       21 UNK        -0.5000 
    119 N         -4.4808  -18.7944  -52.4126 N.am      22 UNK        -0.5000 
    120 CA        -3.5518  -17.8610  -51.7469 C.3       22 UNK         0.1400 
    121 C         -4.1876  -16.5346  -51.2377 C.2       22 UNK         0.5000 
    122 N         -5.5029  -16.3854  -51.1605 N.am      22 UNK        -0.7600 
    123 O         -3.4691  -15.5877  -50.9334 O.2       22 UNK        -0.5000 
    124 C124       -2.7040  -18.5783  -50.6572 C.3       23 UNK        -0.0398 
    125 S125       -1.0291  -17.8913  -50.4544 S.3       23 UNK        -0.2404 
    126 C126       -0.0915  -18.8689  -51.6638 C.3       23 UNK        -0.0205 
    127 H127        7.2521  -16.8480  -48.6298 H         1 UNK         0.0600 
    128 H128        8.0809  -15.5050  -47.8370 H         1 UNK         0.0600 
    129 H129        8.5460  -15.9911  -49.4712 H         1 UNK         0.0600 
    130 H130        5.2431  -16.2809  -49.3392 H         1 UNK         0.3000 
    131 H131        3.5086  -15.2784  -50.2032 H         1 UNK         0.0600 
    132 H132        3.6310  -13.6475  -52.0085 H         1 UNK         0.0800 
    133 H133        5.2398  -13.1664  -51.5597 H         1 UNK         0.0800 
    134 H134        4.0580  -16.6172  -54.2957 H         1 UNK         0.0800 
    135 H135        3.0216  -15.3917  -53.6094 H         1 UNK         0.0800 
    136 H136        1.2488  -17.0127  -53.1520 H         1 UNK         0.1150 
    137 H137        1.8233  -19.9134  -50.0585 H         1 UNK         0.1150 
    138 H138        5.1416  -17.5975  -51.4363 H         1 UNK         0.1150 
    139 H139        4.2059  -20.5242  -49.4884 H         1 UNK         0.0800 
    140 H140        5.5059  -19.5056  -50.0066 H         1 UNK         0.0800 
    141 H141        2.0884  -18.7831  -48.0061 H         1 UNK         0.0800 
    142 H142        2.7360  -18.2019  -46.5243 H         1 UNK         0.0800 
    143 H143        3.7919  -20.7184  -46.3949 H         1 UNK         0.0600 
    144 H144        1.3609  -19.6150  -45.2136 H         1 UNK         0.3000 
    145 H145        1.0705  -22.2167  -42.7998 H         1 UNK         0.0600 
    146 H146        1.0712  -20.2462  -41.2745 H         1 UNK         0.0600 
    147 H147        2.7078  -20.6262  -41.7894 H         1 UNK         0.0600 
    148 H148        1.8585  -19.2639  -42.5089 H         1 UNK         0.0600 
    149 H149       -0.3613  -19.7808  -43.4238 H         1 UNK         0.3000 
    150 H150       -2.2031  -20.3296  -45.7288 H         1 UNK         0.0600 
    151 H151       -3.3979  -22.4574  -45.5138 H         1 UNK         0.0600 
    152 H152       -4.4683  -21.1654  -44.9935 H         1 UNK         0.0600 
    153 H153       -3.6824  -22.1981  -43.8017 H         1 UNK         0.0600 
    154 H154       -2.5712  -18.6607  -44.3736 H         1 UNK         0.3000 
    155 H155       -3.8902  -18.1209  -41.2921 H         1 UNK         0.0600 
    156 H156       -0.8441  -17.8737  -41.5624 H         1 UNK         0.0600 
    157 H157       -1.6941  -18.6572  -40.2359 H         1 UNK         0.0600 
    158 H158       -1.8602  -16.9260  -40.4768 H         1 UNK         0.0600 
    159 H159       -2.2534  -16.4432  -42.9779 H         1 UNK         0.3000 
    160 H160       -4.8266  -15.7551  -45.3785 H         1 UNK         0.0600 
    161 H161       -3.4472  -14.0090  -43.2720 H         1 UNK         0.0600 
    162 H162       -5.1891  -14.1922  -43.4498 H         1 UNK         0.0600 
    163 H163       -4.2537  -13.4428  -44.7338 H         1 UNK         0.0600 
    164 H164       -2.1779  -14.8001  -45.2562 H         1 UNK         0.3000 
    165 H165       -0.6839  -17.4056  -47.2691 H         1 UNK         0.0600 
    166 H166       -0.0440  -15.3437  -48.4487 H         1 UNK         0.0600 
    167 H167       -1.7730  -15.5964  -48.6406 H         1 UNK         0.0600 
    168 H168       -1.1870  -14.3899  -47.5078 H         1 UNK         0.0600 
    169 H169        0.4616  -15.1749  -45.8930 H         1 UNK         0.3000 
    170 H170        1.2877  -16.8472  -42.8664 H         1 UNK         0.0600 
    171 H171        3.1802  -17.4982  -44.2880 H         1 UNK         0.0600 
    172 H172        3.0912  -15.9885  -45.1903 H         1 UNK         0.0600 
    173 H173        3.5684  -15.9844  -43.4917 H         1 UNK         0.0600 
    174 H174        1.7768  -14.2104  -43.9199 H         1 UNK         0.3000 
    175 H175       -1.1648  -12.7255  -42.5153 H         1 UNK         0.0600 
    176 H176        1.8168  -12.5448  -41.8173 H         1 UNK         0.0600 
    177 H177        0.5873  -11.3331  -41.4567 H         1 UNK         0.0600 
    178 H178        0.5232  -12.9073  -40.6808 H         1 UNK         0.0600 
    179 H179        1.0357  -11.6471  -43.9966 H         1 UNK         0.3000 
    180 H180       -0.4014  -12.0165  -47.2386 H         1 UNK         0.0600 
    181 H181        0.0220   -9.5437  -45.4780 H         1 UNK         0.0600 
    182 H182       -1.4978  -10.0017  -46.2373 H         1 UNK         0.0600 
    183 H183       -0.1222   -9.5623  -47.2360 H         1 UNK         0.0600 
    184 H184        1.9707  -10.7332  -46.5654 H         1 UNK         0.3000 
    185 H185        3.9126  -11.5878  -47.2062 H         1 UNK         0.0600 
    186 H186        4.1910  -12.1804  -44.7876 H         1 UNK         0.0600 
    187 H187        4.3415  -13.8816  -45.2097 H         1 UNK         0.0600 
    188 H188        5.5625  -12.7267  -45.7390 H         1 UNK         0.0600 
    189 H189        4.6909  -14.3283  -47.6028 H         1 UNK         0.3000 
    190 H190        0.3011  -20.7075  -47.1308 H         1 UNK         0.3000 
    191 H191        0.4218  -22.0085  -49.6226 H         1 UNK         0.0600 
    192 H192       -1.5103  -20.6460  -48.8102 H         1 UNK         0.0600 
    193 H193       -2.0201  -22.2342  -49.3583 H         1 UNK         0.0600 
    194 H194       -1.9103  -21.8997  -47.6374 H         1 UNK         0.0600 
    195 H195       -0.3678  -23.3886  -46.3879 H         1 UNK         0.3000 
    196 H196       -0.5502  -25.4242  -45.5733 H         1 UNK         0.0600 
    197 H197        1.4153  -26.9374  -45.9912 H         1 UNK         0.0600 
    198 H198        1.8954  -25.2768  -45.6917 H         1 UNK         0.0600 
    199 H199        1.9214  -25.9066  -47.3311 H         1 UNK         0.0600 
    200 H200        0.6896  -27.2184  -48.2383 H         1 UNK         0.3000 
    201 H201       -1.6662  -28.8063  -48.5633 H         1 UNK         0.0600 
    202 H202        0.6298  -29.7069  -48.8461 H         1 UNK         0.0600 
    203 H203        0.9061  -28.6402  -50.2243 H         1 UNK         0.0600 
    204 H204       -0.2909  -29.9259  -50.3249 H         1 UNK         0.0600 
    205 H205       -0.7353  -25.7935  -50.0634 H         1 UNK         0.3000 
    206 H206       -2.2677  -26.1281  -52.5179 H         1 UNK         0.0600 
    207 H207       -0.2875  -24.6191  -52.3931 H         1 UNK         0.0600 
    208 H208       -1.7428  -23.7498  -52.8575 H         1 UNK         0.0600 
    209 H209       -1.1231  -23.6012  -51.2232 H         1 UNK         0.0600 
    210 H210       -4.1239  -26.9917  -51.3406 H         1 UNK         0.3000 
    211 H211       -6.2729  -26.9770  -50.8404 H         1 UNK         0.0600 
    212 H212       -6.3143  -24.1180  -51.9348 H         1 UNK         0.0600 
    213 H213       -7.6756  -25.2249  -51.8549 H         1 UNK         0.0600 
    214 H214       -6.3345  -25.5718  -52.9329 H         1 UNK         0.0600 
    215 H215       -4.3605  -25.6797  -48.7850 H         1 UNK         0.3000 
    216 H216       -4.3025  -24.6686  -46.8210 H         1 UNK         0.0600 
    217 H217       -6.1956  -24.8373  -45.2562 H         1 UNK         0.0600 
    218 H218       -6.0113  -26.3545  -46.1212 H         1 UNK         0.0600 
    219 H219       -7.3032  -25.2375  -46.5605 H         1 UNK         0.0600 
    220 H220       -4.3611  -23.1042  -49.0298 H         1 UNK         0.3000 
    221 H221       -4.3173  -21.0186  -49.6887 H         1 UNK         0.0600 
    222 H222       -5.5182  -20.1579  -46.9958 H         1 UNK         0.0600 
    223 H223       -3.8185  -20.1660  -47.4436 H         1 UNK         0.0600 
    224 H224       -4.9276  -19.0716  -48.2377 H         1 UNK         0.0600 
    225 H225       -7.0799  -19.6423  -48.3232 H         1 UNK         0.3000 
    226 H226       -8.9907  -18.9214  -49.2024 H         1 UNK         0.0600 
    227 H227       -9.7538  -21.2457  -48.7347 H         1 UNK         0.0600 
    228 H228      -10.5727  -20.5947  -50.1408 H         1 UNK         0.0600 
    229 H229       -9.2681  -21.7652  -50.3409 H         1 UNK         0.0600 
    230 H230       -9.5473  -20.5293  -52.0678 H         1 UNK         0.3000 
    231 H231       -9.0150  -18.3009  -53.7346 H         1 UNK         0.0600 
    232 H232       -9.5529  -21.2353  -54.4428 H         1 UNK         0.0600 
    233 H233       -9.6671  -19.8814  -55.5607 H         1 UNK         0.0600 
    234 H234      -10.7748  -19.9852  -54.2027 H         1 UNK         0.0600 
    235 H235       -6.8344  -20.8438  -52.7058 H         1 UNK         0.3000 
    236 H236       -5.0526  -20.5837  -55.0286 H         1 UNK         0.0600 
    237 H237       -5.4851  -22.8016  -53.9506 H         1 UNK         0.0600 
    238 H238       -3.7839  -22.3677  -53.9130 H         1 UNK         0.0600 
    239 H239       -4.7533  -22.2089  -52.4592 H         1 UNK         0.0600 
    240 H240       -5.4512  -18.7641  -52.1312 H         1 UNK         0.3000 
    241 H241       -2.8658  -17.5197  -52.5250 H         1 UNK         0.0600 
    242 H242       -6.1724  -17.1302  -51.3433 H         1 UNK         0.3800 
    243 H243       -5.8565  -15.4966  -50.8456 H         1 UNK         0.3800 
    244 H244       -2.5959  -19.6394  -50.8843 H         1 UNK         0.0800 
    245 H245       -3.2047  -18.5377  -49.6905 H         1 UNK         0.0800 
    246 H246       -0.4913  -18.6950  -52.6641 H         1 UNK         0.0800 
    247 H247       -0.2201  -19.9327  -51.4577 H         1 UNK         0.0800 
@<TRIPOS>BOND
     1    1    2 1    
     2    1  127 1    
     3    1  128 1    
     4    1  129 1    
     5    2    3 2    
     6    2    4 am   BACKBONE|DICT|INTERRES
     7    4    5 1    
     8    4  130 1    
     9    5    6 1    
    10    5   65 1    
    11    5  131 1    
    12    6    7 1    
    13    6  132 1    
    14    6  133 1    
    15    7    8 1    
    16    8    9 1    
    17    8  134 1    
    18    8  135 1    
    19    9   10 ar   
    20    9   14 ar   
    21   10   11 ar   
    22   10  136 1    
    23   11   12 ar   
    24   11  126 1    
    25   12   13 ar   
    26   12  137 1    
    27   13   14 ar   
    28   13   15 1    
    29   14  138 1    
    30   15   16 1    
    31   15  139 1    
    32   15  140 1    
    33   16   17 1    
    34   17   18 1    
    35   17  141 1    
    36   17  142 1    
    37   18   19 1    
    38   18   67 1    
    39   18  143 1    
    40   19   20 am   BACKBONE|DICT|INTERRES
    41   19  144 1    
    42   20   21 2    
    43   20   22 1    
    44   22   23 1    
    45   22   24 1    
    46   22  145 1    
    47   23  146 1    
    48   23  147 1    
    49   23  148 1    
    50   24   25 am   BACKBONE|DICT|INTERRES
    51   24  149 1    
    52   25   26 2    
    53   25   27 1    
    54   27   28 1    
    55   27   29 1    
    56   27  150 1    
    57   28  151 1    
    58   28  152 1    
    59   28  153 1    
    60   29   30 am   BACKBONE|DICT|INTERRES
    61   29  154 1    
    62   30   31 2    
    63   30   32 1    
    64   32   33 1    
    65   32   34 1    
    66   32  155 1    
    67   33  156 1    
    68   33  157 1    
    69   33  158 1    
    70   34   35 am   BACKBONE|DICT|INTERRES
    71   34  159 1    
    72   35   36 2    
    73   35   37 1    
    74   37   38 1    
    75   37   39 1    
    76   37  160 1    
    77   38  161 1    
    78   38  162 1    
    79   38  163 1    
    80   39   40 am   BACKBONE|DICT|INTERRES
    81   39  164 1    
    82   40   41 2    
    83   40   42 1    
    84   42   43 1    
    85   42   44 1    
    86   42  165 1    
    87   43  166 1    
    88   43  167 1    
    89   43  168 1    
    90   44   45 am   BACKBONE|DICT|INTERRES
    91   44  169 1    
    92   45   46 2    
    93   45   47 1    
    94   47   48 1    
    95   47   49 1    
    96   47  170 1    
    97   48  171 1    
    98   48  172 1    
    99   48  173 1    
   100   49   50 am   BACKBONE|DICT|INTERRES
   101   49  174 1    
   102   50   51 2    
   103   50   52 1    
   104   52   53 1    
   105   52   54 1    
   106   52  175 1    
   107   53  176 1    
   108   53  177 1    
   109   53  178 1    
   110   54   55 am   BACKBONE|DICT|INTERRES
   111   54  179 1    
   112   55   56 2    
   113   55   57 1    
   114   57   58 1    
   115   57   59 1    
   116   57  180 1    
   117   58  181 1    
   118   58  182 1    
   119   58  183 1    
   120   59   60 am   BACKBONE|DICT|INTERRES
   121   59  184 1    
   122   60   61 2    
   123   60   62 1    
   124   62   63 1    
   125   62   64 1    
   126   62  185 1    
   127   63  186 1    
   128   63  187 1    
   129   63  188 1    
   130   64   65 am   BACKBONE|DICT|INTERRES
   131   64  189 1    
   132   65   66 2    
   133   67   68 2    
   134   67   69 am   BACKBONE|DICT|INTERRES
   135   69   70 1    
   136   69  190 1    
   137   70   71 1    
   138   70   72 1    
   139   70  191 1    
   140   71  192 1    
   141   71  193 1    
   142   71  194 1    
   143   72   73 2    
   144   72   74 am   BACKBONE|DICT|INTERRES
   145   74   75 1    
   146   74  195 1    
   147   75   76 1    
   148   75   77 1    
   149   75  196 1    
   150   76  197 1    
   151   76  198 1    
   152   76  199 1    
   153   77   78 2    
   154   77   79 am   BACKBONE|DICT|INTERRES
   155   79   80 1    
   156   79  200 1    
   157   80   81 1    
   158   80   82 1    
   159   80  201 1    
   160   81  202 1    
   161   81  203 1    
   162   81  204 1    
   163   82   83 2    
   164   82   84 am   BACKBONE|DICT|INTERRES
   165   84   85 1    
   166   84  205 1    
   167   85   86 1    
   168   85   87 1    
   169   85  206 1    
   170   86  207 1    
   171   86  208 1    
   172   86  209 1    
   173   87   88 2    
   174   87   89 am   BACKBONE|DICT|INTERRES
   175   89   90 1    
   176   89  210 1    
   177   90   91 1    
   178   90   92 1    
   179   90  211 1    
   180   91  212 1    
   181   91  213 1    
   182   91  214 1    
   183   92   93 2    
   184   92   94 am   BACKBONE|DICT|INTERRES
   185   94   95 1    
   186   94  215 1    
   187   95   96 1    
   188   95   97 1    
   189   95  216 1    
   190   96  217 1    
   191   96  218 1    
   192   96  219 1    
   193   97   98 2    
   194   97   99 am   BACKBONE|DICT|INTERRES
   195   99  100 1    
   196   99  220 1    
   197  100  101 1    
   198  100  102 1    
   199  100  221 1    
   200  101  222 1    
   201  101  223 1    
   202  101  224 1    
   203  102  103 2    
   204  102  104 am   BACKBONE|DICT|INTERRES
   205  104  105 1    
   206  104  225 1    
   207  105  106 1    
   208  105  107 1    
   209  105  226 1    
   210  106  227 1    
   211  106  228 1    
   212  106  229 1    
   213  107  108 2    
   214  107  109 am   BACKBONE|DICT|INTERRES
   215  109  110 1    
   216  109  230 1    
   217  110  111 1    
   218  110  112 1    
   219  110  231 1    
   220  111  232 1    
   221  111  233 1    
   222  111  234 1    
   223  112  113 2    
   224  112  114 am   BACKBONE|DICT|INTERRES
   225  114  115 1    
   226  114  235 1    
   227  115  116 1    
   228  115  117 1    
   229  115  236 1    
   230  116  237 1    
   231  116  238 1    
   232  116  239 1    
   233  117  118 2    
   234  117  119 am   BACKBONE|DICT|INTERRES
   235  119  120 1    
   236  119  240 1    
   237  120  121 1    
   238  120  124 1    
   239  120  241 1    
   240  121  122 am   BACKBONE|DICT|INTERRES
   241  121  123 2    
   242  122  242 1    
   243  122  243 1    
   244  124  125 1    
   245  124  244 1    
   246  124  245 1    
   247  125  126 1    
   248  126  246 1    
   249  126  247 1    
@<TRIPOS>SUBSTRUCTURE
     1 UNK         1 GROUP             0       ****    0 ROOT    
