@<TRIPOS>MOLECULE
3R540
247   249    1
SMALL
USER_CHARGES


@<TRIPOS>ATOM
      1 CA          0.1317  -18.6566  -51.4766 C.3       0 UNK        -0.1800 
      2 C          -0.1980  -17.4105  -50.6688 C.2       0 UNK         0.5000 
      3 O          -1.3705  -17.0633  -50.5376 O.2       0 UNK        -0.5000 
      4 N           0.8283  -16.7297  -50.1446 N.am      1 UNK        -0.5000 
      5 CA          0.6974  -15.5125  -49.3368 C.3       1 UNK         0.1400 
      6 C6          2.0592  -14.8035  -49.1391 C.3       23 UNK        -0.0398 
      7 S7          2.7046  -14.1228  -50.7041 S.3       23 UNK        -0.2404 
      8 C8          4.3378  -14.9152  -50.8298 C.3       23 UNK        -0.0205 
      9 C9          4.2380  -16.3953  -51.1650 C.ar      23 UNK        -0.0193 
     10 C10         3.8700  -16.7996  -52.4511 C.ar      23 UNK        -0.1150 
     11 C11         3.8093  -18.1561  -52.7836 C.ar      23 UNK        -0.0193 
     12 C12         4.1234  -19.1106  -51.8093 C.ar      23 UNK        -0.1150 
     13 C13         4.4764  -18.7218  -50.5139 C.ar      23 UNK        -0.0193 
     14 C14         4.5411  -17.3603  -50.2016 C.ar      23 UNK        -0.1150 
     15 C15         4.8062  -19.7794  -49.4667 C.3       23 UNK        -0.0205 
     16 S16         3.9079  -19.5440  -47.8982 S.3       23 UNK        -0.2404 
     17 C17         2.1658  -19.7193  -48.4188 C.3       23 UNK        -0.0398 
     18 CA          1.5369  -21.0724  -48.0089 C.3       11 UNK         0.1400 
     19 N           1.6580  -21.3247  -46.5755 N.am      11 UNK        -0.5000 
     20 C           1.9499  -22.5134  -46.0371 C.2       10 UNK         0.5000 
     21 O           1.9371  -23.5740  -46.6626 O.2       10 UNK        -0.5000 
     22 CA          2.3709  -22.5097  -44.5593 C.3       10 UNK         0.1400 
     23 CB          3.7366  -21.8247  -44.3834 C.3       10 UNK        -0.1800 
     24 N           1.3851  -21.8317  -43.7251 N.am      10 UNK        -0.5000 
     25 C           0.4036  -22.4523  -43.0596 C.2       9 UNK         0.5000 
     26 O           0.2503  -23.6741  -43.0530 O.2       9 UNK        -0.5000 
     27 CA         -0.5704  -21.5740  -42.2490 C.3       9 UNK         0.1400 
     28 CB         -0.1943  -21.6011  -40.7596 C.3       9 UNK        -0.1800 
     29 N          -0.6387  -20.1819  -42.6962 N.am      9 UNK        -0.5000 
     30 C          -1.1082  -19.7805  -43.8852 C.2       8 UNK         0.5000 
     31 O          -1.5329  -20.5470  -44.7485 O.2       8 UNK        -0.5000 
     32 CA         -1.0339  -18.2714  -44.1784 C.3       8 UNK         0.1400 
     33 CB         -2.1649  -17.5221  -43.4577 C.3       8 UNK        -0.1800 
     34 N           0.2555  -17.6853  -43.8136 N.am      8 UNK        -0.5000 
     35 C           1.4374  -18.0631  -44.3220 C.2       7 UNK         0.5000 
     36 O           1.5740  -18.9713  -45.1387 O.2       7 UNK        -0.5000 
     37 CA          2.6819  -17.3491  -43.7766 C.3       7 UNK         0.1400 
     38 CB          2.8337  -15.9514  -44.3992 C.3       7 UNK        -0.1800 
     39 N           2.6336  -17.2549  -42.3177 N.am      7 UNK        -0.5000 
     40 C           2.8071  -18.2993  -41.4935 C.2       6 UNK         0.5000 
     41 O           3.1045  -19.4310  -41.8752 O.2       6 UNK        -0.5000 
     42 CA          2.5838  -18.0439  -39.9911 C.3       6 UNK         0.1400 
     43 CB          3.8763  -17.5412  -39.3308 C.3       6 UNK        -0.1800 
     44 N           1.5056  -17.0892  -39.7288 N.am      6 UNK        -0.5000 
     45 C           0.2099  -17.3147  -39.9887 C.2       5 UNK         0.5000 
     46 O          -0.2220  -18.3664  -40.4584 O.2       5 UNK        -0.5000 
     47 CA         -0.7569  -16.1428  -39.7332 C.3       5 UNK         0.1400 
     48 CB         -1.2122  -16.1267  -38.2665 C.3       5 UNK        -0.1800 
     49 N          -0.1882  -14.8368  -40.0835 N.am      5 UNK        -0.5000 
     50 C           0.2176  -14.4976  -41.3132 C.2       4 UNK         0.5000 
     51 O           0.1698  -15.2611  -42.2835 O.2       4 UNK        -0.5000 
     52 CA          0.8160  -13.0957  -41.4836 C.3       4 UNK         0.1400 
     53 CB          2.2591  -13.0424  -40.9539 C.3       4 UNK        -0.1800 
     54 N           0.8093  -12.7968  -42.9069 N.am      4 UNK        -0.5000 
     55 C           0.6729  -11.5977  -43.4771 C.2       3 UNK         0.5000 
     56 O           0.6366  -10.5390  -42.8488 O.2       3 UNK        -0.5000 
     57 CA          0.5464  -11.5814  -45.0150 C.3       3 UNK         0.1400 
     58 CB          1.8819  -11.1762  -45.6583 C.3       3 UNK        -0.1800 
     59 N           0.1212  -12.8652  -45.5870 N.am      3 UNK        -0.5000 
     60 C          -1.0971  -13.4097  -45.4473 C.2       2 UNK         0.5000 
     61 O          -2.0116  -12.8745  -44.8199 O.2       2 UNK        -0.5000 
     62 CA         -1.3183  -14.7642  -46.1450 C.3       2 UNK         0.1400 
     63 CB         -2.8069  -15.1223  -46.3149 C.3       2 UNK        -0.1800 
     64 N          -0.6588  -14.7647  -47.4503 N.am      2 UNK        -0.5000 
     65 C           0.0321  -15.7849  -47.9703 C.2       1 UNK         0.5000 
     66 O           0.1858  -16.8686  -47.4049 O.2       1 UNK        -0.5000 
     67 C           0.0697  -21.1614  -48.4582 C.2       11 UNK         0.5000 
     68 O          -0.2512  -21.9976  -49.3018 O.2       11 UNK        -0.5000 
     69 N          -0.8020  -20.3083  -47.8977 N.am      12 UNK        -0.5000 
     70 CA         -2.2206  -20.2178  -48.2711 C.3       12 UNK         0.1400 
     71 CB         -2.8600  -18.9994  -47.5922 C.3       12 UNK        -0.1800 
     72 C          -3.0189  -21.4960  -47.9566 C.2       12 UNK         0.5000 
     73 O          -3.9278  -21.8512  -48.7111 O.2       12 UNK        -0.5000 
     74 N          -2.6240  -22.1869  -46.8794 N.am      13 UNK        -0.5000 
     75 CA         -3.1525  -23.4732  -46.4254 C.3       13 UNK         0.1400 
     76 CB         -2.4325  -23.8746  -45.1318 C.3       13 UNK        -0.1800 
     77 C          -3.0587  -24.6112  -47.4607 C.2       13 UNK         0.5000 
     78 O          -3.8380  -25.5609  -47.3703 O.2       13 UNK        -0.5000 
     79 N          -2.1571  -24.4864  -48.4485 N.am      14 UNK        -0.5000 
     80 CA         -2.0208  -25.4072  -49.5820 C.3       14 UNK         0.1400 
     81 CB         -0.7871  -25.0170  -50.4090 C.3       14 UNK        -0.1800 
     82 C          -3.2721  -25.4660  -50.4831 C.2       14 UNK         0.5000 
     83 O          -3.4743  -26.4710  -51.1656 O.2       14 UNK        -0.5000 
     84 N          -4.0994  -24.4134  -50.4443 N.am      15 UNK        -0.5000 
     85 CA         -5.4196  -24.3611  -51.0619 C.3       15 UNK         0.1400 
     86 CB         -5.3493  -23.5678  -52.3760 C.3       15 UNK        -0.1800 
     87 C          -6.4225  -23.7798  -50.0521 C.2       15 UNK         0.5000 
     88 O          -7.1850  -22.8723  -50.3934 O.2       15 UNK        -0.5000 
     89 N          -6.3692  -24.2969  -48.8144 N.am      16 UNK        -0.5000 
     90 CA         -7.1944  -23.9947  -47.6364 C.3       16 UNK         0.1400 
     91 CB         -8.6759  -24.3309  -47.8940 C.3       16 UNK        -0.1800 
     92 C          -7.0364  -22.5646  -47.0843 C.2       16 UNK         0.5000 
     93 O          -6.7329  -22.3975  -45.9030 O.2       16 UNK        -0.5000 
     94 N          -7.2430  -21.5689  -47.9460 N.am      17 UNK        -0.5000 
     95 CA         -7.1320  -20.1410  -47.6726 C.3       17 UNK         0.1400 
     96 CB         -8.4121  -19.6313  -46.9816 C.3       17 UNK        -0.1800 
     97 C          -6.8138  -19.4101  -48.9877 C.2       17 UNK         0.5000 
     98 O          -7.4460  -18.4025  -49.3077 O.2       17 UNK        -0.5000 
     99 N          -5.8496  -19.9633  -49.7382 N.am      18 UNK        -0.5000 
    100 CA        -5.3658  -19.5089  -51.0441 C.3       18 UNK         0.1400 
    101 CB        -4.6293  -18.1591  -50.9213 C.3       18 UNK        -0.1800 
    102 C         -6.4511  -19.5021  -52.1422 C.2       18 UNK         0.5000 
    103 O         -6.4606  -18.6091  -52.9906 O.2       18 UNK        -0.5000 
    104 N         -7.3406  -20.5065  -52.1241 N.am      19 UNK        -0.5000 
    105 CA        -8.4585  -20.6395  -53.0649 C.3       19 UNK         0.1400 
    106 CB        -9.4059  -21.7404  -52.5644 C.3       19 UNK        -0.1800 
    107 C         -8.0178  -20.9278  -54.5146 C.2       19 UNK         0.5000 
    108 O         -8.7127  -20.5342  -55.4521 O.2       19 UNK        -0.5000 
    109 N         -6.8721  -21.6010  -54.6663 N.am      20 UNK        -0.5000 
    110 CA        -6.2551  -21.9722  -55.9390 C.3       20 UNK         0.1400 
    111 CB        -6.9128  -23.2555  -56.4848 C.3       20 UNK        -0.1800 
    112 C         -4.7279  -22.1030  -55.7757 C.2       20 UNK         0.5000 
    113 O         -4.1075  -22.9447  -56.4277 O.2       20 UNK        -0.5000 
    114 N         -4.1493  -21.2880  -54.8824 N.am      21 UNK        -0.5000 
    115 CA        -2.7115  -21.2420  -54.6126 C.3       21 UNK         0.1400 
    116 CB        -2.4884  -20.8099  -53.1519 C.3       21 UNK        -0.1800 
    117 C         -1.9782  -20.3054  -55.5933 C.2       21 UNK         0.5000 
    118 O         -2.6040  -19.6602  -56.4378 O.2       21 UNK        -0.5000 
    119 N         -0.6523  -20.2421  -55.4412 N.am      22 UNK        -0.5000 
    120 CA         0.2834  -19.4142  -56.2206 C.3       22 UNK         0.1400 
    121 C          0.1642  -17.8694  -56.0327 C.2       22 UNK         0.5000 
    122 N         -0.6639  -17.3620  -55.1285 N.am      22 UNK        -0.7600 
    123 O          0.8340  -17.1146  -56.7324 O.2       22 UNK        -0.5000 
    124 C124        1.7410  -19.9078  -56.0193 C.3       23 UNK        -0.0398 
    125 S125        2.2484  -19.9484  -54.2624 S.3       23 UNK        -0.2404 
    126 C126        3.4374  -18.5687  -54.2043 C.3       23 UNK        -0.0205 
    127 H127       -0.2639  -18.5629  -52.4870 H         1 UNK         0.0600 
    128 H128        1.2059  -18.8173  -51.5526 H         1 UNK         0.0600 
    129 H129       -0.3153  -19.5357  -51.0142 H         1 UNK         0.0600 
    130 H130        1.7735  -17.0474  -50.3028 H         1 UNK         0.3000 
    131 H131        0.0394  -14.8345  -49.8853 H         1 UNK         0.0600 
    132 H132        2.7847  -15.4827  -48.6882 H         1 UNK         0.0800 
    133 H133        1.9653  -13.9629  -48.4494 H         1 UNK         0.0800 
    134 H134        4.9101  -14.4133  -51.6113 H         1 UNK         0.0800 
    135 H135        4.8915  -14.7589  -49.9026 H         1 UNK         0.0800 
    136 H136        3.6403  -16.0507  -53.1964 H         1 UNK         0.1150 
    137 H137        4.0905  -20.1611  -52.0616 H         1 UNK         0.1150 
    138 H138        4.8320  -17.0543  -49.2063 H         1 UNK         0.1150 
    139 H139        4.5920  -20.7809  -49.8431 H         1 UNK         0.0800 
    140 H140        5.8775  -19.7481  -49.2653 H         1 UNK         0.0800 
    141 H141        2.0941  -19.5853  -49.4972 H         1 UNK         0.0800 
    142 H142        1.6181  -18.8901  -47.9728 H         1 UNK         0.0800 
    143 H143        2.0838  -21.8473  -48.5513 H         1 UNK         0.0600 
    144 H144        1.6738  -20.4931  -45.9855 H         1 UNK         0.3000 
    145 H145        2.4821  -23.5482  -44.2402 H         1 UNK         0.0600 
    146 H146        4.0762  -21.8882  -43.3494 H         1 UNK         0.0600 
    147 H147        4.4957  -22.2992  -45.0063 H         1 UNK         0.0600 
    148 H148        3.7019  -20.7688  -44.6552 H         1 UNK         0.0600 
    149 H149        1.4316  -20.8221  -43.6934 H         1 UNK         0.3000 
    150 H150       -1.5664  -22.0077  -42.3567 H         1 UNK         0.0600 
    151 H151       -0.1460  -22.6239  -40.3838 H         1 UNK         0.0600 
    152 H152       -0.9311  -21.0694  -40.1573 H         1 UNK         0.0600 
    153 H153        0.7783  -21.1387  -40.5849 H         1 UNK         0.0600 
    154 H154       -0.3387  -19.4790  -42.0255 H         1 UNK         0.3000 
    155 H155       -1.1557  -18.1274  -45.2529 H         1 UNK         0.0600 
    156 H156       -2.1290  -17.6791  -42.3797 H         1 UNK         0.0600 
    157 H157       -3.1401  -17.8633  -43.8069 H         1 UNK         0.0600 
    158 H158       -2.1113  -16.4486  -43.6345 H         1 UNK         0.0600 
    159 H159        0.2347  -16.9166  -43.1485 H         1 UNK         0.3000 
    160 H160        3.5577  -17.9387  -44.0570 H         1 UNK         0.0600 
    161 H161        3.7298  -15.4509  -44.0325 H         1 UNK         0.0600 
    162 H162        1.9797  -15.3110  -44.1841 H         1 UNK         0.0600 
    163 H163        2.9203  -16.0215  -45.4845 H         1 UNK         0.0600 
    164 H164        2.3380  -16.3731  -41.9270 H         1 UNK         0.3000 
    165 H165        2.3119  -18.9962  -39.5305 H         1 UNK         0.0600 
    166 H166        3.7521  -17.4324  -38.2532 H         1 UNK         0.0600 
    167 H167        4.6955  -18.2430  -39.4930 H         1 UNK         0.0600 
    168 H168        4.1862  -16.5758  -39.7330 H         1 UNK         0.0600 
    169 H169        1.7705  -16.1945  -39.3445 H         1 UNK         0.3000 
    170 H170       -1.6367  -16.3001  -40.3603 H         1 UNK         0.0600 
    171 H171       -1.6559  -17.0828  -37.9854 H         1 UNK         0.0600 
    172 H172       -0.3799  -15.9384  -37.5872 H         1 UNK         0.0600 
    173 H173       -1.9661  -15.3579  -38.0960 H         1 UNK         0.0600 
    174 H174       -0.1125  -14.1622  -39.3357 H         1 UNK         0.3000 
    175 H175        0.1897  -12.3793  -40.9481 H         1 UNK         0.0600 
    176 H176        2.9018  -13.7614  -41.4638 H         1 UNK         0.0600 
    177 H177        2.6922  -12.0517  -41.0935 H         1 UNK         0.0600 
    178 H178        2.2966  -13.2638  -39.8868 H         1 UNK         0.0600 
    179 H179        0.7557  -13.6208  -43.4903 H         1 UNK         0.3000 
    180 H180       -0.2017  -10.8291  -45.2734 H         1 UNK         0.0600 
    181 H181        2.6677  -11.9022  -45.4452 H         1 UNK         0.0600 
    182 H182        2.2189  -10.2088  -45.2834 H         1 UNK         0.0600 
    183 H183        1.7889  -11.0883  -46.7409 H         1 UNK         0.0600 
    184 H184        0.8148  -13.3703  -46.1176 H         1 UNK         0.3000 
    185 H185       -0.8547  -15.5112  -45.4984 H         1 UNK         0.0600 
    186 H186       -3.3223  -15.1430  -45.3542 H         1 UNK         0.0600 
    187 H187       -3.3217  -14.4007  -46.9499 H         1 UNK         0.0600 
    188 H188       -2.9266  -16.1068  -46.7639 H         1 UNK         0.0600 
    189 H189       -0.7373  -13.9031  -47.9738 H         1 UNK         0.3000 
    190 H190       -0.4747  -19.6633  -47.1915 H         1 UNK         0.3000 
    191 H191       -2.2671  -20.0637  -49.3512 H         1 UNK         0.0600 
    192 H192       -2.8697  -19.0948  -46.5078 H         1 UNK         0.0600 
    193 H193       -3.8947  -18.8706  -47.9079 H         1 UNK         0.0600 
    194 H194       -2.3249  -18.0866  -47.8523 H         1 UNK         0.0600 
    195 H195       -1.9304  -21.7523  -46.2779 H         1 UNK         0.3000 
    196 H196       -4.2090  -23.3298  -46.1975 H         1 UNK         0.0600 
    197 H197       -2.5834  -23.1301  -44.3506 H         1 UNK         0.0600 
    198 H198       -1.3590  -23.9834  -45.2918 H         1 UNK         0.0600 
    199 H199       -2.8070  -24.8249  -44.7491 H         1 UNK         0.0600 
    200 H200       -1.5676  -23.6631  -48.4688 H         1 UNK         0.3000 
    201 H201       -1.8595  -26.4080  -49.1767 H         1 UNK         0.0600 
    202 H202       -0.9162  -24.0454  -50.8873 H         1 UNK         0.0600 
    203 H203       -0.6005  -25.7464  -51.1982 H         1 UNK         0.0600 
    204 H204        0.1088  -24.9708  -49.7893 H         1 UNK         0.0600 
    205 H205       -3.8653  -23.6293  -49.8435 H         1 UNK         0.3000 
    206 H206       -5.7694  -25.3696  -51.2915 H         1 UNK         0.0600 
    207 H207       -6.3097  -23.6040  -52.8897 H         1 UNK         0.0600 
    208 H208       -5.0951  -22.5241  -52.1987 H         1 UNK         0.0600 
    209 H209       -4.6032  -23.9864  -53.0518 H         1 UNK         0.0600 
    210 H210       -5.6504  -24.9896  -48.6431 H         1 UNK         0.3000 
    211 H211       -6.8409  -24.6686  -46.8542 H         1 UNK         0.0600 
    212 H212       -9.1082  -23.7087  -48.6782 H         1 UNK         0.0600 
    213 H213       -9.2714  -24.1782  -46.9931 H         1 UNK         0.0600 
    214 H214       -8.7964  -25.3729  -48.1900 H         1 UNK         0.0600 
    215 H215       -7.4348  -21.8292  -48.9112 H         1 UNK         0.3000 
    216 H216       -6.2837  -19.9719  -47.0060 H         1 UNK         0.0600 
    217 H217       -8.3395  -18.5664  -46.7576 H         1 UNK         0.0600 
    218 H218       -8.5857  -20.1475  -46.0374 H         1 UNK         0.0600 
    219 H219       -9.2908  -19.7788  -47.6104 H         1 UNK         0.0600 
    220 H220       -5.3780  -20.7852  -49.3686 H         1 UNK         0.3000 
    221 H221       -4.6330  -20.2518  -51.3522 H         1 UNK         0.0600 
    222 H222       -5.3025  -17.3534  -50.6280 H         1 UNK         0.0600 
    223 H223       -3.8283  -18.2100  -50.1866 H         1 UNK         0.0600 
    224 H224       -4.1697  -17.8718  -51.8676 H         1 UNK         0.0600 
    225 H225       -7.2707  -21.2224  -51.4066 H         1 UNK         0.3000 
    226 H226       -9.0068  -19.6952  -53.0690 H         1 UNK         0.0600 
    227 H227       -9.7620  -21.5272  -51.5563 H         1 UNK         0.0600 
    228 H228      -10.2820  -21.8247  -53.2085 H         1 UNK         0.0600 
    229 H229       -8.9166  -22.7150  -52.5470 H         1 UNK         0.0600 
    230 H230       -6.3776  -21.8924  -53.8360 H         1 UNK         0.3000 
    231 H231       -6.4165  -21.1674  -56.6590 H         1 UNK         0.0600 
    232 H232       -7.9862  -23.1245  -56.6218 H         1 UNK         0.0600 
    233 H233       -6.7620  -24.0984  -55.8094 H         1 UNK         0.0600 
    234 H234       -6.4976  -23.5299  -57.4552 H         1 UNK         0.0600 
    235 H235       -4.7071  -20.5508  -54.4779 H         1 UNK         0.3000 
    236 H236       -2.2904  -22.2424  -54.7341 H         1 UNK         0.0600 
    237 H237       -1.4307  -20.8273  -52.8890 H         1 UNK         0.0600 
    238 H238       -2.8560  -19.8002  -52.9675 H         1 UNK         0.0600 
    239 H239       -2.9846  -21.4900  -52.4610 H         1 UNK         0.0600 
    240 H240       -0.2190  -20.7858  -54.7088 H         1 UNK         0.3000 
    241 H241        0.0364  -19.5832  -57.2703 H         1 UNK         0.0600 
    242 H242       -0.7324  -16.3619  -55.0284 H         1 UNK         0.3800 
    243 H243       -1.2463  -17.9649  -54.5733 H         1 UNK         0.3800 
    244 H244        1.8327  -20.9224  -56.4092 H         1 UNK         0.0800 
    245 H245        2.4443  -19.3122  -56.6040 H         1 UNK         0.0800 
    246 H246        4.3440  -18.8533  -54.7396 H         1 UNK         0.0800 
    247 H247        3.0110  -17.7185  -54.7393 H         1 UNK         0.0800 
@<TRIPOS>BOND
     1    1    2 1    
     2    1  127 1    
     3    1  128 1    
     4    1  129 1    
     5    2    3 2    
     6    2    4 am   BACKBONE|DICT|INTERRES
     7    4    5 1    
     8    4  130 1    
     9    5    6 1    
    10    5   65 1    
    11    5  131 1    
    12    6    7 1    
    13    6  132 1    
    14    6  133 1    
    15    7    8 1    
    16    8    9 1    
    17    8  134 1    
    18    8  135 1    
    19    9   10 ar   
    20    9   14 ar   
    21   10   11 ar   
    22   10  136 1    
    23   11   12 ar   
    24   11  126 1    
    25   12   13 ar   
    26   12  137 1    
    27   13   14 ar   
    28   13   15 1    
    29   14  138 1    
    30   15   16 1    
    31   15  139 1    
    32   15  140 1    
    33   16   17 1    
    34   17   18 1    
    35   17  141 1    
    36   17  142 1    
    37   18   19 1    
    38   18   67 1    
    39   18  143 1    
    40   19   20 am   BACKBONE|DICT|INTERRES
    41   19  144 1    
    42   20   21 2    
    43   20   22 1    
    44   22   23 1    
    45   22   24 1    
    46   22  145 1    
    47   23  146 1    
    48   23  147 1    
    49   23  148 1    
    50   24   25 am   BACKBONE|DICT|INTERRES
    51   24  149 1    
    52   25   26 2    
    53   25   27 1    
    54   27   28 1    
    55   27   29 1    
    56   27  150 1    
    57   28  151 1    
    58   28  152 1    
    59   28  153 1    
    60   29   30 am   BACKBONE|DICT|INTERRES
    61   29  154 1    
    62   30   31 2    
    63   30   32 1    
    64   32   33 1    
    65   32   34 1    
    66   32  155 1    
    67   33  156 1    
    68   33  157 1    
    69   33  158 1    
    70   34   35 am   BACKBONE|DICT|INTERRES
    71   34  159 1    
    72   35   36 2    
    73   35   37 1    
    74   37   38 1    
    75   37   39 1    
    76   37  160 1    
    77   38  161 1    
    78   38  162 1    
    79   38  163 1    
    80   39   40 am   BACKBONE|DICT|INTERRES
    81   39  164 1    
    82   40   41 2    
    83   40   42 1    
    84   42   43 1    
    85   42   44 1    
    86   42  165 1    
    87   43  166 1    
    88   43  167 1    
    89   43  168 1    
    90   44   45 am   BACKBONE|DICT|INTERRES
    91   44  169 1    
    92   45   46 2    
    93   45   47 1    
    94   47   48 1    
    95   47   49 1    
    96   47  170 1    
    97   48  171 1    
    98   48  172 1    
    99   48  173 1    
   100   49   50 am   BACKBONE|DICT|INTERRES
   101   49  174 1    
   102   50   51 2    
   103   50   52 1    
   104   52   53 1    
   105   52   54 1    
   106   52  175 1    
   107   53  176 1    
   108   53  177 1    
   109   53  178 1    
   110   54   55 am   BACKBONE|DICT|INTERRES
   111   54  179 1    
   112   55   56 2    
   113   55   57 1    
   114   57   58 1    
   115   57   59 1    
   116   57  180 1    
   117   58  181 1    
   118   58  182 1    
   119   58  183 1    
   120   59   60 am   BACKBONE|DICT|INTERRES
   121   59  184 1    
   122   60   61 2    
   123   60   62 1    
   124   62   63 1    
   125   62   64 1    
   126   62  185 1    
   127   63  186 1    
   128   63  187 1    
   129   63  188 1    
   130   64   65 am   BACKBONE|DICT|INTERRES
   131   64  189 1    
   132   65   66 2    
   133   67   68 2    
   134   67   69 am   BACKBONE|DICT|INTERRES
   135   69   70 1    
   136   69  190 1    
   137   70   71 1    
   138   70   72 1    
   139   70  191 1    
   140   71  192 1    
   141   71  193 1    
   142   71  194 1    
   143   72   73 2    
   144   72   74 am   BACKBONE|DICT|INTERRES
   145   74   75 1    
   146   74  195 1    
   147   75   76 1    
   148   75   77 1    
   149   75  196 1    
   150   76  197 1    
   151   76  198 1    
   152   76  199 1    
   153   77   78 2    
   154   77   79 am   BACKBONE|DICT|INTERRES
   155   79   80 1    
   156   79  200 1    
   157   80   81 1    
   158   80   82 1    
   159   80  201 1    
   160   81  202 1    
   161   81  203 1    
   162   81  204 1    
   163   82   83 2    
   164   82   84 am   BACKBONE|DICT|INTERRES
   165   84   85 1    
   166   84  205 1    
   167   85   86 1    
   168   85   87 1    
   169   85  206 1    
   170   86  207 1    
   171   86  208 1    
   172   86  209 1    
   173   87   88 2    
   174   87   89 am   BACKBONE|DICT|INTERRES
   175   89   90 1    
   176   89  210 1    
   177   90   91 1    
   178   90   92 1    
   179   90  211 1    
   180   91  212 1    
   181   91  213 1    
   182   91  214 1    
   183   92   93 2    
   184   92   94 am   BACKBONE|DICT|INTERRES
   185   94   95 1    
   186   94  215 1    
   187   95   96 1    
   188   95   97 1    
   189   95  216 1    
   190   96  217 1    
   191   96  218 1    
   192   96  219 1    
   193   97   98 2    
   194   97   99 am   BACKBONE|DICT|INTERRES
   195   99  100 1    
   196   99  220 1    
   197  100  101 1    
   198  100  102 1    
   199  100  221 1    
   200  101  222 1    
   201  101  223 1    
   202  101  224 1    
   203  102  103 2    
   204  102  104 am   BACKBONE|DICT|INTERRES
   205  104  105 1    
   206  104  225 1    
   207  105  106 1    
   208  105  107 1    
   209  105  226 1    
   210  106  227 1    
   211  106  228 1    
   212  106  229 1    
   213  107  108 2    
   214  107  109 am   BACKBONE|DICT|INTERRES
   215  109  110 1    
   216  109  230 1    
   217  110  111 1    
   218  110  112 1    
   219  110  231 1    
   220  111  232 1    
   221  111  233 1    
   222  111  234 1    
   223  112  113 2    
   224  112  114 am   BACKBONE|DICT|INTERRES
   225  114  115 1    
   226  114  235 1    
   227  115  116 1    
   228  115  117 1    
   229  115  236 1    
   230  116  237 1    
   231  116  238 1    
   232  116  239 1    
   233  117  118 2    
   234  117  119 am   BACKBONE|DICT|INTERRES
   235  119  120 1    
   236  119  240 1    
   237  120  121 1    
   238  120  124 1    
   239  120  241 1    
   240  121  122 am   BACKBONE|DICT|INTERRES
   241  121  123 2    
   242  122  242 1    
   243  122  243 1    
   244  124  125 1    
   245  124  244 1    
   246  124  245 1    
   247  125  126 1    
   248  126  246 1    
   249  126  247 1    
@<TRIPOS>SUBSTRUCTURE
     1 UNK         1 GROUP             0       ****    0 ROOT    
