@<TRIPOS>MOLECULE
3R540
247   249    1
SMALL
USER_CHARGES


@<TRIPOS>ATOM
      1 CA          7.2253  -11.8023  -50.5773 C.3       0 UNK        -0.1800 
      2 C           5.9425  -12.2611  -49.8980 C.2       0 UNK         0.5000 
      3 O           5.2758  -11.4601  -49.2420 O.2       0 UNK        -0.5000 
      4 N           5.6028  -13.5470  -50.0431 N.am      1 UNK        -0.5000 
      5 CA          4.3732  -14.1606  -49.5338 C.3       1 UNK         0.1400 
      6 C6          4.4455  -15.7131  -49.4934 C.3       23 UNK        -0.0398 
      7 S7          5.2817  -16.5068  -50.9147 S.3       23 UNK        -0.2404 
      8 C8          3.9028  -16.8636  -52.0545 C.3       23 UNK        -0.0205 
      9 C9          2.8468  -17.8222  -51.5096 C.ar      23 UNK        -0.0193 
     10 C10         1.5040  -17.6010  -51.8264 C.ar      23 UNK        -0.1150 
     11 C11         0.5023  -18.4666  -51.3746 C.ar      23 UNK        -0.0193 
     12 C12         0.8664  -19.5818  -50.6138 C.ar      23 UNK        -0.1150 
     13 C13         2.2032  -19.8177  -50.2834 C.ar      23 UNK        -0.0193 
     14 C14         3.1898  -18.9384  -50.7377 C.ar      23 UNK        -0.1150 
     15 C15         2.5785  -21.0362  -49.4562 C.3       23 UNK        -0.0205 
     16 S16         2.4630  -20.7011  -47.6698 S.3       23 UNK        -0.2404 
     17 C17         2.7994  -22.3708  -47.0053 C.3       23 UNK        -0.0398 
     18 CA          1.5653  -23.1243  -46.4487 C.3       11 UNK         0.1400 
     19 N           1.0118  -22.5049  -45.2419 N.am      11 UNK        -0.5000 
     20 C           0.1685  -23.1185  -44.3983 C.2       10 UNK         0.5000 
     21 O          -0.2541  -24.2598  -44.5889 O.2       10 UNK        -0.5000 
     22 CA         -0.3144  -22.3242  -43.1675 C.3       10 UNK         0.1400 
     23 CB         -0.5677  -23.2223  -41.9398 C.3       10 UNK        -0.1800 
     24 N           0.5491  -21.1911  -42.8269 N.am      10 UNK        -0.5000 
     25 C           1.8186  -21.2079  -42.3962 C.2       9 UNK         0.5000 
     26 O           2.4633  -22.2334  -42.1766 O.2       9 UNK        -0.5000 
     27 CA          2.4925  -19.8351  -42.2073 C.3       9 UNK         0.1400 
     28 CB          3.3776  -19.5153  -43.4227 C.3       9 UNK        -0.1800 
     29 N           1.5278  -18.7477  -42.0246 N.am      9 UNK        -0.5000 
     30 C           0.8061  -18.5432  -40.9142 C.2       8 UNK         0.5000 
     31 O           0.9322  -19.2064  -39.8842 O.2       8 UNK        -0.5000 
     32 CA         -0.2591  -17.4326  -40.9791 C.3       8 UNK         0.1400 
     33 CB          0.3798  -16.0490  -40.7862 C.3       8 UNK        -0.1800 
     34 N          -1.0283  -17.4531  -42.2267 N.am      8 UNK        -0.5000 
     35 C          -1.8739  -18.4327  -42.5823 C.2       7 UNK         0.5000 
     36 O          -2.1023  -19.4238  -41.8894 O.2       7 UNK        -0.5000 
     37 CA         -2.5640  -18.3015  -43.9514 C.3       7 UNK         0.1400 
     38 CB         -3.7799  -17.3680  -43.8600 C.3       7 UNK        -0.1800 
     39 N          -1.6507  -17.8205  -44.9849 N.am      7 UNK        -0.5000 
     40 C          -0.6485  -18.5418  -45.5059 C.2       6 UNK         0.5000 
     41 O          -0.4447  -19.7270  -45.2411 O.2       6 UNK        -0.5000 
     42 CA          0.3108  -17.8084  -46.4563 C.3       6 UNK         0.1400 
     43 CB         -0.2332  -17.8235  -47.8884 C.3       6 UNK        -0.1800 
     44 N           0.5698  -16.4292  -46.0549 N.am      6 UNK        -0.5000 
     45 C           1.1944  -16.0548  -44.9322 C.2       5 UNK         0.5000 
     46 O           1.6289  -16.8423  -44.0945 O.2       5 UNK        -0.5000 
     47 CA          1.3185  -14.5425  -44.6885 C.3       5 UNK         0.1400 
     48 CB          2.5162  -13.9624  -45.4567 C.3       5 UNK        -0.1800 
     49 N           0.0998  -13.8279  -45.0657 N.am      5 UNK        -0.5000 
     50 C          -1.0591  -13.9026  -44.3980 C.2       4 UNK         0.5000 
     51 O          -1.2194  -14.5708  -43.3760 O.2       4 UNK        -0.5000 
     52 CA         -2.2452  -13.1274  -45.0013 C.3       4 UNK         0.1400 
     53 CB         -2.1350  -11.6279  -44.6863 C.3       4 UNK        -0.1800 
     54 N          -2.3629  -13.3147  -46.4494 N.am      4 UNK        -0.5000 
     55 C          -2.6780  -14.4819  -47.0267 C.2       3 UNK         0.5000 
     56 O          -2.9104  -15.5128  -46.3971 O.2       3 UNK        -0.5000 
     57 CA         -2.7149  -14.5189  -48.5663 C.3       3 UNK         0.1400 
     58 CB         -4.0695  -14.0074  -49.0801 C.3       3 UNK        -0.1800 
     59 N          -1.6312  -13.8053  -49.2574 N.am      3 UNK        -0.5000 
     60 C          -0.3221  -13.9236  -48.9968 C.2       2 UNK         0.5000 
     61 O           0.1290  -14.5264  -48.0200 O.2       2 UNK        -0.5000 
     62 CA          0.6590  -13.2592  -49.9757 C.3       2 UNK         0.1400 
     63 CB          0.5164  -11.7267  -49.9728 C.3       2 UNK        -0.1800 
     64 N           2.0009  -13.6353  -49.5495 N.am      2 UNK        -0.5000 
     65 C           3.1175  -13.6561  -50.2789 C.2       1 UNK         0.5000 
     66 O           3.1775  -13.3193  -51.4640 O.2       1 UNK        -0.5000 
     67 C           0.4797  -23.3736  -47.5155 C.2       11 UNK         0.5000 
     68 O           0.5165  -24.4017  -48.1900 O.2       11 UNK        -0.5000 
     69 N          -0.4988  -22.4601  -47.6072 N.am      12 UNK        -0.5000 
     70 CA         -1.6621  -22.5898  -48.4832 C.3       12 UNK         0.1400 
     71 CB         -2.4206  -21.2582  -48.5337 C.3       12 UNK        -0.1800 
     72 C          -2.6065  -23.7195  -48.0417 C.2       12 UNK         0.5000 
     73 O          -3.1989  -24.3810  -48.8951 O.2       12 UNK        -0.5000 
     74 N          -2.7268  -23.9238  -46.7231 N.am      13 UNK        -0.5000 
     75 CA         -3.5056  -25.0061  -46.1245 C.3       13 UNK         0.1400 
     76 CB         -3.7641  -24.7037  -44.6411 C.3       13 UNK        -0.1800 
     77 C          -2.8110  -26.3659  -46.3063 C.2       13 UNK         0.5000 
     78 O          -3.4759  -27.3379  -46.6617 O.2       13 UNK        -0.5000 
     79 N          -1.4824  -26.3989  -46.1224 N.am      14 UNK        -0.5000 
     80 CA         -0.6316  -27.5687  -46.3615 C.3       14 UNK         0.1400 
     81 CB          0.7949  -27.2708  -45.8766 C.3       14 UNK        -0.1800 
     82 C          -0.6244  -28.0147  -47.8372 C.2       14 UNK         0.5000 
     83 O          -0.6244  -29.2150  -48.1113 O.2       14 UNK        -0.5000 
     84 N          -0.6665  -27.0409  -48.7572 N.am      15 UNK        -0.5000 
     85 CA         -0.8170  -27.2468  -50.1997 C.3       15 UNK         0.1400 
     86 CB         -0.3997  -25.9571  -50.9255 C.3       15 UNK        -0.1800 
     87 C          -2.2441  -27.6565  -50.6237 C.2       15 UNK         0.5000 
     88 O          -2.4362  -28.0333  -51.7802 O.2       15 UNK        -0.5000 
     89 N          -3.2149  -27.5520  -49.7020 N.am      16 UNK        -0.5000 
     90 CA         -4.6521  -27.7979  -49.8720 C.3       16 UNK         0.1400 
     91 CB         -4.9263  -29.2742  -50.2266 C.3       16 UNK        -0.1800 
     92 C          -5.3388  -26.8076  -50.8379 C.2       16 UNK         0.5000 
     93 O          -6.3994  -27.1167  -51.3840 O.2       16 UNK        -0.5000 
     94 N          -4.7332  -25.6275  -51.0177 N.am      17 UNK        -0.5000 
     95 CA         -5.2634  -24.5269  -51.8177 C.3       17 UNK         0.1400 
     96 CB         -4.0901  -23.7212  -52.3998 C.3       17 UNK        -0.1800 
     97 C          -6.1680  -23.6182  -50.9708 C.2       17 UNK         0.5000 
     98 O          -7.2046  -23.1673  -51.4575 O.2       17 UNK        -0.5000 
     99 N          -5.7395  -23.3605  -49.7243 N.am      18 UNK        -0.5000 
    100 CA        -6.3726  -22.5130  -48.7036 C.3       18 UNK         0.1400 
    101 CB        -7.7067  -23.1332  -48.2415 C.3       18 UNK        -0.1800 
    102 C         -6.5178  -21.0237  -49.0989 C.2       18 UNK         0.5000 
    103 O         -7.2849  -20.3007  -48.4641 O.2       18 UNK        -0.5000 
    104 N         -5.7778  -20.5949  -50.1302 N.am      19 UNK        -0.5000 
    105 CA        -5.7373  -19.2410  -50.6787 C.3       19 UNK         0.1400 
    106 CB        -4.8593  -19.2798  -51.9410 C.3       19 UNK        -0.1800 
    107 C         -5.1639  -18.2173  -49.6736 C.2       19 UNK         0.5000 
    108 O         -4.0983  -18.4869  -49.1223 O.2       19 UNK        -0.5000 
    109 N         -5.7709  -17.0430  -49.4343 N.am      20 UNK        -0.5000 
    110 CA        -7.0687  -16.4995  -49.8665 C.3       20 UNK         0.1400 
    111 CB        -8.2427  -17.2700  -49.2291 C.3       20 UNK        -0.1800 
    112 C         -7.2348  -16.2809  -51.3854 C.2       20 UNK         0.5000 
    113 O         -8.3497  -16.3877  -51.8976 O.2       20 UNK        -0.5000 
    114 N         -6.1338  -15.9636  -52.0766 N.am      21 UNK        -0.5000 
    115 CA        -6.1236  -15.5975  -53.4982 C.3       21 UNK         0.1400 
    116 CB        -6.3205  -16.8295  -54.4040 C.3       21 UNK        -0.1800 
    117 C         -4.8300  -14.8587  -53.8687 C.2       21 UNK         0.5000 
    118 O         -4.8702  -13.9276  -54.6724 O.2       21 UNK        -0.5000 
    119 N         -3.7102  -15.2747  -53.2638 N.am      22 UNK        -0.5000 
    120 CA        -2.3649  -14.7100  -53.4622 C.3       22 UNK         0.1400 
    121 C         -2.1151  -13.3032  -52.8363 C.2       22 UNK         0.5000 
    122 N         -3.0617  -12.6998  -52.1279 N.am      22 UNK        -0.7600 
    123 O         -1.0409  -12.7368  -53.0093 O.2       22 UNK        -0.5000 
    124 C124       -1.2621  -15.7327  -53.0739 C.3       23 UNK        -0.0398 
    125 S125       -1.5162  -16.5111  -51.4350 S.3       23 UNK        -0.2404 
    126 C126       -0.9680  -18.2303  -51.7151 C.3       23 UNK        -0.0205 
    127 H127        7.0079  -11.0085  -51.2919 H         1 UNK         0.0600 
    128 H128        7.9246  -11.4142  -49.8368 H         1 UNK         0.0600 
    129 H129        7.7142  -12.6167  -51.1126 H         1 UNK         0.0600 
    130 H130        6.1734  -14.1540  -50.6151 H         1 UNK         0.3000 
    131 H131        4.2701  -13.8266  -48.4985 H         1 UNK         0.0600 
    132 H132        3.4603  -16.1587  -49.3429 H         1 UNK         0.0800 
    133 H133        5.0164  -16.0035  -48.6105 H         1 UNK         0.0800 
    134 H134        4.3152  -17.2965  -52.9664 H         1 UNK         0.0800 
    135 H135        3.4455  -15.9178  -52.3476 H         1 UNK         0.0800 
    136 H136        1.2430  -16.7497  -52.4340 H         1 UNK         0.1150 
    137 H137        0.1086  -20.2700  -50.2691 H         1 UNK         0.1150 
    138 H138        4.2254  -19.1291  -50.4945 H         1 UNK         0.1150 
    139 H139        1.9235  -21.8689  -49.7169 H         1 UNK         0.0800 
    140 H140        3.5933  -21.3555  -49.6988 H         1 UNK         0.0800 
    141 H141        3.5428  -22.2665  -46.2139 H         1 UNK         0.0800 
    142 H142        3.2847  -22.9759  -47.7730 H         1 UNK         0.0800 
    143 H143        1.9240  -24.1108  -46.1476 H         1 UNK         0.0600 
    144 H144        1.2532  -21.5396  -45.0667 H         1 UNK         0.3000 
    145 H145       -1.2721  -21.8881  -43.4547 H         1 UNK         0.0600 
    146 H146       -0.9099  -22.6347  -41.0877 H         1 UNK         0.0600 
    147 H147       -1.3377  -23.9654  -42.1492 H         1 UNK         0.0600 
    148 H148        0.3303  -23.7619  -41.6385 H         1 UNK         0.0600 
    149 H149        0.1404  -20.2844  -43.0092 H         1 UNK         0.3000 
    150 H150        3.1276  -19.8918  -41.3209 H         1 UNK         0.0600 
    151 H151        4.1320  -20.2884  -43.5739 H         1 UNK         0.0600 
    152 H152        3.9029  -18.5695  -43.2897 H         1 UNK         0.0600 
    153 H153        2.7910  -19.4448  -44.3401 H         1 UNK         0.0600 
    154 H154        1.4150  -18.1069  -42.8087 H         1 UNK         0.3000 
    155 H155       -0.9573  -17.5967  -40.1556 H         1 UNK         0.0600 
    156 H156        1.0730  -15.8079  -41.5920 H         1 UNK         0.0600 
    157 H157        0.9367  -16.0033  -39.8495 H         1 UNK         0.0600 
    158 H158       -0.3783  -15.2664  -40.7520 H         1 UNK         0.0600 
    159 H159       -0.9226  -16.6511  -42.8371 H         1 UNK         0.3000 
    160 H160       -2.9193  -19.2920  -44.2437 H         1 UNK         0.0600 
    161 H161       -4.3261  -17.3424  -44.8032 H         1 UNK         0.0600 
    162 H162       -3.4863  -16.3460  -43.6166 H         1 UNK         0.0600 
    163 H163       -4.4756  -17.7043  -43.0904 H         1 UNK         0.0600 
    164 H164       -1.7986  -16.8736  -45.3175 H         1 UNK         0.3000 
    165 H165        1.2643  -18.3379  -46.4417 H         1 UNK         0.0600 
    166 H166        0.4598  -17.3457  -48.5813 H         1 UNK         0.0600 
    167 H167       -0.3793  -18.8471  -48.2272 H         1 UNK         0.0600 
    168 H168       -1.1926  -17.3119  -47.9655 H         1 UNK         0.0600 
    169 H169        0.2741  -15.7061  -46.7087 H         1 UNK         0.3000 
    170 H170        1.4915  -14.3867  -43.6217 H         1 UNK         0.0600 
    171 H171        3.4421  -14.4607  -45.1667 H         1 UNK         0.0600 
    172 H172        2.4037  -14.0827  -46.5338 H         1 UNK         0.0600 
    173 H173        2.6405  -12.8996  -45.2489 H         1 UNK         0.0600 
    174 H174        0.1193  -13.3288  -45.9432 H         1 UNK         0.3000 
    175 H175       -3.1580  -13.5052  -44.5354 H         1 UNK         0.0600 
    176 H176       -3.0149  -11.0868  -45.0349 H         1 UNK         0.0600 
    177 H177       -2.0565  -11.4602  -43.6113 H         1 UNK         0.0600 
    178 H178       -1.2578  -11.1789  -45.1537 H         1 UNK         0.0600 
    179 H179       -2.1747  -12.5168  -47.0380 H         1 UNK         0.3000 
    180 H180       -2.6314  -15.5701  -48.8469 H         1 UNK         0.0600 
    181 H181       -4.1390  -12.9210  -49.0156 H         1 UNK         0.0600 
    182 H182       -4.8966  -14.4186  -48.5006 H         1 UNK         0.0600 
    183 H183       -4.2276  -14.2957  -50.1182 H         1 UNK         0.0600 
    184 H184       -1.9080  -13.2847  -50.0776 H         1 UNK         0.3000 
    185 H185        0.4742  -13.6582  -50.9743 H         1 UNK         0.0600 
    186 H186        0.6723  -11.3103  -48.9769 H         1 UNK         0.0600 
    187 H187        1.2377  -11.2629  -50.6458 H         1 UNK         0.0600 
    188 H188       -0.4751  -11.4219  -50.3088 H         1 UNK         0.0600 
    189 H189        2.0082  -14.0022  -48.6058 H         1 UNK         0.3000 
    190 H190       -0.4529  -21.6429  -47.0130 H         1 UNK         0.3000 
    191 H191       -1.3110  -22.8234  -49.4905 H         1 UNK         0.0600 
    192 H192       -1.8076  -20.4657  -48.9572 H         1 UNK         0.0600 
    193 H193       -2.7490  -20.9351  -47.5449 H         1 UNK         0.0600 
    194 H194       -3.3049  -21.3398  -49.1639 H         1 UNK         0.0600 
    195 H195       -2.1803  -23.3552  -46.0944 H         1 UNK         0.3000 
    196 H196       -4.4726  -25.0539  -46.6307 H         1 UNK         0.0600 
    197 H197       -4.3850  -25.4789  -44.1902 H         1 UNK         0.0600 
    198 H198       -4.2878  -23.7557  -44.5174 H         1 UNK         0.0600 
    199 H199       -2.8390  -24.6533  -44.0677 H         1 UNK         0.0600 
    200 H200       -1.0190  -25.5676  -45.7659 H         1 UNK         0.3000 
    201 H201       -1.0283  -28.3942  -45.7670 H         1 UNK         0.0600 
    202 H202        0.8043  -26.9949  -44.8219 H         1 UNK         0.0600 
    203 H203        1.2488  -26.4557  -46.4400 H         1 UNK         0.0600 
    204 H204        1.4363  -28.1455  -45.9908 H         1 UNK         0.0600 
    205 H205       -0.5698  -26.0788  -48.4488 H         1 UNK         0.3000 
    206 H206       -0.1415  -28.0475  -50.5076 H         1 UNK         0.0600 
    207 H207        0.6292  -25.6862  -50.6883 H         1 UNK         0.0600 
    208 H208       -0.4612  -26.0762  -52.0079 H         1 UNK         0.0600 
    209 H209       -1.0392  -25.1175  -50.6510 H         1 UNK         0.0600 
    210 H210       -2.9477  -27.2468  -48.7747 H         1 UNK         0.3000 
    211 H211       -5.1009  -27.6114  -48.8956 H         1 UNK         0.0600 
    212 H212       -4.5837  -29.5219  -51.2315 H         1 UNK         0.0600 
    213 H213       -5.9934  -29.4950  -50.1834 H         1 UNK         0.0600 
    214 H214       -4.4295  -29.9457  -49.5264 H         1 UNK         0.0600 
    215 H215       -3.9019  -25.4328  -50.4708 H         1 UNK         0.3000 
    216 H216       -5.8528  -24.9221  -52.6479 H         1 UNK         0.0600 
    217 H217       -4.4496  -22.8882  -53.0054 H         1 UNK         0.0600 
    218 H218       -3.4680  -24.3451  -53.0419 H         1 UNK         0.0600 
    219 H219       -3.4510  -23.3089  -51.6177 H         1 UNK         0.0600 
    220 H220       -4.8650  -23.7940  -49.4391 H         1 UNK         0.3000 
    221 H221       -5.6955  -22.5243  -47.8483 H         1 UNK         0.0600 
    222 H222       -8.4611  -23.1011  -49.0280 H         1 UNK         0.0600 
    223 H223       -7.5751  -24.1737  -47.9447 H         1 UNK         0.0600 
    224 H224       -8.1107  -22.6009  -47.3797 H         1 UNK         0.0600 
    225 H225       -5.1749  -21.2681  -50.5754 H         1 UNK         0.3000 
    226 H226       -6.7493  -18.9748  -50.9738 H         1 UNK         0.0600 
    227 H227       -5.3399  -19.8461  -52.7390 H         1 UNK         0.0600 
    228 H228       -4.6618  -18.2793  -52.3207 H         1 UNK         0.0600 
    229 H229       -3.8897  -19.7379  -51.7418 H         1 UNK         0.0600 
    230 H230       -5.2946  -16.4493  -48.7729 H         1 UNK         0.3000 
    231 H231       -7.0997  -15.4955  -49.4411 H         1 UNK         0.0600 
    232 H232       -8.0753  -17.4398  -48.1653 H         1 UNK         0.0600 
    233 H233       -9.1705  -16.7043  -49.3210 H         1 UNK         0.0600 
    234 H234       -8.4146  -18.2367  -49.6994 H         1 UNK         0.0600 
    235 H235       -5.2696  -15.8397  -51.5714 H         1 UNK         0.3000 
    236 H236       -6.9490  -14.9043  -53.6752 H         1 UNK         0.0600 
    237 H237       -6.3889  -16.5291  -55.4502 H         1 UNK         0.0600 
    238 H238       -5.4908  -17.5311  -54.3259 H         1 UNK         0.0600 
    239 H239       -7.2380  -17.3669  -54.1658 H         1 UNK         0.0600 
    240 H240       -3.7408  -16.0742  -52.6507 H         1 UNK         0.3000 
    241 H241       -2.2580  -14.5409  -54.5354 H         1 UNK         0.0600 
    242 H242       -2.9021  -11.7617  -51.7964 H         1 UNK         0.3800 
    243 H243       -3.9792  -13.1050  -52.0544 H         1 UNK         0.3800 
    244 H244       -1.2360  -16.5156  -53.8323 H         1 UNK         0.0800 
    245 H245       -0.2751  -15.2695  -53.1036 H         1 UNK         0.0800 
    246 H246       -1.1582  -18.5351  -52.7444 H         1 UNK         0.0800 
    247 H247       -1.5952  -18.8686  -51.0908 H         1 UNK         0.0800 
@<TRIPOS>BOND
     1    1    2 1    
     2    1  127 1    
     3    1  128 1    
     4    1  129 1    
     5    2    3 2    
     6    2    4 am   BACKBONE|DICT|INTERRES
     7    4    5 1    
     8    4  130 1    
     9    5    6 1    
    10    5   65 1    
    11    5  131 1    
    12    6    7 1    
    13    6  132 1    
    14    6  133 1    
    15    7    8 1    
    16    8    9 1    
    17    8  134 1    
    18    8  135 1    
    19    9   10 ar   
    20    9   14 ar   
    21   10   11 ar   
    22   10  136 1    
    23   11   12 ar   
    24   11  126 1    
    25   12   13 ar   
    26   12  137 1    
    27   13   14 ar   
    28   13   15 1    
    29   14  138 1    
    30   15   16 1    
    31   15  139 1    
    32   15  140 1    
    33   16   17 1    
    34   17   18 1    
    35   17  141 1    
    36   17  142 1    
    37   18   19 1    
    38   18   67 1    
    39   18  143 1    
    40   19   20 am   BACKBONE|DICT|INTERRES
    41   19  144 1    
    42   20   21 2    
    43   20   22 1    
    44   22   23 1    
    45   22   24 1    
    46   22  145 1    
    47   23  146 1    
    48   23  147 1    
    49   23  148 1    
    50   24   25 am   BACKBONE|DICT|INTERRES
    51   24  149 1    
    52   25   26 2    
    53   25   27 1    
    54   27   28 1    
    55   27   29 1    
    56   27  150 1    
    57   28  151 1    
    58   28  152 1    
    59   28  153 1    
    60   29   30 am   BACKBONE|DICT|INTERRES
    61   29  154 1    
    62   30   31 2    
    63   30   32 1    
    64   32   33 1    
    65   32   34 1    
    66   32  155 1    
    67   33  156 1    
    68   33  157 1    
    69   33  158 1    
    70   34   35 am   BACKBONE|DICT|INTERRES
    71   34  159 1    
    72   35   36 2    
    73   35   37 1    
    74   37   38 1    
    75   37   39 1    
    76   37  160 1    
    77   38  161 1    
    78   38  162 1    
    79   38  163 1    
    80   39   40 am   BACKBONE|DICT|INTERRES
    81   39  164 1    
    82   40   41 2    
    83   40   42 1    
    84   42   43 1    
    85   42   44 1    
    86   42  165 1    
    87   43  166 1    
    88   43  167 1    
    89   43  168 1    
    90   44   45 am   BACKBONE|DICT|INTERRES
    91   44  169 1    
    92   45   46 2    
    93   45   47 1    
    94   47   48 1    
    95   47   49 1    
    96   47  170 1    
    97   48  171 1    
    98   48  172 1    
    99   48  173 1    
   100   49   50 am   BACKBONE|DICT|INTERRES
   101   49  174 1    
   102   50   51 2    
   103   50   52 1    
   104   52   53 1    
   105   52   54 1    
   106   52  175 1    
   107   53  176 1    
   108   53  177 1    
   109   53  178 1    
   110   54   55 am   BACKBONE|DICT|INTERRES
   111   54  179 1    
   112   55   56 2    
   113   55   57 1    
   114   57   58 1    
   115   57   59 1    
   116   57  180 1    
   117   58  181 1    
   118   58  182 1    
   119   58  183 1    
   120   59   60 am   BACKBONE|DICT|INTERRES
   121   59  184 1    
   122   60   61 2    
   123   60   62 1    
   124   62   63 1    
   125   62   64 1    
   126   62  185 1    
   127   63  186 1    
   128   63  187 1    
   129   63  188 1    
   130   64   65 am   BACKBONE|DICT|INTERRES
   131   64  189 1    
   132   65   66 2    
   133   67   68 2    
   134   67   69 am   BACKBONE|DICT|INTERRES
   135   69   70 1    
   136   69  190 1    
   137   70   71 1    
   138   70   72 1    
   139   70  191 1    
   140   71  192 1    
   141   71  193 1    
   142   71  194 1    
   143   72   73 2    
   144   72   74 am   BACKBONE|DICT|INTERRES
   145   74   75 1    
   146   74  195 1    
   147   75   76 1    
   148   75   77 1    
   149   75  196 1    
   150   76  197 1    
   151   76  198 1    
   152   76  199 1    
   153   77   78 2    
   154   77   79 am   BACKBONE|DICT|INTERRES
   155   79   80 1    
   156   79  200 1    
   157   80   81 1    
   158   80   82 1    
   159   80  201 1    
   160   81  202 1    
   161   81  203 1    
   162   81  204 1    
   163   82   83 2    
   164   82   84 am   BACKBONE|DICT|INTERRES
   165   84   85 1    
   166   84  205 1    
   167   85   86 1    
   168   85   87 1    
   169   85  206 1    
   170   86  207 1    
   171   86  208 1    
   172   86  209 1    
   173   87   88 2    
   174   87   89 am   BACKBONE|DICT|INTERRES
   175   89   90 1    
   176   89  210 1    
   177   90   91 1    
   178   90   92 1    
   179   90  211 1    
   180   91  212 1    
   181   91  213 1    
   182   91  214 1    
   183   92   93 2    
   184   92   94 am   BACKBONE|DICT|INTERRES
   185   94   95 1    
   186   94  215 1    
   187   95   96 1    
   188   95   97 1    
   189   95  216 1    
   190   96  217 1    
   191   96  218 1    
   192   96  219 1    
   193   97   98 2    
   194   97   99 am   BACKBONE|DICT|INTERRES
   195   99  100 1    
   196   99  220 1    
   197  100  101 1    
   198  100  102 1    
   199  100  221 1    
   200  101  222 1    
   201  101  223 1    
   202  101  224 1    
   203  102  103 2    
   204  102  104 am   BACKBONE|DICT|INTERRES
   205  104  105 1    
   206  104  225 1    
   207  105  106 1    
   208  105  107 1    
   209  105  226 1    
   210  106  227 1    
   211  106  228 1    
   212  106  229 1    
   213  107  108 2    
   214  107  109 am   BACKBONE|DICT|INTERRES
   215  109  110 1    
   216  109  230 1    
   217  110  111 1    
   218  110  112 1    
   219  110  231 1    
   220  111  232 1    
   221  111  233 1    
   222  111  234 1    
   223  112  113 2    
   224  112  114 am   BACKBONE|DICT|INTERRES
   225  114  115 1    
   226  114  235 1    
   227  115  116 1    
   228  115  117 1    
   229  115  236 1    
   230  116  237 1    
   231  116  238 1    
   232  116  239 1    
   233  117  118 2    
   234  117  119 am   BACKBONE|DICT|INTERRES
   235  119  120 1    
   236  119  240 1    
   237  120  121 1    
   238  120  124 1    
   239  120  241 1    
   240  121  122 am   BACKBONE|DICT|INTERRES
   241  121  123 2    
   242  122  242 1    
   243  122  243 1    
   244  124  125 1    
   245  124  244 1    
   246  124  245 1    
   247  125  126 1    
   248  126  246 1    
   249  126  247 1    
@<TRIPOS>SUBSTRUCTURE
     1 UNK         1 GROUP             0       ****    0 ROOT    
