@<TRIPOS>MOLECULE
3R540
247   249    1
SMALL
USER_CHARGES


@<TRIPOS>ATOM
      1 CA         -0.0831   -7.9534  -46.2623 C.3       0 UNK        -0.1800 
      2 C           0.5642   -9.3081  -46.5130 C.2       0 UNK         0.5000 
      3 O           0.8805  -10.0118  -45.5544 O.2       0 UNK        -0.5000 
      4 N           0.7412   -9.6662  -47.7938 N.am      1 UNK        -0.5000 
      5 CA          1.3859  -10.8813  -48.3109 C.3       1 UNK         0.1400 
      6 C6          0.8278  -12.1873  -47.6863 C.3       23 UNK        -0.0398 
      7 S7          1.0738  -13.6601  -48.7301 S.3       23 UNK        -0.2404 
      8 C8          0.5541  -14.9500  -47.5593 C.3       23 UNK        -0.0205 
      9 C9          0.2105  -16.2472  -48.2725 C.ar      23 UNK        -0.0193 
     10 C10        -1.0879  -16.4630  -48.7467 C.ar      23 UNK        -0.1150 
     11 C11        -1.4271  -17.6705  -49.3642 C.ar      23 UNK        -0.0193 
     12 C12        -0.4470  -18.6514  -49.5321 C.ar      23 UNK        -0.1150 
     13 C13         0.8540  -18.4488  -49.0635 C.ar      23 UNK        -0.0193 
     14 C14         1.1764  -17.2452  -48.4311 C.ar      23 UNK        -0.1150 
     15 C15         1.9051  -19.5361  -49.2329 C.3       23 UNK        -0.0205 
     16 S16         1.9551  -20.6649  -47.8045 S.3       23 UNK        -0.2404 
     17 C17         0.2882  -21.3989  -47.8866 C.3       23 UNK        -0.0398 
     18 CA          0.1408  -22.6739  -47.0305 C.3       11 UNK         0.1400 
     19 N           0.2938  -22.4166  -45.5971 N.am      11 UNK        -0.5000 
     20 C           0.3208  -23.3642  -44.6498 C.2       10 UNK         0.5000 
     21 O           0.2671  -24.5717  -44.8843 O.2       10 UNK        -0.5000 
     22 CA          0.3492  -22.8777  -43.1920 C.3       10 UNK         0.1400 
     23 CB          1.7636  -22.4444  -42.7768 C.3       10 UNK        -0.1800 
     24 N          -0.5928  -21.7810  -42.9697 N.am      10 UNK        -0.5000 
     25 C          -1.9264  -21.9134  -43.0023 C.2       9 UNK         0.5000 
     26 O          -2.5036  -22.9842  -43.1923 O.2       9 UNK        -0.5000 
     27 CA         -2.7516  -20.6257  -42.8282 C.3       9 UNK         0.1400 
     28 CB         -2.8876  -20.2637  -41.3417 C.3       9 UNK        -0.1800 
     29 N          -2.1816  -19.4891  -43.5510 N.am      9 UNK        -0.5000 
     30 C          -2.1077  -19.3985  -44.8862 C.2       8 UNK         0.5000 
     31 O          -2.5300  -20.2574  -45.6572 O.2       8 UNK        -0.5000 
     32 CA         -1.3972  -18.1604  -45.4564 C.3       8 UNK         0.1400 
     33 CB         -2.3816  -16.9865  -45.5616 C.3       8 UNK        -0.1800 
     34 N          -0.2238  -17.7549  -44.6795 N.am      8 UNK        -0.5000 
     35 C           0.8424  -18.5351  -44.4424 C.2       7 UNK         0.5000 
     36 O           0.9177  -19.7108  -44.7955 O.2       7 UNK        -0.5000 
     37 CA          2.0132  -17.9202  -43.6586 C.3       7 UNK         0.1400 
     38 CB          3.1146  -17.4691  -44.6282 C.3       7 UNK        -0.1800 
     39 N           1.6085  -16.7970  -42.8112 N.am      7 UNK        -0.5000 
     40 C           0.8991  -16.9291  -41.6792 C.2       6 UNK         0.5000 
     41 O           0.5278  -18.0170  -41.2364 O.2       6 UNK        -0.5000 
     42 CA          0.5195  -15.6408  -40.9193 C.3       6 UNK         0.1400 
     43 CB          1.5381  -15.3571  -39.8050 C.3       6 UNK        -0.1800 
     44 N           0.4142  -14.4595  -41.7767 N.am      6 UNK        -0.5000 
     45 C          -0.4839  -14.2993  -42.7579 C.2       5 UNK         0.5000 
     46 O          -1.3718  -15.1142  -43.0054 O.2       5 UNK        -0.5000 
     47 CA         -0.3417  -13.0444  -43.6427 C.3       5 UNK         0.1400 
     48 CB         -1.3108  -11.9466  -43.1803 C.3       5 UNK        -0.1800 
     49 N           1.0136  -12.4844  -43.7160 N.am      5 UNK        -0.5000 
     50 C           2.1035  -13.1395  -44.1350 C.2       4 UNK         0.5000 
     51 O           2.1024  -14.3416  -44.4027 O.2       4 UNK        -0.5000 
     52 CA          3.3878  -12.3015  -44.2787 C.3       4 UNK         0.1400 
     53 CB          4.1753  -12.2421  -42.9554 C.3       4 UNK        -0.1800 
     54 N           4.2091  -12.7562  -45.4070 N.am      4 UNK        -0.5000 
     55 C           4.9522  -13.8696  -45.5208 C.2       3 UNK         0.5000 
     56 O           5.2424  -14.6082  -44.5795 O.2       3 UNK        -0.5000 
     57 CA          5.4454  -14.2461  -46.9351 C.3       3 UNK         0.1400 
     58 CB          4.8957  -15.6218  -47.3461 C.3       3 UNK        -0.1800 
     59 N           5.0437  -13.2773  -47.9566 N.am      3 UNK        -0.5000 
     60 C           5.7534  -12.2030  -48.3238 C.2       2 UNK         0.5000 
     61 O           6.8671  -11.9296  -47.8758 O.2       2 UNK        -0.5000 
     62 CA          5.0876  -11.2593  -49.3459 C.3       2 UNK         0.1400 
     63 CB          5.5041  -11.6358  -50.7759 C.3       2 UNK        -0.1800 
     64 N           3.6217  -11.2419  -49.2616 N.am      2 UNK        -0.5000 
     65 C           2.9247  -10.7993  -48.2057 C.2       1 UNK         0.5000 
     66 O           3.4608  -10.3772  -47.1798 O.2       1 UNK        -0.5000 
     67 C          -1.1997  -23.3655  -47.3419 C.2       11 UNK         0.5000 
     68 O          -1.2061  -24.3531  -48.0734 O.2       11 UNK        -0.5000 
     69 N          -2.3016  -22.8701  -46.7599 N.am      12 UNK        -0.5000 
     70 CA         -3.6382  -23.4447  -46.9076 C.3       12 UNK         0.1400 
     71 CB         -4.6804  -22.5319  -46.2461 C.3       12 UNK        -0.1800 
     72 C          -3.7466  -24.8776  -46.3598 C.2       12 UNK         0.5000 
     73 O          -4.4039  -25.7079  -46.9869 O.2       12 UNK        -0.5000 
     74 N          -3.0839  -25.1542  -45.2296 N.am      13 UNK        -0.5000 
     75 CA         -2.9916  -26.4926  -44.6487 C.3       13 UNK         0.1400 
     76 CB         -2.4116  -26.3992  -43.2291 C.3       13 UNK        -0.1800 
     77 C          -2.1640  -27.4563  -45.5202 C.2       13 UNK         0.5000 
     78 O          -2.5785  -28.5979  -45.7233 O.2       13 UNK        -0.5000 
     79 N          -1.0169  -26.9797  -46.0218 N.am      14 UNK        -0.5000 
     80 CA         -0.0801  -27.7596  -46.8294 C.3       14 UNK         0.1400 
     81 CB          1.2734  -27.0334  -46.8748 C.3       14 UNK        -0.1800 
     82 C          -0.5847  -28.0435  -48.2557 C.2       14 UNK         0.5000 
     83 O          -0.4641  -29.1754  -48.7260 O.2       14 UNK        -0.5000 
     84 N          -1.1161  -27.0125  -48.9239 N.am      15 UNK        -0.5000 
     85 CA         -1.4625  -27.0260  -50.3469 C.3       15 UNK         0.1400 
     86 CB         -0.8948  -25.7542  -51.0018 C.3       15 UNK        -0.1800 
     87 C          -2.9747  -27.1642  -50.6058 C.2       15 UNK         0.5000 
     88 O          -3.4026  -26.9450  -51.7394 O.2       15 UNK        -0.5000 
     89 N          -3.7561  -27.5165  -49.5728 N.am      16 UNK        -0.5000 
     90 CA         -5.2052  -27.7623  -49.5984 C.3       16 UNK         0.1400 
     91 CB         -5.5216  -29.0451  -50.3952 C.3       16 UNK        -0.1800 
     92 C          -5.9949  -26.5343  -50.0971 C.2       16 UNK         0.5000 
     93 O          -6.5963  -26.5649  -51.1716 O.2       16 UNK        -0.5000 
     94 N          -5.9127  -25.4560  -49.3082 N.am      17 UNK        -0.5000 
     95 CA         -6.4464  -24.1038  -49.5260 C.3       17 UNK         0.1400 
     96 CB         -7.9531  -24.1168  -49.8546 C.3       17 UNK        -0.1800 
     97 C          -5.6419  -23.2588  -50.5352 C.2       17 UNK         0.5000 
     98 O          -5.9504  -22.0781  -50.7000 O.2       17 UNK        -0.5000 
     99 N          -4.6219  -23.8524  -51.1729 N.am      18 UNK        -0.5000 
    100 CA        -3.6585  -23.2836  -52.1271 C.3       18 UNK         0.1400 
    101 CB        -2.8319  -22.1551  -51.4789 C.3       18 UNK        -0.1800 
    102 C         -4.2528  -22.8494  -53.4844 C.2       18 UNK         0.5000 
    103 O         -3.6260  -23.1007  -54.5148 O.2       18 UNK        -0.5000 
    104 N         -5.4488  -22.2464  -53.4652 N.am      19 UNK        -0.5000 
    105 CA        -6.2337  -21.7553  -54.6016 C.3       19 UNK         0.1400 
    106 CB        -6.6939  -22.9348  -55.4868 C.3       19 UNK        -0.1800 
    107 C         -5.5236  -20.6343  -55.3939 C.2       19 UNK         0.5000 
    108 O         -4.6165  -19.9848  -54.8670 O.2       19 UNK        -0.5000 
    109 N         -5.9851  -20.3881  -56.6298 N.am      20 UNK        -0.5000 
    110 CA        -5.5473  -19.3208  -57.5363 C.3       20 UNK         0.1400 
    111 CB        -4.1207  -19.6046  -58.0599 C.3       20 UNK        -0.1800 
    112 C         -5.7216  -17.9367  -56.8767 C.2       20 UNK         0.5000 
    113 O         -6.8538  -17.5655  -56.5599 O.2       20 UNK        -0.5000 
    114 N         -4.6135  -17.2269  -56.6244 N.am      21 UNK        -0.5000 
    115 CA        -4.5702  -15.9472  -55.9107 C.3       21 UNK         0.1400 
    116 CB        -3.1329  -15.4058  -55.9477 C.3       21 UNK        -0.1800 
    117 C         -5.0811  -16.0209  -54.4557 C.2       21 UNK         0.5000 
    118 O         -5.5452  -15.0078  -53.9307 O.2       21 UNK        -0.5000 
    119 N         -5.0100  -17.2095  -53.8429 N.am      22 UNK        -0.5000 
    120 CA        -5.5679  -17.5065  -52.5148 C.3       22 UNK         0.1400 
    121 C         -7.0847  -17.8641  -52.5423 C.2       22 UNK         0.5000 
    122 N         -7.7426  -17.9476  -53.6944 N.am      22 UNK        -0.7600 
    123 O         -7.6867  -18.0564  -51.4898 O.2       22 UNK        -0.5000 
    124 C124       -4.7515  -18.6007  -51.7794 C.3       23 UNK        -0.0398 
    125 S125       -2.9845  -18.1700  -51.6056 S.3       23 UNK        -0.2404 
    126 C126       -2.8576  -17.9437  -49.8052 C.3       23 UNK        -0.0205 
    127 H127       -0.3309   -7.4417  -47.1926 H         1 UNK         0.0600 
    128 H128        0.5930   -7.3158  -45.6929 H         1 UNK         0.0600 
    129 H129       -1.0009   -8.0778  -45.6875 H         1 UNK         0.0600 
    130 H130        0.4586   -9.0109  -48.5093 H         1 UNK         0.3000 
    131 H131        1.1316  -10.8868  -49.3722 H         1 UNK         0.0600 
    132 H132        1.2631  -12.3677  -46.7049 H         1 UNK         0.0800 
    133 H133       -0.2465  -12.0877  -47.5244 H         1 UNK         0.0800 
    134 H134        1.3476  -15.1180  -46.8304 H         1 UNK         0.0800 
    135 H135       -0.3121  -14.6042  -46.9941 H         1 UNK         0.0800 
    136 H136       -1.8394  -15.6978  -48.6120 H         1 UNK         0.1150 
    137 H137       -0.7071  -19.5822  -50.0160 H         1 UNK         0.1150 
    138 H138        2.1775  -17.0922  -48.0566 H         1 UNK         0.1150 
    139 H139        1.7172  -20.1066  -50.1438 H         1 UNK         0.0800 
    140 H140        2.8893  -19.0819  -49.3571 H         1 UNK         0.0800 
    141 H141        0.0747  -21.6228  -48.9337 H         1 UNK         0.0800 
    142 H142       -0.4380  -20.6485  -47.5704 H         1 UNK         0.0800 
    143 H143        0.9328  -23.3678  -47.3207 H         1 UNK         0.0600 
    144 H144        0.3948  -21.4425  -45.3200 H         1 UNK         0.3000 
    145 H145        0.0520  -23.7140  -42.5555 H         1 UNK         0.0600 
    146 H146        1.7915  -22.1411  -41.7302 H         1 UNK         0.0600 
    147 H147        2.4709  -23.2659  -42.8964 H         1 UNK         0.0600 
    148 H148        2.1280  -21.6106  -43.3771 H         1 UNK         0.0600 
    149 H149       -0.1992  -20.8565  -42.8700 H         1 UNK         0.3000 
    150 H150       -3.7506  -20.8141  -43.2269 H         1 UNK         0.0600 
    151 H151       -3.5416  -19.4025  -41.2044 H         1 UNK         0.0600 
    152 H152       -3.3177  -21.0914  -40.7761 H         1 UNK         0.0600 
    153 H153       -1.9215  -20.0257  -40.8943 H         1 UNK         0.0600 
    154 H154       -1.7839  -18.7449  -42.9959 H         1 UNK         0.3000 
    155 H155       -1.0488  -18.4112  -46.4596 H         1 UNK         0.0600 
    156 H156       -2.8289  -16.7474  -44.5962 H         1 UNK         0.0600 
    157 H157       -3.1941  -17.2236  -46.2495 H         1 UNK         0.0600 
    158 H158       -1.8935  -16.0863  -45.9320 H         1 UNK         0.0600 
    159 H159       -0.2261  -16.8145  -44.3095 H         1 UNK         0.3000 
    160 H160        2.4275  -18.7013  -43.0176 H         1 UNK         0.0600 
    161 H161        2.7503  -16.7184  -45.3294 H         1 UNK         0.0600 
    162 H162        3.4842  -18.3097  -45.2170 H         1 UNK         0.0600 
    163 H163        3.9647  -17.0457  -44.0936 H         1 UNK         0.0600 
    164 H164        1.8457  -15.8696  -43.1518 H         1 UNK         0.3000 
    165 H165       -0.4561  -15.8082  -40.4581 H         1 UNK         0.0600 
    166 H166        1.2387  -14.4972  -39.2054 H         1 UNK         0.0600 
    167 H167        1.6250  -16.2086  -39.1287 H         1 UNK         0.0600 
    168 H168        2.5310  -15.1564  -40.2097 H         1 UNK         0.0600 
    169 H169        1.1144  -13.7433  -41.6533 H         1 UNK         0.3000 
    170 H170       -0.6223  -13.3378  -44.6563 H         1 UNK         0.0600 
    171 H171       -2.3356  -12.3185  -43.1421 H         1 UNK         0.0600 
    172 H172       -1.0562  -11.5797  -42.1852 H         1 UNK         0.0600 
    173 H173       -1.3003  -11.0978  -43.8648 H         1 UNK         0.0600 
    174 H174        1.0832  -11.4863  -43.5695 H         1 UNK         0.3000 
    175 H175        3.0922  -11.2826  -44.5323 H         1 UNK         0.0600 
    176 H176        4.3962  -13.2351  -42.5631 H         1 UNK         0.0600 
    177 H177        5.1184  -11.7098  -43.0795 H         1 UNK         0.0600 
    178 H178        3.6034  -11.7162  -42.1903 H         1 UNK         0.0600 
    179 H179        4.0893  -12.1994  -46.2438 H         1 UNK         0.3000 
    180 H180        6.5347  -14.3115  -46.8967 H         1 UNK         0.0600 
    181 H181        3.8065  -15.6184  -47.3713 H         1 UNK         0.0600 
    182 H182        5.2068  -16.3974  -46.6452 H         1 UNK         0.0600 
    183 H183        5.2550  -15.9143  -48.3328 H         1 UNK         0.0600 
    184 H184        4.1398  -13.4219  -48.3833 H         1 UNK         0.3000 
    185 H185        5.4472  -10.2487  -49.1407 H         1 UNK         0.0600 
    186 H186        6.5900  -11.6348  -50.8796 H         1 UNK         0.0600 
    187 H187        5.1491  -12.6300  -51.0502 H         1 UNK         0.0600 
    188 H188        5.1095  -10.9251  -51.5023 H         1 UNK         0.0600 
    189 H189        3.1232  -11.5922  -50.0675 H         1 UNK         0.3000 
    190 H190       -2.2370  -22.0199  -46.2047 H         1 UNK         0.3000 
    191 H191       -3.8541  -23.4873  -47.9766 H         1 UNK         0.0600 
    192 H192       -4.7147  -21.5575  -46.7336 H         1 UNK         0.0600 
    193 H193       -5.6808  -22.9616  -46.3083 H         1 UNK         0.0600 
    194 H194       -4.4597  -22.3714  -45.1904 H         1 UNK         0.0600 
    195 H195       -2.6076  -24.4053  -44.7389 H         1 UNK         0.3000 
    196 H196       -4.0027  -26.8983  -44.5724 H         1 UNK         0.0600 
    197 H197       -2.3472  -27.3852  -42.7675 H         1 UNK         0.0600 
    198 H198       -3.0394  -25.7799  -42.5882 H         1 UNK         0.0600 
    199 H199       -1.4096  -25.9695  -43.2285 H         1 UNK         0.0600 
    200 H200       -0.7282  -26.0375  -45.7751 H         1 UNK         0.3000 
    201 H201        0.0736  -28.7213  -46.3353 H         1 UNK         0.0600 
    202 H202        1.6882  -26.9119  -45.8739 H         1 UNK         0.0600 
    203 H203        1.1832  -26.0417  -47.3202 H         1 UNK         0.0600 
    204 H204        2.0007  -27.5945  -47.4628 H         1 UNK         0.0600 
    205 H205       -1.1779  -26.1036  -48.4659 H         1 UNK         0.3000 
    206 H206       -0.9879  -27.8797  -50.8348 H         1 UNK         0.0600 
    207 H207        0.1721  -25.6508  -50.8036 H         1 UNK         0.0600 
    208 H208       -1.0200  -25.7778  -52.0849 H         1 UNK         0.0600 
    209 H209       -1.3908  -24.8569  -50.6333 H         1 UNK         0.0600 
    210 H210       -3.3105  -27.6210  -48.6716 H         1 UNK         0.3000 
    211 H211       -5.5109  -27.9354  -48.5652 H         1 UNK         0.0600 
    212 H212       -5.2442  -28.9532  -51.4457 H         1 UNK         0.0600 
    213 H213       -6.5876  -29.2725  -50.3580 H         1 UNK         0.0600 
    214 H214       -4.9917  -29.9040  -49.9835 H         1 UNK         0.0600 
    215 H215       -5.3682  -25.5654  -48.4521 H         1 UNK         0.3000 
    216 H216       -6.3385  -23.5960  -48.5678 H         1 UNK         0.0600 
    217 H217       -8.3662  -23.1082  -49.8164 H         1 UNK         0.0600 
    218 H218       -8.5097  -24.7216  -49.1388 H         1 UNK         0.0600 
    219 H219       -8.1515  -24.5057  -50.8534 H         1 UNK         0.0600 
    220 H220       -4.5128  -24.8452  -51.0160 H         1 UNK         0.3000 
    221 H221       -2.9694  -24.0977  -52.3536 H         1 UNK         0.0600 
    222 H222       -3.4504  -21.3023  -51.2014 H         1 UNK         0.0600 
    223 H223       -2.3242  -22.5038  -50.5794 H         1 UNK         0.0600 
    224 H224       -2.0667  -21.7894  -52.1645 H         1 UNK         0.0600 
    225 H225       -5.8366  -22.0574  -52.5443 H         1 UNK         0.3000 
    226 H226       -7.1240  -21.2978  -54.1677 H         1 UNK         0.0600 
    227 H227       -7.1222  -23.7345  -54.8821 H         1 UNK         0.0600 
    228 H228       -7.4644  -22.6280  -56.1944 H         1 UNK         0.0600 
    229 H229       -5.8679  -23.3579  -56.0596 H         1 UNK         0.0600 
    230 H230       -6.7568  -20.9467  -56.9651 H         1 UNK         0.3000 
    231 H231       -6.2231  -19.3381  -58.3925 H         1 UNK         0.0600 
    232 H232       -3.3807  -19.6331  -57.2594 H         1 UNK         0.0600 
    233 H233       -3.8072  -18.8472  -58.7795 H         1 UNK         0.0600 
    234 H234       -4.0823  -20.5657  -58.5727 H         1 UNK         0.0600 
    235 H235       -3.7234  -17.6257  -56.8852 H         1 UNK         0.3000 
    236 H236       -5.2144  -15.2473  -56.4468 H         1 UNK         0.0600 
    237 H237       -2.7876  -15.2691  -56.9726 H         1 UNK         0.0600 
    238 H238       -3.0676  -14.4362  -55.4521 H         1 UNK         0.0600 
    239 H239       -2.4378  -16.0790  -55.4441 H         1 UNK         0.0600 
    240 H240       -4.6371  -18.0081  -54.3459 H         1 UNK         0.3000 
    241 H241       -5.4959  -16.6012  -51.9093 H         1 UNK         0.0600 
    242 H242       -7.2883  -17.7585  -54.5805 H         1 UNK         0.3800 
    243 H243       -8.7263  -18.1650  -53.6803 H         1 UNK         0.3800 
    244 H244       -5.1718  -18.7913  -50.7904 H         1 UNK         0.0800 
    245 H245       -4.8188  -19.5491  -52.3123 H         1 UNK         0.0800 
    246 H246       -3.5193  -17.1317  -49.4998 H         1 UNK         0.0800 
    247 H247       -3.2126  -18.8437  -49.3004 H         1 UNK         0.0800 
@<TRIPOS>BOND
     1    1    2 1    
     2    1  127 1    
     3    1  128 1    
     4    1  129 1    
     5    2    3 2    
     6    2    4 am   BACKBONE|DICT|INTERRES
     7    4    5 1    
     8    4  130 1    
     9    5    6 1    
    10    5   65 1    
    11    5  131 1    
    12    6    7 1    
    13    6  132 1    
    14    6  133 1    
    15    7    8 1    
    16    8    9 1    
    17    8  134 1    
    18    8  135 1    
    19    9   10 ar   
    20    9   14 ar   
    21   10   11 ar   
    22   10  136 1    
    23   11   12 ar   
    24   11  126 1    
    25   12   13 ar   
    26   12  137 1    
    27   13   14 ar   
    28   13   15 1    
    29   14  138 1    
    30   15   16 1    
    31   15  139 1    
    32   15  140 1    
    33   16   17 1    
    34   17   18 1    
    35   17  141 1    
    36   17  142 1    
    37   18   19 1    
    38   18   67 1    
    39   18  143 1    
    40   19   20 am   BACKBONE|DICT|INTERRES
    41   19  144 1    
    42   20   21 2    
    43   20   22 1    
    44   22   23 1    
    45   22   24 1    
    46   22  145 1    
    47   23  146 1    
    48   23  147 1    
    49   23  148 1    
    50   24   25 am   BACKBONE|DICT|INTERRES
    51   24  149 1    
    52   25   26 2    
    53   25   27 1    
    54   27   28 1    
    55   27   29 1    
    56   27  150 1    
    57   28  151 1    
    58   28  152 1    
    59   28  153 1    
    60   29   30 am   BACKBONE|DICT|INTERRES
    61   29  154 1    
    62   30   31 2    
    63   30   32 1    
    64   32   33 1    
    65   32   34 1    
    66   32  155 1    
    67   33  156 1    
    68   33  157 1    
    69   33  158 1    
    70   34   35 am   BACKBONE|DICT|INTERRES
    71   34  159 1    
    72   35   36 2    
    73   35   37 1    
    74   37   38 1    
    75   37   39 1    
    76   37  160 1    
    77   38  161 1    
    78   38  162 1    
    79   38  163 1    
    80   39   40 am   BACKBONE|DICT|INTERRES
    81   39  164 1    
    82   40   41 2    
    83   40   42 1    
    84   42   43 1    
    85   42   44 1    
    86   42  165 1    
    87   43  166 1    
    88   43  167 1    
    89   43  168 1    
    90   44   45 am   BACKBONE|DICT|INTERRES
    91   44  169 1    
    92   45   46 2    
    93   45   47 1    
    94   47   48 1    
    95   47   49 1    
    96   47  170 1    
    97   48  171 1    
    98   48  172 1    
    99   48  173 1    
   100   49   50 am   BACKBONE|DICT|INTERRES
   101   49  174 1    
   102   50   51 2    
   103   50   52 1    
   104   52   53 1    
   105   52   54 1    
   106   52  175 1    
   107   53  176 1    
   108   53  177 1    
   109   53  178 1    
   110   54   55 am   BACKBONE|DICT|INTERRES
   111   54  179 1    
   112   55   56 2    
   113   55   57 1    
   114   57   58 1    
   115   57   59 1    
   116   57  180 1    
   117   58  181 1    
   118   58  182 1    
   119   58  183 1    
   120   59   60 am   BACKBONE|DICT|INTERRES
   121   59  184 1    
   122   60   61 2    
   123   60   62 1    
   124   62   63 1    
   125   62   64 1    
   126   62  185 1    
   127   63  186 1    
   128   63  187 1    
   129   63  188 1    
   130   64   65 am   BACKBONE|DICT|INTERRES
   131   64  189 1    
   132   65   66 2    
   133   67   68 2    
   134   67   69 am   BACKBONE|DICT|INTERRES
   135   69   70 1    
   136   69  190 1    
   137   70   71 1    
   138   70   72 1    
   139   70  191 1    
   140   71  192 1    
   141   71  193 1    
   142   71  194 1    
   143   72   73 2    
   144   72   74 am   BACKBONE|DICT|INTERRES
   145   74   75 1    
   146   74  195 1    
   147   75   76 1    
   148   75   77 1    
   149   75  196 1    
   150   76  197 1    
   151   76  198 1    
   152   76  199 1    
   153   77   78 2    
   154   77   79 am   BACKBONE|DICT|INTERRES
   155   79   80 1    
   156   79  200 1    
   157   80   81 1    
   158   80   82 1    
   159   80  201 1    
   160   81  202 1    
   161   81  203 1    
   162   81  204 1    
   163   82   83 2    
   164   82   84 am   BACKBONE|DICT|INTERRES
   165   84   85 1    
   166   84  205 1    
   167   85   86 1    
   168   85   87 1    
   169   85  206 1    
   170   86  207 1    
   171   86  208 1    
   172   86  209 1    
   173   87   88 2    
   174   87   89 am   BACKBONE|DICT|INTERRES
   175   89   90 1    
   176   89  210 1    
   177   90   91 1    
   178   90   92 1    
   179   90  211 1    
   180   91  212 1    
   181   91  213 1    
   182   91  214 1    
   183   92   93 2    
   184   92   94 am   BACKBONE|DICT|INTERRES
   185   94   95 1    
   186   94  215 1    
   187   95   96 1    
   188   95   97 1    
   189   95  216 1    
   190   96  217 1    
   191   96  218 1    
   192   96  219 1    
   193   97   98 2    
   194   97   99 am   BACKBONE|DICT|INTERRES
   195   99  100 1    
   196   99  220 1    
   197  100  101 1    
   198  100  102 1    
   199  100  221 1    
   200  101  222 1    
   201  101  223 1    
   202  101  224 1    
   203  102  103 2    
   204  102  104 am   BACKBONE|DICT|INTERRES
   205  104  105 1    
   206  104  225 1    
   207  105  106 1    
   208  105  107 1    
   209  105  226 1    
   210  106  227 1    
   211  106  228 1    
   212  106  229 1    
   213  107  108 2    
   214  107  109 am   BACKBONE|DICT|INTERRES
   215  109  110 1    
   216  109  230 1    
   217  110  111 1    
   218  110  112 1    
   219  110  231 1    
   220  111  232 1    
   221  111  233 1    
   222  111  234 1    
   223  112  113 2    
   224  112  114 am   BACKBONE|DICT|INTERRES
   225  114  115 1    
   226  114  235 1    
   227  115  116 1    
   228  115  117 1    
   229  115  236 1    
   230  116  237 1    
   231  116  238 1    
   232  116  239 1    
   233  117  118 2    
   234  117  119 am   BACKBONE|DICT|INTERRES
   235  119  120 1    
   236  119  240 1    
   237  120  121 1    
   238  120  124 1    
   239  120  241 1    
   240  121  122 am   BACKBONE|DICT|INTERRES
   241  121  123 2    
   242  122  242 1    
   243  122  243 1    
   244  124  125 1    
   245  124  244 1    
   246  124  245 1    
   247  125  126 1    
   248  126  246 1    
   249  126  247 1    
@<TRIPOS>SUBSTRUCTURE
     1 UNK         1 GROUP             0       ****    0 ROOT    
