@<TRIPOS>MOLECULE
3R540
247   249    1
SMALL
USER_CHARGES


@<TRIPOS>ATOM
      1 CA          5.6080  -16.1030  -47.4129 C.3       0 UNK        -0.1800 
      2 C           5.0605  -15.0295  -48.3422 C.2       0 UNK         0.5000 
      3 O           5.8324  -14.2569  -48.9097 O.2       0 UNK        -0.5000 
      4 N           3.7302  -14.9684  -48.4853 N.am      1 UNK        -0.5000 
      5 CA          2.9507  -14.0571  -49.3354 C.3       1 UNK         0.1400 
      6 C6          3.3201  -14.1559  -50.8410 C.3       23 UNK        -0.0398 
      7 S7          1.9448  -13.6725  -51.9413 S.3       23 UNK        -0.2404 
      8 C8          1.2271  -15.2886  -52.3894 C.3       23 UNK        -0.0205 
      9 C9          0.7262  -16.0522  -51.1720 C.ar      23 UNK        -0.0193 
     10 C10        -0.3580  -15.5653  -50.4362 C.ar      23 UNK        -0.1150 
     11 C11        -0.8037  -16.2415  -49.2976 C.ar      23 UNK        -0.0193 
     12 C12        -0.1650  -17.4205  -48.9087 C.ar      23 UNK        -0.1150 
     13 C13         0.9255  -17.9149  -49.6271 C.ar      23 UNK        -0.0193 
     14 C14         1.3632  -17.2280  -50.7631 C.ar      23 UNK        -0.1150 
     15 C15         1.6615  -19.1606  -49.1544 C.3       23 UNK        -0.0205 
     16 S16         0.9978  -20.6793  -49.8976 S.3       23 UNK        -0.2404 
     17 C17        -0.4253  -21.0843  -48.8268 C.3       23 UNK        -0.0398 
     18 CA         -0.1271  -22.3230  -47.9399 C.3       11 UNK         0.1400 
     19 N           0.3532  -21.9694  -46.6027 N.am      11 UNK        -0.5000 
     20 C           0.9277  -22.8373  -45.7587 C.2       10 UNK         0.5000 
     21 O           1.1419  -24.0173  -46.0359 O.2       10 UNK        -0.5000 
     22 CA          1.2712  -22.3149  -44.3534 C.3       10 UNK         0.1400 
     23 CB          2.5583  -21.4759  -44.3709 C.3       10 UNK        -0.1800 
     24 N           0.1767  -21.5359  -43.7740 N.am      10 UNK        -0.5000 
     25 C          -1.0056  -22.0511  -43.4088 C.2       9 UNK         0.5000 
     26 O          -1.2889  -23.2450  -43.5028 O.2       9 UNK        -0.5000 
     27 CA         -2.0596  -21.0626  -42.8791 C.3       9 UNK         0.1400 
     28 CB         -1.8404  -20.7815  -41.3853 C.3       9 UNK        -0.1800 
     29 N          -2.0654  -19.7991  -43.6151 N.am      9 UNK        -0.5000 
     30 C          -2.4473  -19.6715  -44.8935 C.2       8 UNK         0.5000 
     31 O          -2.8428  -20.6049  -45.5894 O.2       8 UNK        -0.5000 
     32 CA         -2.3002  -18.2748  -45.5200 C.3       8 UNK         0.1400 
     33 CB         -3.4827  -17.3810  -45.1165 C.3       8 UNK        -0.1800 
     34 N          -1.0373  -17.6145  -45.1755 N.am      8 UNK        -0.5000 
     35 C           0.1815  -18.1425  -45.3643 C.2       7 UNK         0.5000 
     36 O           0.3718  -19.2444  -45.8750 O.2       7 UNK        -0.5000 
     37 CA          1.3965  -17.3288  -44.8949 C.3       7 UNK         0.1400 
     38 CB          1.9156  -16.4369  -46.0307 C.3       7 UNK        -0.1800 
     39 N           1.1334  -16.5128  -43.7125 N.am      7 UNK        -0.5000 
     40 C           0.8069  -16.9887  -42.5025 C.2       6 UNK         0.5000 
     41 O           0.6373  -18.1840  -42.2569 O.2       6 UNK        -0.5000 
     42 CA          0.6254  -15.9455  -41.3892 C.3       6 UNK         0.1400 
     43 CB          1.9887  -15.4829  -40.8516 C.3       6 UNK        -0.1800 
     44 N          -0.1190  -14.7872  -41.8800 N.am      6 UNK        -0.5000 
     45 C          -1.4541  -14.6838  -41.8573 C.2       5 UNK         0.5000 
     46 O          -2.1974  -15.5236  -41.3485 O.2       5 UNK        -0.5000 
     47 CA         -2.0693  -13.4372  -42.5243 C.3       5 UNK         0.1400 
     48 CB         -2.2360  -12.3057  -41.4988 C.3       5 UNK        -0.1800 
     49 N          -1.3021  -12.9373  -43.6679 N.am      5 UNK        -0.5000 
     50 C          -1.1142  -13.6127  -44.8097 C.2       4 UNK         0.5000 
     51 O          -1.5450  -14.7461  -45.0130 O.2       4 UNK        -0.5000 
     52 CA         -0.2646  -12.9249  -45.8934 C.3       4 UNK         0.1400 
     53 CB         -1.1338  -11.9594  -46.7131 C.3       4 UNK        -0.1800 
     54 N           0.9206  -12.2125  -45.4015 N.am      4 UNK        -0.5000 
     55 C           1.8561  -12.6933  -44.5693 C.2       3 UNK         0.5000 
     56 O           1.7709  -13.7804  -43.9965 O.2       3 UNK        -0.5000 
     57 CA          3.1183  -11.8305  -44.4001 C.3       3 UNK         0.1400 
     58 CB          4.1375  -12.4578  -43.4313 C.3       3 UNK        -0.1800 
     59 N           3.7496  -11.6663  -45.7073 N.am      3 UNK        -0.5000 
     60 C           3.6493  -10.5864  -46.4919 C.2       2 UNK         0.5000 
     61 O           3.0707   -9.5503  -46.1638 O.2       2 UNK        -0.5000 
     62 CA          4.2608  -10.7097  -47.9005 C.3       2 UNK         0.1400 
     63 CB          5.7538  -10.3494  -47.8777 C.3       2 UNK        -0.1800 
     64 N           4.0967  -12.0496  -48.4704 N.am      2 UNK        -0.5000 
     65 C           2.9270  -12.5995  -48.8229 C.2       1 UNK         0.5000 
     66 O           1.8497  -12.0124  -48.7249 O.2       1 UNK        -0.5000 
     67 C          -1.3168  -23.3020  -47.8796 C.2       11 UNK         0.5000 
     68 O          -1.3362  -24.2456  -48.6668 O.2       11 UNK        -0.5000 
     69 N          -2.2536  -23.1061  -46.9376 N.am      12 UNK        -0.5000 
     70 CA         -3.3831  -24.0131  -46.6987 C.3       12 UNK         0.1400 
     71 CB         -4.3579  -23.3835  -45.6932 C.3       12 UNK        -0.1800 
     72 C          -2.9549  -25.4146  -46.2228 C.2       12 UNK         0.5000 
     73 O          -3.6054  -26.3993  -46.5740 O.2       12 UNK        -0.5000 
     74 N          -1.8669  -25.4863  -45.4435 N.am      13 UNK        -0.5000 
     75 CA         -1.2415  -26.7403  -45.0258 C.3       13 UNK         0.1400 
     76 CB         -0.2836  -26.4750  -43.8544 C.3       13 UNK        -0.1800 
     77 C          -0.5116  -27.4431  -46.1861 C.2       13 UNK         0.5000 
     78 O          -0.5399  -28.6723  -46.2591 O.2       13 UNK        -0.5000 
     79 N           0.1202  -26.6585  -47.0714 N.am      14 UNK        -0.5000 
     80 CA          0.8253  -27.1438  -48.2581 C.3       14 UNK         0.1400 
     81 CB          1.6995  -26.0217  -48.8393 C.3       14 UNK        -0.1800 
     82 C          -0.1234  -27.7142  -49.3292 C.2       14 UNK         0.5000 
     83 O           0.1754  -28.7664  -49.8965 O.2       14 UNK        -0.5000 
     84 N          -1.2486  -27.0328  -49.5766 N.am      15 UNK        -0.5000 
     85 CA         -2.2915  -27.4582  -50.5044 C.3       15 UNK         0.1400 
     86 CB         -1.9470  -26.9974  -51.9315 C.3       15 UNK        -0.1800 
     87 C          -3.6327  -26.8711  -50.0539 C.2       15 UNK         0.5000 
     88 O          -3.6955  -25.6860  -49.7280 O.2       15 UNK        -0.5000 
     89 N          -4.6963  -27.6844  -50.0953 N.am      16 UNK        -0.5000 
     90 CA         -6.0460  -27.3405  -49.6256 C.3       16 UNK         0.1400 
     91 CB         -6.9449  -28.5806  -49.7490 C.3       16 UNK        -0.1800 
     92 C          -6.6986  -26.1310  -50.3297 C.2       16 UNK         0.5000 
     93 O          -7.5980  -25.5124  -49.7598 O.2       16 UNK        -0.5000 
     94 N          -6.2242  -25.8026  -51.5393 N.am      17 UNK        -0.5000 
     95 CA         -6.6080  -24.6118  -52.2981 C.3       17 UNK         0.1400 
     96 CB         -6.1467  -24.7845  -53.7540 C.3       17 UNK        -0.1800 
     97 C          -6.0459  -23.2976  -51.7167 C.2       17 UNK         0.5000 
     98 O          -6.5308  -22.2313  -52.0947 O.2       17 UNK        -0.5000 
     99 N          -5.0251  -23.3818  -50.8474 N.am      18 UNK        -0.5000 
    100 CA        -4.3390  -22.2721  -50.1765 C.3       18 UNK         0.1400 
    101 CB        -5.2583  -21.6290  -49.1184 C.3       18 UNK        -0.1800 
    102 C         -3.7502  -21.2471  -51.1665 C.2       18 UNK         0.5000 
    103 O         -3.9630  -20.0441  -51.0122 O.2       18 UNK        -0.5000 
    104 N         -3.0571  -21.7597  -52.1955 N.am      19 UNK        -0.5000 
    105 CA        -2.4981  -21.0146  -53.3323 C.3       19 UNK         0.1400 
    106 CB        -1.3447  -20.0952  -52.8774 C.3       19 UNK        -0.1800 
    107 C         -3.5861  -20.2684  -54.1339 C.2       19 UNK         0.5000 
    108 O         -3.4115  -19.0989  -54.4783 O.2       19 UNK        -0.5000 
    109 N         -4.7089  -20.9625  -54.3778 N.am      20 UNK        -0.5000 
    110 CA        -5.9413  -20.4627  -55.0004 C.3       20 UNK         0.1400 
    111 CB        -5.7116  -20.1460  -56.4930 C.3       20 UNK        -0.1800 
    112 C         -6.5483  -19.2836  -54.2102 C.2       20 UNK         0.5000 
    113 O         -6.9037  -18.2588  -54.7950 O.2       20 UNK        -0.5000 
    114 N         -6.6227  -19.4634  -52.8833 N.am      21 UNK        -0.5000 
    115 CA        -7.0176  -18.4875  -51.8657 C.3       21 UNK         0.1400 
    116 CB        -8.5258  -18.1777  -51.9668 C.3       21 UNK        -0.1800 
    117 C         -6.1291  -17.2255  -51.8916 C.2       21 UNK         0.5000 
    118 O         -6.6399  -16.1113  -52.0273 O.2       21 UNK        -0.5000 
    119 N         -4.8121  -17.4364  -51.7612 N.am      22 UNK        -0.5000 
    120 CA        -3.7639  -16.4008  -51.7548 C.3       22 UNK         0.1400 
    121 C         -3.6508  -15.6218  -53.1010 C.2       22 UNK         0.5000 
    122 N         -3.6929  -16.2990  -54.2406 N.am      22 UNK        -0.7600 
    123 O         -3.5135  -14.4011  -53.1280 O.2       22 UNK        -0.5000 
    124 C124       -3.8570  -15.4669  -50.5135 C.3       23 UNK        -0.0398 
    125 S125       -3.5597  -16.3567  -48.9473 S.3       23 UNK        -0.2404 
    126 C126       -1.9419  -15.6818  -48.4581 C.3       23 UNK        -0.0205 
    127 H127        6.3769  -16.6832  -47.9231 H         1 UNK         0.0600 
    128 H128        4.8303  -16.7916  -47.0825 H         1 UNK         0.0600 
    129 H129        6.0550  -15.6432  -46.5316 H         1 UNK         0.0600 
    130 H130        3.1675  -15.6270  -47.9673 H         1 UNK         0.3000 
    131 H131        1.9294  -14.4205  -49.2207 H         1 UNK         0.0600 
    132 H132        4.1916  -13.5414  -51.0731 H         1 UNK         0.0800 
    133 H133        3.6106  -15.1775  -51.0895 H         1 UNK         0.0800 
    134 H134        0.3942  -15.1280  -53.0754 H         1 UNK         0.0800 
    135 H135        1.9681  -15.8716  -52.9385 H         1 UNK         0.0800 
    136 H136       -0.8330  -14.6435  -50.7400 H         1 UNK         0.1150 
    137 H137       -0.5103  -17.9449  -48.0339 H         1 UNK         0.1150 
    138 H138        2.2103  -17.6033  -51.3199 H         1 UNK         0.1150 
    139 H139        2.7159  -19.0800  -49.4224 H         1 UNK         0.0800 
    140 H140        1.6400  -19.2399  -48.0688 H         1 UNK         0.0800 
    141 H141       -1.2621  -21.2647  -49.5027 H         1 UNK         0.0800 
    142 H142       -0.7206  -20.2267  -48.2231 H         1 UNK         0.0800 
    143 H143        0.6770  -22.8914  -48.4128 H         1 UNK         0.0600 
    144 H144        0.2413  -21.0009  -46.3082 H         1 UNK         0.3000 
    145 H145        1.4434  -23.1806  -43.7102 H         1 UNK         0.0600 
    146 H146        2.8170  -21.1292  -43.3703 H         1 UNK         0.0600 
    147 H147        2.4683  -20.6018  -45.0153 H         1 UNK         0.0600 
    148 H148        3.3991  -22.0654  -44.7385 H         1 UNK         0.0600 
    149 H149        0.3126  -20.5372  -43.7029 H         1 UNK         0.3000 
    150 H150       -3.0408  -21.5272  -42.9968 H         1 UNK         0.0600 
    151 H151       -1.8577  -21.7068  -40.8080 H         1 UNK         0.0600 
    152 H152       -2.6224  -20.1351  -40.9866 H         1 UNK         0.0600 
    153 H153       -0.8800  -20.2980  -41.2022 H         1 UNK         0.0600 
    154 H154       -1.6988  -18.9887  -43.1354 H         1 UNK         0.3000 
    155 H155       -2.3261  -18.4009  -46.6038 H         1 UNK         0.0600 
    156 H156       -4.4343  -17.8775  -45.3107 H         1 UNK         0.0600 
    157 H157       -3.4873  -16.4513  -45.6846 H         1 UNK         0.0600 
    158 H158       -3.4519  -17.1254  -44.0566 H         1 UNK         0.0600 
    159 H159       -1.1086  -16.6674  -44.8157 H         1 UNK         0.3000 
    160 H160        2.1846  -18.0376  -44.6330 H         1 UNK         0.0600 
    161 H161        1.1535  -15.7350  -46.3673 H         1 UNK         0.0600 
    162 H162        2.2099  -17.0402  -46.8895 H         1 UNK         0.0600 
    163 H163        2.7873  -15.8639  -45.7138 H         1 UNK         0.0600 
    164 H164        1.2784  -15.5108  -43.8164 H         1 UNK         0.3000 
    165 H165        0.0814  -16.4166  -40.5676 H         1 UNK         0.0600 
    166 H166        1.8676  -14.7743  -40.0321 H         1 UNK         0.0600 
    167 H167        2.5635  -16.3273  -40.4693 H         1 UNK         0.0600 
    168 H168        2.5886  -15.0004  -41.6244 H         1 UNK         0.0600 
    169 H169        0.4146  -14.0870  -42.3801 H         1 UNK         0.3000 
    170 H170       -3.0607  -13.7176  -42.8868 H         1 UNK         0.0600 
    171 H171       -1.2729  -11.9611  -41.1200 H         1 UNK         0.0600 
    172 H172       -2.7521  -11.4502  -41.9349 H         1 UNK         0.0600 
    173 H173       -2.8257  -12.6376  -40.6431 H         1 UNK         0.0600 
    174 H174       -0.8949  -12.0180  -43.5796 H         1 UNK         0.3000 
    175 H175        0.0908  -13.7027  -46.5703 H         1 UNK         0.0600 
    176 H176       -1.4687  -11.1120  -46.1139 H         1 UNK         0.0600 
    177 H177       -0.5885  -11.5677  -47.5717 H         1 UNK         0.0600 
    178 H178       -2.0227  -12.4611  -47.0979 H         1 UNK         0.0600 
    179 H179        1.1002  -11.3167  -45.8332 H         1 UNK         0.3000 
    180 H180        2.8105  -10.8660  -43.9913 H         1 UNK         0.0600 
    181 H181        5.0158  -11.8219  -43.3199 H         1 UNK         0.0600 
    182 H182        4.4747  -13.4366  -43.7752 H         1 UNK         0.0600 
    183 H183        3.7039  -12.5891  -42.4390 H         1 UNK         0.0600 
    184 H184        4.2100  -12.4817  -46.0842 H         1 UNK         0.3000 
    185 H185        3.7462   -9.9992  -48.5507 H         1 UNK         0.0600 
    186 H186        6.1769  -10.3615  -48.8824 H         1 UNK         0.0600 
    187 H187        5.9081   -9.3485  -47.4724 H         1 UNK         0.0600 
    188 H188        6.3273  -11.0454  -47.2642 H         1 UNK         0.0600 
    189 H189        4.9333  -12.6154  -48.5874 H         1 UNK         0.3000 
    190 H190       -2.2117  -22.2777  -46.3504 H         1 UNK         0.3000 
    191 H191       -3.9155  -24.1375  -47.6423 H         1 UNK         0.0600 
    192 H192       -4.7553  -22.4397  -46.0655 H         1 UNK         0.0600 
    193 H193       -3.8764  -23.1912  -44.7342 H         1 UNK         0.0600 
    194 H194       -5.2083  -24.0411  -45.5088 H         1 UNK         0.0600 
    195 H195       -1.4295  -24.6282  -45.1281 H         1 UNK         0.3000 
    196 H196       -2.0257  -27.4123  -44.6707 H         1 UNK         0.0600 
    197 H197       -0.8109  -26.0374  -43.0066 H         1 UNK         0.0600 
    198 H198        0.5206  -25.7945  -44.1340 H         1 UNK         0.0600 
    199 H199        0.1759  -27.4018  -43.5089 H         1 UNK         0.0600 
    200 H200        0.1393  -25.6586  -46.9072 H         1 UNK         0.3000 
    201 H201        1.4895  -27.9506  -47.9413 H         1 UNK         0.0600 
    202 H202        2.3959  -25.6364  -48.0943 H         1 UNK         0.0600 
    203 H203        1.1003  -25.1868  -49.2012 H         1 UNK         0.0600 
    204 H204        2.2906  -26.3865  -49.6801 H         1 UNK         0.0600 
    205 H205       -1.4262  -26.1513  -49.0975 H         1 UNK         0.3000 
    206 H206       -2.3679  -28.5476  -50.4874 H         1 UNK         0.0600 
    207 H207       -1.8386  -25.9132  -51.9859 H         1 UNK         0.0600 
    208 H208       -1.0148  -27.4440  -52.2775 H         1 UNK         0.0600 
    209 H209       -2.7270  -27.2873  -52.6364 H         1 UNK         0.0600 
    210 H210       -4.5672  -28.6367  -50.4059 H         1 UNK         0.3000 
    211 H211       -5.9629  -27.0833  -48.5674 H         1 UNK         0.0600 
    212 H212       -7.0366  -28.9083  -50.7853 H         1 UNK         0.0600 
    213 H213       -7.9505  -28.3744  -49.3796 H         1 UNK         0.0600 
    214 H214       -6.5521  -29.4134  -49.1653 H         1 UNK         0.0600 
    215 H215       -5.4910  -26.3745  -51.9310 H         1 UNK         0.3000 
    216 H216       -7.6971  -24.5331  -52.2899 H         1 UNK         0.0600 
    217 H217       -6.4507  -23.9342  -54.3660 H         1 UNK         0.0600 
    218 H218       -6.5851  -25.6761  -54.2028 H         1 UNK         0.0600 
    219 H219       -5.0617  -24.8713  -53.8259 H         1 UNK         0.0600 
    220 H220       -4.6826  -24.3047  -50.5905 H         1 UNK         0.3000 
    221 H221       -3.4916  -22.7132  -49.6552 H         1 UNK         0.0600 
    222 H222       -6.1038  -21.1143  -49.5755 H         1 UNK         0.0600 
    223 H223       -5.6554  -22.3791  -48.4350 H         1 UNK         0.0600 
    224 H224       -4.7123  -20.8992  -48.5190 H         1 UNK         0.0600 
    225 H225       -2.9482  -22.7634  -52.2339 H         1 UNK         0.3000 
    226 H226       -2.0762  -21.7552  -54.0131 H         1 UNK         0.0600 
    227 H227       -0.5633  -20.6701  -52.3832 H         1 UNK         0.0600 
    228 H228       -0.8827  -19.5936  -53.7284 H         1 UNK         0.0600 
    229 H229       -1.6803  -19.3210  -52.1867 H         1 UNK         0.0600 
    230 H230       -4.7651  -21.8993  -54.0070 H         1 UNK         0.3000 
    231 H231       -6.6682  -21.2744  -54.9440 H         1 UNK         0.0600 
    232 H232       -6.6495  -19.8849  -56.9843 H         1 UNK         0.0600 
    233 H233       -5.2987  -21.0066  -57.0192 H         1 UNK         0.0600 
    234 H234       -5.0271  -19.3085  -56.6309 H         1 UNK         0.0600 
    235 H235       -6.3462  -20.3731  -52.5228 H         1 UNK         0.3000 
    236 H236       -6.8445  -18.9655  -50.9004 H         1 UNK         0.0600 
    237 H237       -8.7774  -17.6779  -52.9026 H         1 UNK         0.0600 
    238 H238       -9.1192  -19.0898  -51.9038 H         1 UNK         0.0600 
    239 H239       -8.8443  -17.5262  -51.1523 H         1 UNK         0.0600 
    240 H240       -4.4858  -18.3908  -51.6213 H         1 UNK         0.3000 
    241 H241       -2.8188  -16.9394  -51.6758 H         1 UNK         0.0600 
    242 H242       -3.7378  -17.3170  -54.2493 H         1 UNK         0.3800 
    243 H243       -3.6245  -15.8009  -55.1128 H         1 UNK         0.3800 
    244 H244       -4.8355  -14.9893  -50.4601 H         1 UNK         0.0800 
    245 H245       -3.1438  -14.6466  -50.5893 H         1 UNK         0.0800 
    246 H246       -1.7677  -15.9212  -47.4095 H         1 UNK         0.0800 
    247 H247       -1.9599  -14.5926  -48.5137 H         1 UNK         0.0800 
@<TRIPOS>BOND
     1    1    2 1    
     2    1  127 1    
     3    1  128 1    
     4    1  129 1    
     5    2    3 2    
     6    2    4 am   BACKBONE|DICT|INTERRES
     7    4    5 1    
     8    4  130 1    
     9    5    6 1    
    10    5   65 1    
    11    5  131 1    
    12    6    7 1    
    13    6  132 1    
    14    6  133 1    
    15    7    8 1    
    16    8    9 1    
    17    8  134 1    
    18    8  135 1    
    19    9   10 ar   
    20    9   14 ar   
    21   10   11 ar   
    22   10  136 1    
    23   11   12 ar   
    24   11  126 1    
    25   12   13 ar   
    26   12  137 1    
    27   13   14 ar   
    28   13   15 1    
    29   14  138 1    
    30   15   16 1    
    31   15  139 1    
    32   15  140 1    
    33   16   17 1    
    34   17   18 1    
    35   17  141 1    
    36   17  142 1    
    37   18   19 1    
    38   18   67 1    
    39   18  143 1    
    40   19   20 am   BACKBONE|DICT|INTERRES
    41   19  144 1    
    42   20   21 2    
    43   20   22 1    
    44   22   23 1    
    45   22   24 1    
    46   22  145 1    
    47   23  146 1    
    48   23  147 1    
    49   23  148 1    
    50   24   25 am   BACKBONE|DICT|INTERRES
    51   24  149 1    
    52   25   26 2    
    53   25   27 1    
    54   27   28 1    
    55   27   29 1    
    56   27  150 1    
    57   28  151 1    
    58   28  152 1    
    59   28  153 1    
    60   29   30 am   BACKBONE|DICT|INTERRES
    61   29  154 1    
    62   30   31 2    
    63   30   32 1    
    64   32   33 1    
    65   32   34 1    
    66   32  155 1    
    67   33  156 1    
    68   33  157 1    
    69   33  158 1    
    70   34   35 am   BACKBONE|DICT|INTERRES
    71   34  159 1    
    72   35   36 2    
    73   35   37 1    
    74   37   38 1    
    75   37   39 1    
    76   37  160 1    
    77   38  161 1    
    78   38  162 1    
    79   38  163 1    
    80   39   40 am   BACKBONE|DICT|INTERRES
    81   39  164 1    
    82   40   41 2    
    83   40   42 1    
    84   42   43 1    
    85   42   44 1    
    86   42  165 1    
    87   43  166 1    
    88   43  167 1    
    89   43  168 1    
    90   44   45 am   BACKBONE|DICT|INTERRES
    91   44  169 1    
    92   45   46 2    
    93   45   47 1    
    94   47   48 1    
    95   47   49 1    
    96   47  170 1    
    97   48  171 1    
    98   48  172 1    
    99   48  173 1    
   100   49   50 am   BACKBONE|DICT|INTERRES
   101   49  174 1    
   102   50   51 2    
   103   50   52 1    
   104   52   53 1    
   105   52   54 1    
   106   52  175 1    
   107   53  176 1    
   108   53  177 1    
   109   53  178 1    
   110   54   55 am   BACKBONE|DICT|INTERRES
   111   54  179 1    
   112   55   56 2    
   113   55   57 1    
   114   57   58 1    
   115   57   59 1    
   116   57  180 1    
   117   58  181 1    
   118   58  182 1    
   119   58  183 1    
   120   59   60 am   BACKBONE|DICT|INTERRES
   121   59  184 1    
   122   60   61 2    
   123   60   62 1    
   124   62   63 1    
   125   62   64 1    
   126   62  185 1    
   127   63  186 1    
   128   63  187 1    
   129   63  188 1    
   130   64   65 am   BACKBONE|DICT|INTERRES
   131   64  189 1    
   132   65   66 2    
   133   67   68 2    
   134   67   69 am   BACKBONE|DICT|INTERRES
   135   69   70 1    
   136   69  190 1    
   137   70   71 1    
   138   70   72 1    
   139   70  191 1    
   140   71  192 1    
   141   71  193 1    
   142   71  194 1    
   143   72   73 2    
   144   72   74 am   BACKBONE|DICT|INTERRES
   145   74   75 1    
   146   74  195 1    
   147   75   76 1    
   148   75   77 1    
   149   75  196 1    
   150   76  197 1    
   151   76  198 1    
   152   76  199 1    
   153   77   78 2    
   154   77   79 am   BACKBONE|DICT|INTERRES
   155   79   80 1    
   156   79  200 1    
   157   80   81 1    
   158   80   82 1    
   159   80  201 1    
   160   81  202 1    
   161   81  203 1    
   162   81  204 1    
   163   82   83 2    
   164   82   84 am   BACKBONE|DICT|INTERRES
   165   84   85 1    
   166   84  205 1    
   167   85   86 1    
   168   85   87 1    
   169   85  206 1    
   170   86  207 1    
   171   86  208 1    
   172   86  209 1    
   173   87   88 2    
   174   87   89 am   BACKBONE|DICT|INTERRES
   175   89   90 1    
   176   89  210 1    
   177   90   91 1    
   178   90   92 1    
   179   90  211 1    
   180   91  212 1    
   181   91  213 1    
   182   91  214 1    
   183   92   93 2    
   184   92   94 am   BACKBONE|DICT|INTERRES
   185   94   95 1    
   186   94  215 1    
   187   95   96 1    
   188   95   97 1    
   189   95  216 1    
   190   96  217 1    
   191   96  218 1    
   192   96  219 1    
   193   97   98 2    
   194   97   99 am   BACKBONE|DICT|INTERRES
   195   99  100 1    
   196   99  220 1    
   197  100  101 1    
   198  100  102 1    
   199  100  221 1    
   200  101  222 1    
   201  101  223 1    
   202  101  224 1    
   203  102  103 2    
   204  102  104 am   BACKBONE|DICT|INTERRES
   205  104  105 1    
   206  104  225 1    
   207  105  106 1    
   208  105  107 1    
   209  105  226 1    
   210  106  227 1    
   211  106  228 1    
   212  106  229 1    
   213  107  108 2    
   214  107  109 am   BACKBONE|DICT|INTERRES
   215  109  110 1    
   216  109  230 1    
   217  110  111 1    
   218  110  112 1    
   219  110  231 1    
   220  111  232 1    
   221  111  233 1    
   222  111  234 1    
   223  112  113 2    
   224  112  114 am   BACKBONE|DICT|INTERRES
   225  114  115 1    
   226  114  235 1    
   227  115  116 1    
   228  115  117 1    
   229  115  236 1    
   230  116  237 1    
   231  116  238 1    
   232  116  239 1    
   233  117  118 2    
   234  117  119 am   BACKBONE|DICT|INTERRES
   235  119  120 1    
   236  119  240 1    
   237  120  121 1    
   238  120  124 1    
   239  120  241 1    
   240  121  122 am   BACKBONE|DICT|INTERRES
   241  121  123 2    
   242  122  242 1    
   243  122  243 1    
   244  124  125 1    
   245  124  244 1    
   246  124  245 1    
   247  125  126 1    
   248  126  246 1    
   249  126  247 1    
@<TRIPOS>SUBSTRUCTURE
     1 UNK         1 GROUP             0       ****    0 ROOT    
