@<TRIPOS>MOLECULE
3R540
247   249    1
SMALL
USER_CHARGES


@<TRIPOS>ATOM
      1 CA         -0.7508  -13.0471  -47.7144 C.3       0 UNK        -0.1800 
      2 C           0.5865  -12.4502  -48.1211 C.2       0 UNK         0.5000 
      3 O           0.6331  -11.5907  -49.0019 O.2       0 UNK        -0.5000 
      4 N           1.6743  -12.8902  -47.4788 N.am      1 UNK        -0.5000 
      5 CA          3.0385  -12.4097  -47.7142 C.3       1 UNK         0.1400 
      6 C6          4.0901  -13.5158  -47.4503 C.3       23 UNK        -0.0398 
      7 S7          4.0202  -14.8212  -48.7210 S.3       23 UNK        -0.2404 
      8 C8          3.0520  -16.0956  -47.8573 C.3       23 UNK        -0.0205 
      9 C9          2.5404  -17.1534  -48.8203 C.ar      23 UNK        -0.0193 
     10 C10         1.5810  -16.8160  -49.7785 C.ar      23 UNK        -0.1150 
     11 C11         1.1012  -17.7762  -50.6716 C.ar      23 UNK        -0.0193 
     12 C12         1.5754  -19.0887  -50.5924 C.ar      23 UNK        -0.1150 
     13 C13         2.5302  -19.4404  -49.6338 C.ar      23 UNK        -0.0193 
     14 C14         3.0124  -18.4673  -48.7527 C.ar      23 UNK        -0.1150 
     15 C15         3.0585  -20.8652  -49.5626 C.3       23 UNK        -0.0205 
     16 S16         2.4484  -21.7483  -48.0943 S.3       23 UNK        -0.2404 
     17 C17         0.6746  -21.9084  -48.4796 C.3       23 UNK        -0.0398 
     18 CA         -0.0139  -22.9120  -47.5264 C.3       11 UNK         0.1400 
     19 N          -0.1237  -22.4072  -46.1528 N.am      11 UNK        -0.5000 
     20 C          -0.5037  -23.1506  -45.1038 C.2       10 UNK         0.5000 
     21 O          -0.7544  -24.3523  -45.1780 O.2       10 UNK        -0.5000 
     22 CA         -0.6974  -22.4277  -43.7595 C.3       10 UNK         0.1400 
     23 CB          0.6469  -22.2059  -43.0511 C.3       10 UNK        -0.1800 
     24 N          -1.4055  -21.1562  -43.9085 N.am      10 UNK        -0.5000 
     25 C          -2.6707  -21.0408  -44.3370 C.2       9 UNK         0.5000 
     26 O          -3.3941  -22.0051  -44.5850 O.2       9 UNK        -0.5000 
     27 CA         -3.2027  -19.6152  -44.5810 C.3       9 UNK         0.1400 
     28 CB         -3.6962  -18.9808  -43.2730 C.3       9 UNK        -0.1800 
     29 N          -2.2120  -18.7422  -45.2134 N.am      9 UNK        -0.5000 
     30 C          -1.6926  -18.9460  -46.4336 C.2       8 UNK         0.5000 
     31 O          -2.0345  -19.8648  -47.1768 O.2       8 UNK        -0.5000 
     32 CA         -0.5602  -18.0009  -46.8706 C.3       8 UNK         0.1400 
     33 CB         -1.1260  -16.6916  -47.4355 C.3       8 UNK        -0.1800 
     34 N           0.3676  -17.7142  -45.7744 N.am      8 UNK        -0.5000 
     35 C           1.1713  -18.6356  -45.2235 C.2       7 UNK         0.5000 
     36 O           1.2401  -19.7997  -45.6137 O.2       7 UNK        -0.5000 
     37 CA          1.9795  -18.2048  -43.9868 C.3       7 UNK         0.1400 
     38 CB          3.2485  -17.4392  -44.3848 C.3       7 UNK        -0.1800 
     39 N           1.1859  -17.3908  -43.0671 N.am      7 UNK        -0.5000 
     40 C           0.1572  -17.8596  -42.3467 C.2       6 UNK         0.5000 
     41 O          -0.1969  -19.0369  -42.3531 O.2       6 UNK        -0.5000 
     42 CA         -0.6321  -16.8399  -41.5055 C.3       6 UNK         0.1400 
     43 CB         -0.0432  -16.7417  -40.0907 C.3       6 UNK        -0.1800 
     44 N          -0.6727  -15.5046  -42.1024 N.am      6 UNK        -0.5000 
     45 C          -1.2370  -15.1989  -43.2804 C.2       5 UNK         0.5000 
     46 O          -1.8028  -16.0212  -44.0012 O.2       5 UNK        -0.5000 
     47 CA         -1.0939  -13.7376  -43.7459 C.3       5 UNK         0.1400 
     48 CB         -2.2693  -12.8878  -43.2437 C.3       5 UNK        -0.1800 
     49 N           0.1644  -13.1399  -43.2946 N.am      5 UNK        -0.5000 
     50 C           1.3769  -13.4766  -43.7508 C.2       4 UNK         0.5000 
     51 O           1.5599  -14.2172  -44.7209 O.2       4 UNK        -0.5000 
     52 CA          2.5647  -12.8886  -42.9664 C.3       4 UNK         0.1400 
     53 CB          3.9137  -13.5317  -43.3280 C.3       4 UNK        -0.1800 
     54 N           2.6466  -11.4394  -43.1393 N.am      4 UNK        -0.5000 
     55 C           1.9398  -10.5466  -42.4305 C.2       3 UNK         0.5000 
     56 O           1.1325  -10.8680  -41.5566 O.2       3 UNK        -0.5000 
     57 CA          2.1540   -9.0522  -42.7439 C.3       3 UNK         0.1400 
     58 CB          3.1722   -8.4411  -41.7694 C.3       3 UNK        -0.1800 
     59 N           2.6017   -8.8066  -44.1147 N.am      3 UNK        -0.5000 
     60 C           1.8355   -8.9570  -45.2021 C.2       2 UNK         0.5000 
     61 O           0.6439   -9.2674  -45.1597 O.2       2 UNK        -0.5000 
     62 CA          2.5093   -8.7653  -46.5755 C.3       2 UNK         0.1400 
     63 CB          3.8795   -8.0510  -46.5245 C.3       2 UNK        -0.1800 
     64 N           2.6109  -10.0484  -47.2737 N.am      2 UNK        -0.5000 
     65 C           3.2617  -11.1463  -46.8619 C.2       1 UNK         0.5000 
     66 O           3.9526  -11.1946  -45.8424 O.2       1 UNK        -0.5000 
     67 C          -1.3732  -23.3701  -48.0919 C.2       11 UNK         0.5000 
     68 O          -1.4167  -24.3826  -48.7907 O.2       11 UNK        -0.5000 
     69 N          -2.4573  -22.6518  -47.7709 N.am      12 UNK        -0.5000 
     70 CA         -3.8275  -23.0253  -48.1247 C.3       12 UNK         0.1400 
     71 CB         -4.7760  -21.8526  -47.8374 C.3       12 UNK        -0.1800 
     72 C          -4.2876  -24.3080  -47.4102 C.2       12 UNK         0.5000 
     73 O          -4.8621  -25.1848  -48.0550 O.2       12 UNK        -0.5000 
     74 N          -3.9888  -24.4173  -46.1078 N.am      13 UNK        -0.5000 
     75 CA         -4.2701  -25.5953  -45.2828 C.3       13 UNK         0.1400 
     76 CB         -3.9963  -25.2644  -43.8080 C.3       13 UNK        -0.1800 
     77 C          -3.4757  -26.8414  -45.7208 C.2       13 UNK         0.5000 
     78 O          -4.0232  -27.9443  -45.7192 O.2       13 UNK        -0.5000 
     79 N          -2.2126  -26.6388  -46.1189 N.am      14 UNK        -0.5000 
     80 CA         -1.3215  -27.6669  -46.6623 C.3       14 UNK         0.1400 
     81 CB          0.1260  -27.1558  -46.5803 C.3       14 UNK        -0.1800 
     82 C          -1.6556  -28.0774  -48.1116 C.2       14 UNK         0.5000 
     83 O          -1.0995  -29.0645  -48.5944 O.2       14 UNK        -0.5000 
     84 N          -2.5264  -27.3079  -48.7816 N.am      15 UNK        -0.5000 
     85 CA         -2.9300  -27.4228  -50.1868 C.3       15 UNK         0.1400 
     86 CB         -3.6435  -28.7630  -50.4608 C.3       15 UNK        -0.1800 
     87 C          -1.7828  -27.1305  -51.1797 C.2       15 UNK         0.5000 
     88 O          -1.8150  -27.6041  -52.3170 O.2       15 UNK        -0.5000 
     89 N          -0.8003  -26.3306  -50.7425 N.am      16 UNK        -0.5000 
     90 CA          0.2448  -25.7499  -51.5854 C.3       16 UNK         0.1400 
     91 CB          1.4335  -25.3288  -50.7072 C.3       16 UNK        -0.1800 
     92 C          -0.3080  -24.5543  -52.3827 C.2       16 UNK         0.5000 
     93 O           0.0314  -24.3890  -53.5546 O.2       16 UNK        -0.5000 
     94 N          -1.1928  -23.7824  -51.7401 N.am      17 UNK        -0.5000 
     95 CA         -2.1118  -22.8504  -52.3832 C.3       17 UNK         0.1400 
     96 CB         -2.2716  -21.6089  -51.4938 C.3       17 UNK        -0.1800 
     97 C          -3.4575  -23.5682  -52.5638 C.2       17 UNK         0.5000 
     98 O          -3.8453  -24.3596  -51.6996 O.2       17 UNK        -0.5000 
     99 N          -4.1652  -23.2775  -53.6601 N.am      18 UNK        -0.5000 
    100 CA        -5.4618  -23.8712  -53.9873 C.3       18 UNK         0.1400 
    101 CB        -5.6386  -23.8807  -55.5155 C.3       18 UNK        -0.1800 
    102 C         -6.5913  -23.1358  -53.2423 C.2       18 UNK         0.5000 
    103 O         -7.4108  -22.4526  -53.8597 O.2       18 UNK        -0.5000 
    104 N         -6.5765  -23.2612  -51.9082 N.am      19 UNK        -0.5000 
    105 CA        -7.4297  -22.5654  -50.9447 C.3       19 UNK         0.1400 
    106 CB        -8.8924  -23.0534  -51.0509 C.3       19 UNK        -0.1800 
    107 C         -7.2530  -21.0384  -51.0725 C.2       19 UNK         0.5000 
    108 O         -6.1736  -20.5339  -50.7619 O.2       19 UNK        -0.5000 
    109 N         -8.2905  -20.3373  -51.5465 N.am      20 UNK        -0.5000 
    110 CA        -8.2771  -18.8965  -51.8000 C.3       20 UNK         0.1400 
    111 CB        -9.7229  -18.4121  -51.9889 C.3       20 UNK        -0.1800 
    112 C         -7.4106  -18.4879  -53.0087 C.2       20 UNK         0.5000 
    113 O         -6.9567  -17.3433  -53.0587 O.2       20 UNK        -0.5000 
    114 N         -7.1928  -19.4074  -53.9603 N.am      21 UNK        -0.5000 
    115 CA        -6.3512  -19.1935  -55.1350 C.3       21 UNK         0.1400 
    116 CB        -6.8557  -20.0633  -56.2982 C.3       21 UNK        -0.1800 
    117 C         -4.8789  -19.4599  -54.7765 C.2       21 UNK         0.5000 
    118 O         -4.3738  -20.5676  -54.9736 O.2       21 UNK        -0.5000 
    119 N         -4.2306  -18.4330  -54.2166 N.am      22 UNK        -0.5000 
    120 CA        -2.8142  -18.4463  -53.8189 C.3       22 UNK         0.1400 
    121 C         -1.8103  -18.3987  -55.0102 C.2       22 UNK         0.5000 
    122 N         -2.2202  -17.9966  -56.2074 N.am      22 UNK        -0.7600 
    123 O         -0.6457  -18.7506  -54.8545 O.2       22 UNK        -0.5000 
    124 C124       -2.5204  -17.3454  -52.7586 C.3       23 UNK        -0.0398 
    125 S125       -1.5774  -17.9587  -51.3222 S.3       23 UNK        -0.2404 
    126 C126        0.0954  -17.3887  -51.7412 C.3       23 UNK        -0.0205 
    127 H127       -1.3757  -12.2879  -47.2442 H         1 UNK         0.0600 
    128 H128       -0.6181  -13.8663  -47.0113 H         1 UNK         0.0600 
    129 H129       -1.2741  -13.4333  -48.5891 H         1 UNK         0.0600 
    130 H130        1.5716  -13.5338  -46.7015 H         1 UNK         0.3000 
    131 H131        3.1437  -12.1065  -48.7586 H         1 UNK         0.0600 
    132 H132        3.9578  -13.9595  -46.4640 H         1 UNK         0.0800 
    133 H133        5.0986  -13.0991  -47.4684 H         1 UNK         0.0800 
    134 H134        3.6831  -16.5462  -47.0923 H         1 UNK         0.0800 
    135 H135        2.2032  -15.6448  -47.3423 H         1 UNK         0.0800 
    136 H136        1.2189  -15.7988  -49.8342 H         1 UNK         0.1150 
    137 H137        1.2027  -19.8322  -51.2831 H         1 UNK         0.1150 
    138 H138        3.7504  -18.7393  -48.0112 H         1 UNK         0.1150 
    139 H139        2.7951  -21.4263  -50.4605 H         1 UNK         0.0800 
    140 H140        4.1485  -20.8395  -49.5287 H         1 UNK         0.0800 
    141 H141        0.2026  -20.9266  -48.4195 H         1 UNK         0.0800 
    142 H142        0.5853  -22.2303  -49.5190 H         1 UNK         0.0800 
    143 H143        0.6090  -23.8081  -47.4849 H         1 UNK         0.0600 
    144 H144        0.1273  -21.4344  -46.0037 H         1 UNK         0.3000 
    145 H145       -1.3074  -23.0722  -43.1234 H         1 UNK         0.0600 
    146 H146        0.5041  -21.7613  -42.0661 H         1 UNK         0.0600 
    147 H147        1.1719  -23.1511  -42.9082 H         1 UNK         0.0600 
    148 H148        1.3035  -21.5499  -43.6217 H         1 UNK         0.0600 
    149 H149       -0.8929  -20.3173  -43.6550 H         1 UNK         0.3000 
    150 H150       -4.0538  -19.6902  -45.2606 H         1 UNK         0.0600 
    151 H151       -4.5036  -19.5704  -42.8372 H         1 UNK         0.0600 
    152 H152       -4.0803  -17.9743  -43.4406 H         1 UNK         0.0600 
    153 H153       -2.9019  -18.9180  -42.5304 H         1 UNK         0.0600 
    154 H154       -1.9094  -17.9299  -44.6861 H         1 UNK         0.3000 
    155 H155       -0.0010  -18.4973  -47.6668 H         1 UNK         0.0600 
    156 H156       -1.6947  -16.1370  -46.6892 H         1 UNK         0.0600 
    157 H157       -1.7914  -16.8884  -48.2770 H         1 UNK         0.0600 
    158 H158       -0.3273  -16.0486  -47.8008 H         1 UNK         0.0600 
    159 H159        0.3300  -16.7905  -45.3688 H         1 UNK         0.3000 
    160 H160        2.2863  -19.1120  -43.4618 H         1 UNK         0.0600 
    161 H161        3.0124  -16.4800  -44.8444 H         1 UNK         0.0600 
    162 H162        3.8443  -18.0134  -45.0955 H         1 UNK         0.0600 
    163 H163        3.8782  -17.2459  -43.5163 H         1 UNK         0.0600 
    164 H164        1.4005  -16.4062  -43.0251 H         1 UNK         0.3000 
    165 H165       -1.6593  -17.1995  -41.4239 H         1 UNK         0.0600 
    166 H166        0.9781  -16.3589  -40.1042 H         1 UNK         0.0600 
    167 H167       -0.6408  -16.0843  -39.4589 H         1 UNK         0.0600 
    168 H168       -0.0208  -17.7202  -39.6089 H         1 UNK         0.0600 
    169 H169       -0.2363  -14.7625  -41.5762 H         1 UNK         0.3000 
    170 H170       -1.1121  -13.7320  -44.8348 H         1 UNK         0.0600 
    171 H171       -3.2210  -13.3003  -43.5814 H         1 UNK         0.0600 
    172 H172       -2.2984  -12.8415  -42.1543 H         1 UNK         0.0600 
    173 H173       -2.2055  -11.8671  -43.6214 H         1 UNK         0.0600 
    174 H174        0.1130  -12.4715  -42.5339 H         1 UNK         0.3000 
    175 H175        2.3882  -13.1126  -41.9122 H         1 UNK         0.0600 
    176 H176        3.8713  -14.6168  -43.2302 H         1 UNK         0.0600 
    177 H177        4.2156  -13.3037  -44.3470 H         1 UNK         0.0600 
    178 H178        4.7034  -13.1784  -42.6650 H         1 UNK         0.0600 
    179 H179        3.2344  -11.1138  -43.8997 H         1 UNK         0.3000 
    180 H180        1.1975   -8.5454  -42.5990 H         1 UNK         0.0600 
    181 H181        3.2797   -7.3685  -41.9318 H         1 UNK         0.0600 
    182 H182        2.8559   -8.5817  -40.7349 H         1 UNK         0.0600 
    183 H183        4.1567   -8.8984  -41.8766 H         1 UNK         0.0600 
    184 H184        3.5766   -8.5756  -44.2408 H         1 UNK         0.3000 
    185 H185        1.8348   -8.1417  -47.1640 H         1 UNK         0.0600 
    186 H186        4.2617   -7.8780  -47.5305 H         1 UNK         0.0600 
    187 H187        3.7943   -7.0757  -46.0436 H         1 UNK         0.0600 
    188 H188        4.6333   -8.6234  -45.9835 H         1 UNK         0.0600 
    189 H189        2.0020  -10.1546  -48.0772 H         1 UNK         0.3000 
    190 H190       -2.3358  -21.7795  -47.2640 H         1 UNK         0.3000 
    191 H191       -3.8608  -23.2259  -49.1966 H         1 UNK         0.0600 
    192 H192       -5.8045  -22.1078  -48.0911 H         1 UNK         0.0600 
    193 H193       -4.5032  -20.9758  -48.4255 H         1 UNK         0.0600 
    194 H194       -4.7633  -21.5666  -46.7869 H         1 UNK         0.0600 
    195 H195       -3.5574  -23.6256  -45.6383 H         1 UNK         0.3000 
    196 H196       -5.3320  -25.8273  -45.3863 H         1 UNK         0.0600 
    197 H197       -4.2282  -26.1156  -43.1668 H         1 UNK         0.0600 
    198 H198       -4.6081  -24.4270  -43.4721 H         1 UNK         0.0600 
    199 H199       -2.9514  -25.0020  -43.6411 H         1 UNK         0.0600 
    200 H200       -1.8120  -25.7110  -46.0049 H         1 UNK         0.3000 
    201 H201       -1.4051  -28.5607  -46.0409 H         1 UNK         0.0600 
    202 H202        0.2693  -26.2616  -47.1877 H         1 UNK         0.0600 
    203 H203        0.8308  -27.9093  -46.9340 H         1 UNK         0.0600 
    204 H204        0.4012  -26.9119  -45.5541 H         1 UNK         0.0600 
    205 H205       -2.9154  -26.5127  -48.2916 H         1 UNK         0.3000 
    206 H206       -3.6645  -26.6320  -50.3411 H         1 UNK         0.0600 
    207 H207       -4.4419  -28.9386  -49.7398 H         1 UNK         0.0600 
    208 H208       -4.0973  -28.7667  -51.4524 H         1 UNK         0.0600 
    209 H209       -2.9560  -29.6078  -50.4152 H         1 UNK         0.0600 
    210 H210       -0.9051  -25.9273  -49.8165 H         1 UNK         0.3000 
    211 H211        0.5921  -26.5037  -52.2952 H         1 UNK         0.0600 
    212 H212        1.1460  -24.5881  -49.9617 H         1 UNK         0.0600 
    213 H213        2.2305  -24.8941  -51.3116 H         1 UNK         0.0600 
    214 H214        1.8542  -26.1851  -50.1799 H         1 UNK         0.0600 
    215 H215       -1.4445  -24.0524  -50.7954 H         1 UNK         0.3000 
    216 H216       -1.7367  -22.5402  -53.3609 H         1 UNK         0.0600 
    217 H217       -3.0975  -20.9828  -51.8313 H         1 UNK         0.0600 
    218 H218       -1.3656  -21.0033  -51.5037 H         1 UNK         0.0600 
    219 H219       -2.4805  -21.8705  -50.4594 H         1 UNK         0.0600 
    220 H220       -3.8619  -22.5260  -54.2701 H         1 UNK         0.3000 
    221 H221       -5.4817  -24.9116  -53.6551 H         1 UNK         0.0600 
    222 H222       -5.5049  -22.8894  -55.9457 H         1 UNK         0.0600 
    223 H223       -4.9119  -24.5429  -55.9863 H         1 UNK         0.0600 
    224 H224       -6.6306  -24.2360  -55.7969 H         1 UNK         0.0600 
    225 H225       -5.8071  -23.7918  -51.5123 H         1 UNK         0.3000 
    226 H226       -7.0649  -22.8388  -49.9545 H         1 UNK         0.0600 
    227 H227       -8.9540  -24.1275  -50.8755 H         1 UNK         0.0600 
    228 H228       -9.5217  -22.5716  -50.3015 H         1 UNK         0.0600 
    229 H229       -9.3306  -22.8576  -52.0299 H         1 UNK         0.0600 
    230 H230       -9.1301  -20.8355  -51.8041 H         1 UNK         0.3000 
    231 H231       -7.8640  -18.3996  -50.9196 H         1 UNK         0.0600 
    232 H232       -9.7559  -17.3338  -52.1507 H         1 UNK         0.0600 
    233 H233      -10.3292  -18.6255  -51.1084 H         1 UNK         0.0600 
    234 H234      -10.1974  -18.8877  -52.8482 H         1 UNK         0.0600 
    235 H235       -7.5332  -20.3532  -53.8227 H         1 UNK         0.3000 
    236 H236       -6.4344  -18.1541  -55.4606 H         1 UNK         0.0600 
    237 H237       -6.9057  -21.1164  -56.0311 H         1 UNK         0.0600 
    238 H238       -7.8541  -19.7560  -56.6096 H         1 UNK         0.0600 
    239 H239       -6.2018  -19.9738  -57.1664 H         1 UNK         0.0600 
    240 H240       -4.7410  -17.5770  -54.0464 H         1 UNK         0.3000 
    241 H241       -2.6449  -19.4169  -53.3552 H         1 UNK         0.0600 
    242 H242       -3.1737  -17.7094  -56.3581 H         1 UNK         0.3800 
    243 H243       -1.5655  -17.9797  -56.9737 H         1 UNK         0.3800 
    244 H244       -3.4528  -16.9547  -52.3481 H         1 UNK         0.0800 
    245 H245       -2.0231  -16.4775  -53.1959 H         1 UNK         0.0800 
    246 H246        0.4059  -17.8197  -52.6925 H         1 UNK         0.0800 
    247 H247        0.0849  -16.3066  -51.8805 H         1 UNK         0.0800 
@<TRIPOS>BOND
     1    1    2 1    
     2    1  127 1    
     3    1  128 1    
     4    1  129 1    
     5    2    3 2    
     6    2    4 am   BACKBONE|DICT|INTERRES
     7    4    5 1    
     8    4  130 1    
     9    5    6 1    
    10    5   65 1    
    11    5  131 1    
    12    6    7 1    
    13    6  132 1    
    14    6  133 1    
    15    7    8 1    
    16    8    9 1    
    17    8  134 1    
    18    8  135 1    
    19    9   10 ar   
    20    9   14 ar   
    21   10   11 ar   
    22   10  136 1    
    23   11   12 ar   
    24   11  126 1    
    25   12   13 ar   
    26   12  137 1    
    27   13   14 ar   
    28   13   15 1    
    29   14  138 1    
    30   15   16 1    
    31   15  139 1    
    32   15  140 1    
    33   16   17 1    
    34   17   18 1    
    35   17  141 1    
    36   17  142 1    
    37   18   19 1    
    38   18   67 1    
    39   18  143 1    
    40   19   20 am   BACKBONE|DICT|INTERRES
    41   19  144 1    
    42   20   21 2    
    43   20   22 1    
    44   22   23 1    
    45   22   24 1    
    46   22  145 1    
    47   23  146 1    
    48   23  147 1    
    49   23  148 1    
    50   24   25 am   BACKBONE|DICT|INTERRES
    51   24  149 1    
    52   25   26 2    
    53   25   27 1    
    54   27   28 1    
    55   27   29 1    
    56   27  150 1    
    57   28  151 1    
    58   28  152 1    
    59   28  153 1    
    60   29   30 am   BACKBONE|DICT|INTERRES
    61   29  154 1    
    62   30   31 2    
    63   30   32 1    
    64   32   33 1    
    65   32   34 1    
    66   32  155 1    
    67   33  156 1    
    68   33  157 1    
    69   33  158 1    
    70   34   35 am   BACKBONE|DICT|INTERRES
    71   34  159 1    
    72   35   36 2    
    73   35   37 1    
    74   37   38 1    
    75   37   39 1    
    76   37  160 1    
    77   38  161 1    
    78   38  162 1    
    79   38  163 1    
    80   39   40 am   BACKBONE|DICT|INTERRES
    81   39  164 1    
    82   40   41 2    
    83   40   42 1    
    84   42   43 1    
    85   42   44 1    
    86   42  165 1    
    87   43  166 1    
    88   43  167 1    
    89   43  168 1    
    90   44   45 am   BACKBONE|DICT|INTERRES
    91   44  169 1    
    92   45   46 2    
    93   45   47 1    
    94   47   48 1    
    95   47   49 1    
    96   47  170 1    
    97   48  171 1    
    98   48  172 1    
    99   48  173 1    
   100   49   50 am   BACKBONE|DICT|INTERRES
   101   49  174 1    
   102   50   51 2    
   103   50   52 1    
   104   52   53 1    
   105   52   54 1    
   106   52  175 1    
   107   53  176 1    
   108   53  177 1    
   109   53  178 1    
   110   54   55 am   BACKBONE|DICT|INTERRES
   111   54  179 1    
   112   55   56 2    
   113   55   57 1    
   114   57   58 1    
   115   57   59 1    
   116   57  180 1    
   117   58  181 1    
   118   58  182 1    
   119   58  183 1    
   120   59   60 am   BACKBONE|DICT|INTERRES
   121   59  184 1    
   122   60   61 2    
   123   60   62 1    
   124   62   63 1    
   125   62   64 1    
   126   62  185 1    
   127   63  186 1    
   128   63  187 1    
   129   63  188 1    
   130   64   65 am   BACKBONE|DICT|INTERRES
   131   64  189 1    
   132   65   66 2    
   133   67   68 2    
   134   67   69 am   BACKBONE|DICT|INTERRES
   135   69   70 1    
   136   69  190 1    
   137   70   71 1    
   138   70   72 1    
   139   70  191 1    
   140   71  192 1    
   141   71  193 1    
   142   71  194 1    
   143   72   73 2    
   144   72   74 am   BACKBONE|DICT|INTERRES
   145   74   75 1    
   146   74  195 1    
   147   75   76 1    
   148   75   77 1    
   149   75  196 1    
   150   76  197 1    
   151   76  198 1    
   152   76  199 1    
   153   77   78 2    
   154   77   79 am   BACKBONE|DICT|INTERRES
   155   79   80 1    
   156   79  200 1    
   157   80   81 1    
   158   80   82 1    
   159   80  201 1    
   160   81  202 1    
   161   81  203 1    
   162   81  204 1    
   163   82   83 2    
   164   82   84 am   BACKBONE|DICT|INTERRES
   165   84   85 1    
   166   84  205 1    
   167   85   86 1    
   168   85   87 1    
   169   85  206 1    
   170   86  207 1    
   171   86  208 1    
   172   86  209 1    
   173   87   88 2    
   174   87   89 am   BACKBONE|DICT|INTERRES
   175   89   90 1    
   176   89  210 1    
   177   90   91 1    
   178   90   92 1    
   179   90  211 1    
   180   91  212 1    
   181   91  213 1    
   182   91  214 1    
   183   92   93 2    
   184   92   94 am   BACKBONE|DICT|INTERRES
   185   94   95 1    
   186   94  215 1    
   187   95   96 1    
   188   95   97 1    
   189   95  216 1    
   190   96  217 1    
   191   96  218 1    
   192   96  219 1    
   193   97   98 2    
   194   97   99 am   BACKBONE|DICT|INTERRES
   195   99  100 1    
   196   99  220 1    
   197  100  101 1    
   198  100  102 1    
   199  100  221 1    
   200  101  222 1    
   201  101  223 1    
   202  101  224 1    
   203  102  103 2    
   204  102  104 am   BACKBONE|DICT|INTERRES
   205  104  105 1    
   206  104  225 1    
   207  105  106 1    
   208  105  107 1    
   209  105  226 1    
   210  106  227 1    
   211  106  228 1    
   212  106  229 1    
   213  107  108 2    
   214  107  109 am   BACKBONE|DICT|INTERRES
   215  109  110 1    
   216  109  230 1    
   217  110  111 1    
   218  110  112 1    
   219  110  231 1    
   220  111  232 1    
   221  111  233 1    
   222  111  234 1    
   223  112  113 2    
   224  112  114 am   BACKBONE|DICT|INTERRES
   225  114  115 1    
   226  114  235 1    
   227  115  116 1    
   228  115  117 1    
   229  115  236 1    
   230  116  237 1    
   231  116  238 1    
   232  116  239 1    
   233  117  118 2    
   234  117  119 am   BACKBONE|DICT|INTERRES
   235  119  120 1    
   236  119  240 1    
   237  120  121 1    
   238  120  124 1    
   239  120  241 1    
   240  121  122 am   BACKBONE|DICT|INTERRES
   241  121  123 2    
   242  122  242 1    
   243  122  243 1    
   244  124  125 1    
   245  124  244 1    
   246  124  245 1    
   247  125  126 1    
   248  126  246 1    
   249  126  247 1    
@<TRIPOS>SUBSTRUCTURE
     1 UNK         1 GROUP             0       ****    0 ROOT    
