@<TRIPOS>MOLECULE
3R540
247   249    1
SMALL
USER_CHARGES


@<TRIPOS>ATOM
      1 CA         -0.3015   -9.9918  -48.2816 C.3       0 UNK        -0.1800 
      2 C           0.0708  -11.4410  -48.0048 C.2       0 UNK         0.5000 
      3 O           1.2314  -11.7271  -47.7084 O.2       0 UNK        -0.5000 
      4 N          -0.9135  -12.3487  -48.0814 N.am      1 UNK        -0.5000 
      5 CA         -0.7767  -13.8052  -47.9110 C.3       1 UNK         0.1400 
      6 C6         -2.1293  -14.5374  -48.0769 C.3       23 UNK        -0.0398 
      7 S7         -2.9193  -14.2430  -49.6912 S.3       23 UNK        -0.2404 
      8 C8         -3.4458  -15.9250  -50.1376 C.3       23 UNK        -0.0205 
      9 C9         -2.3594  -16.6860  -50.8821 C.ar      23 UNK        -0.0193 
     10 C10        -2.2241  -16.5101  -52.2606 C.ar      23 UNK        -0.1150 
     11 C11        -1.2719  -17.2341  -52.9785 C.ar      23 UNK        -0.0193 
     12 C12        -0.4442  -18.1346  -52.3037 C.ar      23 UNK        -0.1150 
     13 C13        -0.5498  -18.3158  -50.9204 C.ar      23 UNK        -0.0193 
     14 C14        -1.5167  -17.5823  -50.2145 C.ar      23 UNK        -0.1150 
     15 C15         0.4164  -19.3067  -50.2618 C.3       23 UNK        -0.0205 
     16 S16         0.2955  -19.4890  -48.4481 S.3       23 UNK        -0.2404 
     17 C17        -1.1545  -20.5788  -48.2784 C.3       23 UNK        -0.0398 
     18 CA         -0.8205  -21.9412  -47.6187 C.3       11 UNK         0.1400 
     19 N          -0.2974  -21.8081  -46.2499 N.am      11 UNK        -0.5000 
     20 C           0.0990  -22.8309  -45.4744 C.2       10 UNK         0.5000 
     21 O           0.1333  -23.9998  -45.8516 O.2       10 UNK        -0.5000 
     22 CA          0.4439  -22.5187  -44.0082 C.3       10 UNK         0.1400 
     23 CB          1.8892  -22.0191  -43.8593 C.3       10 UNK        -0.1800 
     24 N          -0.4943  -21.5614  -43.4233 N.am      10 UNK        -0.5000 
     25 C          -1.7777  -21.8410  -43.1513 C.2       9 UNK         0.5000 
     26 O          -2.2815  -22.9514  -43.3112 O.2       9 UNK        -0.5000 
     27 CA         -2.6601  -20.6782  -42.6658 C.3       9 UNK         0.1400 
     28 CB         -2.5788  -20.5343  -41.1392 C.3       9 UNK        -0.1800 
     29 N          -2.2958  -19.4125  -43.3001 N.am      9 UNK        -0.5000 
     30 C          -2.5074  -19.1346  -44.5960 C.2       8 UNK         0.5000 
     31 O          -3.0864  -19.8967  -45.3714 O.2       8 UNK        -0.5000 
     32 CA         -1.9228  -17.8092  -45.1252 C.3       8 UNK         0.1400 
     33 CB         -2.9357  -16.6684  -44.9503 C.3       8 UNK        -0.1800 
     34 N          -0.6663  -17.4411  -44.4693 N.am      8 UNK        -0.5000 
     35 C           0.4553  -18.1744  -44.5038 C.2       7 UNK         0.5000 
     36 O           0.5510  -19.2220  -45.1394 O.2       7 UNK        -0.5000 
     37 CA          1.6430  -17.7211  -43.6303 C.3       7 UNK         0.1400 
     38 CB          2.7613  -17.1180  -44.4913 C.3       7 UNK        -0.1800 
     39 N           1.3002  -16.7913  -42.5467 N.am      7 UNK        -0.5000 
     40 C           0.4830  -17.0749  -41.5200 C.2       6 UNK         0.5000 
     41 O          -0.1511  -18.1280  -41.4372 O.2       6 UNK        -0.5000 
     42 CA          0.3613  -16.0114  -40.4137 C.3       6 UNK         0.1400 
     43 CB         -0.1500  -16.5863  -39.0789 C.3       6 UNK        -0.1800 
     44 N           1.6470  -15.3459  -40.2091 N.am      6 UNK        -0.5000 
     45 C           1.8085  -14.0580  -39.8875 C.2       5 UNK         0.5000 
     46 O           0.8710  -13.2888  -39.6672 O.2       5 UNK        -0.5000 
     47 CA          3.2475  -13.5163  -39.8288 C.3       5 UNK         0.1400 
     48 CB          4.3449  -14.5786  -40.0485 C.3       5 UNK        -0.1800 
     49 N           3.3662  -12.4912  -40.8570 N.am      5 UNK        -0.5000 
     50 C           3.9286  -11.2860  -40.7130 C.2       4 UNK         0.5000 
     51 O           4.4637  -10.9087  -39.6688 O.2       4 UNK        -0.5000 
     52 CA          3.8590  -10.3290  -41.9271 C.3       4 UNK         0.1400 
     53 CB          5.0946   -9.4103  -42.0340 C.3       4 UNK        -0.1800 
     54 N           3.5833  -11.0017  -43.2048 N.am      4 UNK        -0.5000 
     55 C           4.3621  -11.8839  -43.8512 C.2       3 UNK         0.5000 
     56 O           5.4940  -12.2010  -43.4821 O.2       3 UNK        -0.5000 
     57 CA          3.7419  -12.5405  -45.1061 C.3       3 UNK         0.1400 
     58 CB          4.4521  -13.8516  -45.5011 C.3       3 UNK        -0.1800 
     59 N           2.2930  -12.7628  -44.9961 N.am      3 UNK        -0.5000 
     60 C           1.6561  -13.4808  -44.0563 C.2       2 UNK         0.5000 
     61 O           2.2209  -14.0347  -43.1132 O.2       2 UNK        -0.5000 
     62 CA          0.1255  -13.6037  -44.1658 C.3       2 UNK         0.1400 
     63 CB         -0.5591  -12.6137  -43.2132 C.3       2 UNK        -0.1800 
     64 N          -0.3912  -13.4025  -45.5174 N.am      2 UNK        -0.5000 
     65 C          -0.1617  -14.2162  -46.5583 C.2       1 UNK         0.5000 
     66 O           0.4922  -15.2542  -46.4840 O.2       1 UNK        -0.5000 
     67 C          -2.0605  -22.8579  -47.6624 C.2       11 UNK         0.5000 
     68 O          -2.1350  -23.7529  -48.5082 O.2       11 UNK        -0.5000 
     69 N          -2.9962  -22.6332  -46.7286 N.am      12 UNK        -0.5000 
     70 CA         -4.1955  -23.4464  -46.5487 C.3       12 UNK         0.1400 
     71 CB         -5.1261  -22.7803  -45.5244 C.3       12 UNK        -0.1800 
     72 C          -3.8723  -24.8995  -46.1512 C.2       12 UNK         0.5000 
     73 O          -4.3838  -25.8266  -46.7791 O.2       12 UNK        -0.5000 
     74 N          -3.0133  -25.0712  -45.1378 N.am      13 UNK        -0.5000 
     75 CA         -2.6193  -26.3728  -44.5969 C.3       13 UNK         0.1400 
     76 CB         -1.8420  -26.1664  -43.2880 C.3       13 UNK        -0.1800 
     77 C          -1.8009  -27.2407  -45.5707 C.2       13 UNK         0.5000 
     78 O          -1.9558  -28.4625  -45.5526 O.2       13 UNK        -0.5000 
     79 N          -0.9374  -26.6096  -46.3795 N.am      14 UNK        -0.5000 
     80 CA         -0.0256  -27.2797  -47.3068 C.3       14 UNK         0.1400 
     81 CB          0.9617  -26.2617  -47.9014 C.3       14 UNK        -0.1800 
     82 C          -0.7467  -28.0499  -48.4241 C.2       14 UNK         0.5000 
     83 O          -0.4935  -29.2437  -48.5955 O.2       14 UNK        -0.5000 
     84 N          -1.6144  -27.3546  -49.1702 N.am      15 UNK        -0.5000 
     85 CA         -2.2825  -27.8989  -50.3555 C.3       15 UNK         0.1400 
     86 CB         -1.2780  -27.9928  -51.5266 C.3       15 UNK        -0.1800 
     87 C          -3.5377  -27.0977  -50.7450 C.2       15 UNK         0.5000 
     88 O          -3.9317  -27.1386  -51.9117 O.2       15 UNK        -0.5000 
     89 N          -4.1372  -26.3676  -49.7889 N.am      16 UNK        -0.5000 
     90 CA         -5.2660  -25.4461  -49.9887 C.3       16 UNK         0.1400 
     91 CB         -6.5543  -26.2176  -50.3454 C.3       16 UNK        -0.1800 
     92 C          -4.9347  -24.3165  -50.9897 C.2       16 UNK         0.5000 
     93 O          -5.7783  -23.9370  -51.8007 O.2       16 UNK        -0.5000 
     94 N          -3.6957  -23.8117  -50.9178 N.am      17 UNK        -0.5000 
     95 CA         -3.1158  -22.8423  -51.8490 C.3       17 UNK         0.1400 
     96 CB         -1.5933  -23.0575  -51.8885 C.3       17 UNK        -0.1800 
     97 C          -3.4495  -21.3808  -51.4970 C.2       17 UNK         0.5000 
     98 O          -3.0064  -20.4755  -52.2013 O.2       17 UNK        -0.5000 
     99 N          -4.1987  -21.1600  -50.4080 N.am      18 UNK        -0.5000 
    100 CA        -4.6653  -19.8527  -49.9536 C.3       18 UNK         0.1400 
    101 CB        -5.2943  -20.0038  -48.5586 C.3       18 UNK        -0.1800 
    102 C         -5.6348  -19.2228  -50.9744 C.2       18 UNK         0.5000 
    103 O         -6.8343  -19.5006  -50.9347 O.2       18 UNK        -0.5000 
    104 N         -5.0691  -18.4215  -51.8873 N.am      19 UNK        -0.5000 
    105 CA        -5.7094  -17.7718  -53.0339 C.3       19 UNK         0.1400 
    106 CB        -6.8010  -16.7772  -52.5825 C.3       19 UNK        -0.1800 
    107 C         -6.2027  -18.7801  -54.0930 C.2       19 UNK         0.5000 
    108 O         -7.2646  -18.5788  -54.6862 O.2       19 UNK        -0.5000 
    109 N         -5.4203  -19.8409  -54.3269 N.am      20 UNK        -0.5000 
    110 CA        -5.6763  -20.8526  -55.3472 C.3       20 UNK         0.1400 
    111 CB        -6.5301  -21.9849  -54.7573 C.3       20 UNK        -0.1800 
    112 C         -4.3386  -21.3849  -55.8745 C.2       20 UNK         0.5000 
    113 O         -3.3884  -21.5111  -55.1021 O.2       20 UNK        -0.5000 
    114 N         -4.2945  -21.6899  -57.1799 N.am      21 UNK        -0.5000 
    115 CA        -3.1228  -22.1661  -57.9321 C.3       21 UNK         0.1400 
    116 CB        -2.6918  -23.5681  -57.4504 C.3       21 UNK        -0.1800 
    117 C         -1.9528  -21.1540  -57.9600 C.2       21 UNK         0.5000 
    118 O         -0.7918  -21.5513  -58.0750 O.2       21 UNK        -0.5000 
    119 N         -2.2848  -19.8604  -57.8616 N.am      22 UNK        -0.5000 
    120 CA        -1.3354  -18.7357  -57.8182 C.3       22 UNK         0.1400 
    121 C         -0.7307  -18.3420  -59.1989 C.2       22 UNK         0.5000 
    122 N         -1.2050  -18.8793  -60.3164 N.am      22 UNK        -0.7600 
    123 O          0.1946  -17.5367  -59.2569 O.2       22 UNK        -0.5000 
    124 C124       -1.9559  -17.4998  -57.1156 C.3       23 UNK        -0.0398 
    125 S125       -2.4684  -17.8471  -55.3971 S.3       23 UNK        -0.2404 
    126 C126       -1.1295  -17.0284  -54.4781 C.3       23 UNK        -0.0205 
    127 H127       -1.3595   -9.8830  -48.5212 H         1 UNK         0.0600 
    128 H128        0.2784   -9.6104  -49.1221 H         1 UNK         0.0600 
    129 H129       -0.0848   -9.3756  -47.4090 H         1 UNK         0.0600 
    130 H130       -1.8397  -12.0391  -48.3409 H         1 UNK         0.3000 
    131 H131       -0.0978  -14.1574  -48.6904 H         1 UNK         0.0600 
    132 H132       -1.9891  -15.6113  -47.9421 H         1 UNK         0.0800 
    133 H133       -2.8334  -14.2243  -47.3037 H         1 UNK         0.0800 
    134 H134       -3.7705  -16.4727  -49.2516 H         1 UNK         0.0800 
    135 H135       -4.3268  -15.8429  -50.7737 H         1 UNK         0.0800 
    136 H136       -2.8679  -15.8135  -52.7794 H         1 UNK         0.1150 
    137 H137        0.2929  -18.6971  -52.8594 H         1 UNK         0.1150 
    138 H138       -1.6270  -17.7050  -49.1479 H         1 UNK         0.1150 
    139 H139        0.2980  -20.2864  -50.7273 H         1 UNK         0.0800 
    140 H140        1.4336  -18.9844  -50.4881 H         1 UNK         0.0800 
    141 H141       -1.5867  -20.7332  -49.2673 H         1 UNK         0.0800 
    142 H142       -1.9107  -20.0434  -47.7046 H         1 UNK         0.0800 
    143 H143       -0.0439  -22.4255  -48.2143 H         1 UNK         0.0600 
    144 H144       -0.2185  -20.8642  -45.8818 H         1 UNK         0.3000 
    145 H145        0.3612  -23.4499  -43.4439 H         1 UNK         0.0600 
    146 H146        2.5942  -22.7848  -44.1851 H         1 UNK         0.0600 
    147 H147        2.0841  -21.1298  -44.4568 H         1 UNK         0.0600 
    148 H148        2.1220  -21.7848  -42.8205 H         1 UNK         0.0600 
    149 H149       -0.1711  -20.6108  -43.3195 H         1 UNK         0.3000 
    150 H150       -3.6943  -20.9082  -42.9309 H         1 UNK         0.0600 
    151 H151       -3.2147  -19.7234  -40.7839 H         1 UNK         0.0600 
    152 H152       -1.5604  -20.3332  -40.8052 H         1 UNK         0.0600 
    153 H153       -2.9100  -21.4486  -40.6451 H         1 UNK         0.0600 
    154 H154       -1.7627  -18.7616  -42.7351 H         1 UNK         0.3000 
    155 H155       -1.7187  -17.9325  -46.1909 H         1 UNK         0.0600 
    156 H156       -3.1984  -16.5205  -43.9020 H         1 UNK         0.0600 
    157 H157       -3.8575  -16.8799  -45.4939 H         1 UNK         0.0600 
    158 H158       -2.5430  -15.7262  -45.3295 H         1 UNK         0.0600 
    159 H159       -0.6682  -16.6013  -43.9142 H         1 UNK         0.3000 
    160 H160        2.0412  -18.6230  -43.1609 H         1 UNK         0.0600 
    161 H161        3.0748  -17.8152  -45.2694 H         1 UNK         0.0600 
    162 H162        2.4397  -16.2030  -44.9862 H         1 UNK         0.0600 
    163 H163        3.6402  -16.8840  -43.8906 H         1 UNK         0.0600 
    164 H164        1.7547  -15.8830  -42.5755 H         1 UNK         0.3000 
    165 H165       -0.3688  -15.2852  -40.7771 H         1 UNK         0.0600 
    166 H166       -0.2566  -15.8042  -38.3272 H         1 UNK         0.0600 
    167 H167       -1.1288  -17.0525  -39.1992 H         1 UNK         0.0600 
    168 H168        0.5297  -17.3416  -38.6831 H         1 UNK         0.0600 
    169 H169        2.4679  -15.9077  -40.3885 H         1 UNK         0.3000 
    170 H170        3.3774  -13.0799  -38.8365 H         1 UNK         0.0600 
    171 H171        5.3357  -14.1327  -39.9595 H         1 UNK         0.0600 
    172 H172        4.2849  -15.3728  -39.3034 H         1 UNK         0.0600 
    173 H173        4.2806  -15.0325  -41.0387 H         1 UNK         0.0600 
    174 H174        2.9449  -12.7355  -41.7469 H         1 UNK         0.3000 
    175 H175        2.9967   -9.6871  -41.7415 H         1 UNK         0.0600 
    176 H176        6.0191   -9.9804  -42.1269 H         1 UNK         0.0600 
    177 H177        5.0202   -8.7469  -42.8957 H         1 UNK         0.0600 
    178 H178        5.1907   -8.7797  -41.1495 H         1 UNK         0.0600 
    179 H179        2.6719  -10.8185  -43.6003 H         1 UNK         0.3000 
    180 H180        3.8800  -11.8304  -45.9226 H         1 UNK         0.0600 
    181 H181        5.4970  -13.6701  -45.7548 H         1 UNK         0.0600 
    182 H182        3.9814  -14.3093  -46.3713 H         1 UNK         0.0600 
    183 H183        4.4351  -14.5786  -44.6888 H         1 UNK         0.0600 
    184 H184        1.7421  -12.3707  -45.7526 H         1 UNK         0.3000 
    185 H185       -0.1423  -14.6134  -43.8527 H         1 UNK         0.0600 
    186 H186       -1.6407  -12.7506  -43.2124 H         1 UNK         0.0600 
    187 H187       -0.2161  -12.7550  -42.1876 H         1 UNK         0.0600 
    188 H188       -0.3511  -11.5791  -43.4890 H         1 UNK         0.0600 
    189 H189       -0.9370  -12.5679  -45.6763 H         1 UNK         0.3000 
    190 H190       -2.8743  -21.8553  -46.0890 H         1 UNK         0.3000 
    191 H191       -4.7202  -23.4650  -47.5039 H         1 UNK         0.0600 
    192 H192       -4.6608  -22.7029  -44.5421 H         1 UNK         0.0600 
    193 H193       -6.0477  -23.3513  -45.4065 H         1 UNK         0.0600 
    194 H194       -5.4047  -21.7746  -45.8398 H         1 UNK         0.0600 
    195 H195       -2.6570  -24.2542  -44.6485 H         1 UNK         0.3000 
    196 H196       -3.5334  -26.9217  -44.3612 H         1 UNK         0.0600 
    197 H197       -1.5495  -27.1215  -42.8499 H         1 UNK         0.0600 
    198 H198       -2.4472  -25.6422  -42.5483 H         1 UNK         0.0600 
    199 H199       -0.9331  -25.5862  -43.4502 H         1 UNK         0.0600 
    200 H200       -0.8182  -25.6049  -46.2791 H         1 UNK         0.3000 
    201 H201        0.5536  -28.0054  -46.7320 H         1 UNK         0.0600 
    202 H202        1.6110  -25.8491  -47.1294 H         1 UNK         0.0600 
    203 H203        0.4455  -25.4303  -48.3835 H         1 UNK         0.0600 
    204 H204        1.6067  -26.7275  -48.6477 H         1 UNK         0.0600 
    205 H205       -1.7586  -26.3738  -48.9697 H         1 UNK         0.3000 
    206 H206       -2.6350  -28.9058  -50.1229 H         1 UNK         0.0600 
    207 H207       -1.7363  -28.4402  -52.4094 H         1 UNK         0.0600 
    208 H208       -0.9075  -27.0072  -51.8110 H         1 UNK         0.0600 
    209 H209       -0.4178  -28.6122  -51.2739 H         1 UNK         0.0600 
    210 H210       -3.7997  -26.4272  -48.8357 H         1 UNK         0.3000 
    211 H211       -5.4470  -24.9583  -49.0334 H         1 UNK         0.0600 
    212 H212       -6.4926  -26.6847  -51.3285 H         1 UNK         0.0600 
    213 H213       -7.4172  -25.5508  -50.3561 H         1 UNK         0.0600 
    214 H214       -6.7592  -26.9994  -49.6141 H         1 UNK         0.0600 
    215 H215       -3.0871  -24.1153  -50.1633 H         1 UNK         0.3000 
    216 H216       -3.5115  -23.0337  -52.8482 H         1 UNK         0.0600 
    217 H217       -1.1291  -22.8438  -50.9253 H         1 UNK         0.0600 
    218 H218       -1.1267  -22.4064  -52.6292 H         1 UNK         0.0600 
    219 H219       -1.3471  -24.0841  -52.1603 H         1 UNK         0.0600 
    220 H220       -4.5470  -21.9642  -49.9101 H         1 UNK         0.3000 
    221 H221       -3.7982  -19.1989  -49.8521 H         1 UNK         0.0600 
    222 H222       -6.1273  -20.7078  -48.5622 H         1 UNK         0.0600 
    223 H223       -4.5614  -20.3553  -47.8325 H         1 UNK         0.0600 
    224 H224       -5.6730  -19.0472  -48.1966 H         1 UNK         0.0600 
    225 H225       -4.0576  -18.3645  -51.8798 H         1 UNK         0.3000 
    226 H226       -4.9270  -17.1901  -53.5224 H         1 UNK         0.0600 
    227 H227       -6.4222  -16.0777  -51.8386 H         1 UNK         0.0600 
    228 H228       -7.1599  -16.1859  -53.4255 H         1 UNK         0.0600 
    229 H229       -7.6642  -17.2868  -52.1539 H         1 UNK         0.0600 
    230 H230       -4.5366  -19.9407  -53.8359 H         1 UNK         0.3000 
    231 H231       -6.2141  -20.3988  -56.1825 H         1 UNK         0.0600 
    232 H232       -6.0242  -22.4627  -53.9193 H         1 UNK         0.0600 
    233 H233       -7.4909  -21.6136  -54.4006 H         1 UNK         0.0600 
    234 H234       -6.7324  -22.7545  -55.5030 H         1 UNK         0.0600 
    235 H235       -5.1327  -21.5602  -57.7299 H         1 UNK         0.3000 
    236 H236       -3.4509  -22.2666  -58.9676 H         1 UNK         0.0600 
    237 H237       -2.2732  -23.5412  -56.4440 H         1 UNK         0.0600 
    238 H238       -3.5343  -24.2596  -57.4449 H         1 UNK         0.0600 
    239 H239       -1.9314  -23.9912  -58.1077 H         1 UNK         0.0600 
    240 H240       -3.2598  -19.6218  -57.7630 H         1 UNK         0.3000 
    241 H241       -0.4846  -19.0538  -57.2123 H         1 UNK         0.0600 
    242 H242       -0.8015  -18.6197  -61.2032 H         1 UNK         0.3800 
    243 H243       -1.9613  -19.5439  -60.2854 H         1 UNK         0.3800 
    244 H244       -1.2546  -16.6635  -57.1121 H         1 UNK         0.0800 
    245 H245       -2.8305  -17.1522  -57.6677 H         1 UNK         0.0800 
    246 H246       -1.1364  -15.9600  -54.6996 H         1 UNK         0.0800 
    247 H247       -0.1684  -17.4115  -54.8249 H         1 UNK         0.0800 
@<TRIPOS>BOND
     1    1    2 1    
     2    1  127 1    
     3    1  128 1    
     4    1  129 1    
     5    2    3 2    
     6    2    4 am   BACKBONE|DICT|INTERRES
     7    4    5 1    
     8    4  130 1    
     9    5    6 1    
    10    5   65 1    
    11    5  131 1    
    12    6    7 1    
    13    6  132 1    
    14    6  133 1    
    15    7    8 1    
    16    8    9 1    
    17    8  134 1    
    18    8  135 1    
    19    9   10 ar   
    20    9   14 ar   
    21   10   11 ar   
    22   10  136 1    
    23   11   12 ar   
    24   11  126 1    
    25   12   13 ar   
    26   12  137 1    
    27   13   14 ar   
    28   13   15 1    
    29   14  138 1    
    30   15   16 1    
    31   15  139 1    
    32   15  140 1    
    33   16   17 1    
    34   17   18 1    
    35   17  141 1    
    36   17  142 1    
    37   18   19 1    
    38   18   67 1    
    39   18  143 1    
    40   19   20 am   BACKBONE|DICT|INTERRES
    41   19  144 1    
    42   20   21 2    
    43   20   22 1    
    44   22   23 1    
    45   22   24 1    
    46   22  145 1    
    47   23  146 1    
    48   23  147 1    
    49   23  148 1    
    50   24   25 am   BACKBONE|DICT|INTERRES
    51   24  149 1    
    52   25   26 2    
    53   25   27 1    
    54   27   28 1    
    55   27   29 1    
    56   27  150 1    
    57   28  151 1    
    58   28  152 1    
    59   28  153 1    
    60   29   30 am   BACKBONE|DICT|INTERRES
    61   29  154 1    
    62   30   31 2    
    63   30   32 1    
    64   32   33 1    
    65   32   34 1    
    66   32  155 1    
    67   33  156 1    
    68   33  157 1    
    69   33  158 1    
    70   34   35 am   BACKBONE|DICT|INTERRES
    71   34  159 1    
    72   35   36 2    
    73   35   37 1    
    74   37   38 1    
    75   37   39 1    
    76   37  160 1    
    77   38  161 1    
    78   38  162 1    
    79   38  163 1    
    80   39   40 am   BACKBONE|DICT|INTERRES
    81   39  164 1    
    82   40   41 2    
    83   40   42 1    
    84   42   43 1    
    85   42   44 1    
    86   42  165 1    
    87   43  166 1    
    88   43  167 1    
    89   43  168 1    
    90   44   45 am   BACKBONE|DICT|INTERRES
    91   44  169 1    
    92   45   46 2    
    93   45   47 1    
    94   47   48 1    
    95   47   49 1    
    96   47  170 1    
    97   48  171 1    
    98   48  172 1    
    99   48  173 1    
   100   49   50 am   BACKBONE|DICT|INTERRES
   101   49  174 1    
   102   50   51 2    
   103   50   52 1    
   104   52   53 1    
   105   52   54 1    
   106   52  175 1    
   107   53  176 1    
   108   53  177 1    
   109   53  178 1    
   110   54   55 am   BACKBONE|DICT|INTERRES
   111   54  179 1    
   112   55   56 2    
   113   55   57 1    
   114   57   58 1    
   115   57   59 1    
   116   57  180 1    
   117   58  181 1    
   118   58  182 1    
   119   58  183 1    
   120   59   60 am   BACKBONE|DICT|INTERRES
   121   59  184 1    
   122   60   61 2    
   123   60   62 1    
   124   62   63 1    
   125   62   64 1    
   126   62  185 1    
   127   63  186 1    
   128   63  187 1    
   129   63  188 1    
   130   64   65 am   BACKBONE|DICT|INTERRES
   131   64  189 1    
   132   65   66 2    
   133   67   68 2    
   134   67   69 am   BACKBONE|DICT|INTERRES
   135   69   70 1    
   136   69  190 1    
   137   70   71 1    
   138   70   72 1    
   139   70  191 1    
   140   71  192 1    
   141   71  193 1    
   142   71  194 1    
   143   72   73 2    
   144   72   74 am   BACKBONE|DICT|INTERRES
   145   74   75 1    
   146   74  195 1    
   147   75   76 1    
   148   75   77 1    
   149   75  196 1    
   150   76  197 1    
   151   76  198 1    
   152   76  199 1    
   153   77   78 2    
   154   77   79 am   BACKBONE|DICT|INTERRES
   155   79   80 1    
   156   79  200 1    
   157   80   81 1    
   158   80   82 1    
   159   80  201 1    
   160   81  202 1    
   161   81  203 1    
   162   81  204 1    
   163   82   83 2    
   164   82   84 am   BACKBONE|DICT|INTERRES
   165   84   85 1    
   166   84  205 1    
   167   85   86 1    
   168   85   87 1    
   169   85  206 1    
   170   86  207 1    
   171   86  208 1    
   172   86  209 1    
   173   87   88 2    
   174   87   89 am   BACKBONE|DICT|INTERRES
   175   89   90 1    
   176   89  210 1    
   177   90   91 1    
   178   90   92 1    
   179   90  211 1    
   180   91  212 1    
   181   91  213 1    
   182   91  214 1    
   183   92   93 2    
   184   92   94 am   BACKBONE|DICT|INTERRES
   185   94   95 1    
   186   94  215 1    
   187   95   96 1    
   188   95   97 1    
   189   95  216 1    
   190   96  217 1    
   191   96  218 1    
   192   96  219 1    
   193   97   98 2    
   194   97   99 am   BACKBONE|DICT|INTERRES
   195   99  100 1    
   196   99  220 1    
   197  100  101 1    
   198  100  102 1    
   199  100  221 1    
   200  101  222 1    
   201  101  223 1    
   202  101  224 1    
   203  102  103 2    
   204  102  104 am   BACKBONE|DICT|INTERRES
   205  104  105 1    
   206  104  225 1    
   207  105  106 1    
   208  105  107 1    
   209  105  226 1    
   210  106  227 1    
   211  106  228 1    
   212  106  229 1    
   213  107  108 2    
   214  107  109 am   BACKBONE|DICT|INTERRES
   215  109  110 1    
   216  109  230 1    
   217  110  111 1    
   218  110  112 1    
   219  110  231 1    
   220  111  232 1    
   221  111  233 1    
   222  111  234 1    
   223  112  113 2    
   224  112  114 am   BACKBONE|DICT|INTERRES
   225  114  115 1    
   226  114  235 1    
   227  115  116 1    
   228  115  117 1    
   229  115  236 1    
   230  116  237 1    
   231  116  238 1    
   232  116  239 1    
   233  117  118 2    
   234  117  119 am   BACKBONE|DICT|INTERRES
   235  119  120 1    
   236  119  240 1    
   237  120  121 1    
   238  120  124 1    
   239  120  241 1    
   240  121  122 am   BACKBONE|DICT|INTERRES
   241  121  123 2    
   242  122  242 1    
   243  122  243 1    
   244  124  125 1    
   245  124  244 1    
   246  124  245 1    
   247  125  126 1    
   248  126  246 1    
   249  126  247 1    
@<TRIPOS>SUBSTRUCTURE
     1 UNK         1 GROUP             0       ****    0 ROOT    
