@<TRIPOS>MOLECULE
3R540
247   249    1
SMALL
USER_CHARGES


@<TRIPOS>ATOM
      1 CA         -4.9807  -14.7416  -51.4261 C.3       0 UNK        -0.1800 
      2 C          -4.2729  -14.2623  -50.1682 C.2       0 UNK         0.5000 
      3 O          -4.7664  -13.3630  -49.4868 O.2       0 UNK        -0.5000 
      4 N          -3.1213  -14.8641  -49.8515 N.am      1 UNK        -0.5000 
      5 CA         -2.3141  -14.5938  -48.6602 C.3       1 UNK         0.1400 
      6 C6         -0.8116  -14.9058  -48.8910 C.3       23 UNK        -0.0398 
      7 S7         -0.4461  -16.5235  -49.6551 S.3       23 UNK        -0.2404 
      8 C8          1.3403  -16.3074  -49.9312 C.3       23 UNK        -0.0205 
      9 C9          1.9569  -17.5498  -50.5496 C.ar      23 UNK        -0.0193 
     10 C10         2.3527  -17.5629  -51.8880 C.ar      23 UNK        -0.1150 
     11 C11         2.9104  -18.7146  -52.4487 C.ar      23 UNK        -0.0193 
     12 C12         3.0302  -19.8703  -51.6698 C.ar      23 UNK        -0.1150 
     13 C13         2.6392  -19.8754  -50.3253 C.ar      23 UNK        -0.0193 
     14 C14         2.1337  -18.6925  -49.7698 C.ar      23 UNK        -0.1150 
     15 C15         2.7430  -21.1874  -49.5397 C.3       23 UNK        -0.0205 
     16 S16         2.7050  -21.0592  -47.7158 S.3       23 UNK        -0.2404 
     17 C17         0.9452  -20.7135  -47.3563 C.3       23 UNK        -0.0398 
     18 CA          0.1123  -21.9545  -46.9662 C.3       11 UNK         0.1400 
     19 N           0.7474  -22.7610  -45.9219 N.am      11 UNK        -0.5000 
     20 C           0.4169  -24.0286  -45.6422 C.2       10 UNK         0.5000 
     21 O          -0.4624  -24.6497  -46.2370 O.2       10 UNK        -0.5000 
     22 CA          1.1536  -24.6854  -44.4600 C.3       10 UNK         0.1400 
     23 CB          2.4778  -25.3063  -44.9277 C.3       10 UNK        -0.1800 
     24 N           1.4205  -23.7478  -43.3667 N.am      10 UNK        -0.5000 
     25 C           0.4900  -23.0742  -42.6799 C.2       9 UNK         0.5000 
     26 O          -0.7174  -23.2004  -42.8857 O.2       9 UNK        -0.5000 
     27 CA          0.9731  -22.0445  -41.6413 C.3       9 UNK         0.1400 
     28 CB          1.1725  -22.6944  -40.2598 C.3       9 UNK        -0.1800 
     29 N           2.1503  -21.2662  -42.0556 N.am      9 UNK        -0.5000 
     30 C           3.4233  -21.6660  -42.2127 C.2       8 UNK         0.5000 
     31 O           3.7928  -22.8303  -42.0572 O.2       8 UNK        -0.5000 
     32 CA          4.4595  -20.6119  -42.6612 C.3       8 UNK         0.1400 
     33 CB          4.8757  -20.8677  -44.1189 C.3       8 UNK        -0.1800 
     34 N           3.9893  -19.2302  -42.5505 N.am      8 UNK        -0.5000 
     35 C           3.7679  -18.5685  -41.4059 C.2       7 UNK         0.5000 
     36 O           4.0416  -19.0210  -40.2940 O.2       7 UNK        -0.5000 
     37 CA          3.0998  -17.1802  -41.5186 C.3       7 UNK         0.1400 
     38 CB          4.1439  -16.0691  -41.3302 C.3       7 UNK        -0.1800 
     39 N           2.3765  -16.9422  -42.7754 N.am      7 UNK        -0.5000 
     40 C           1.3505  -17.6685  -43.2429 C.2       6 UNK         0.5000 
     41 O           0.9093  -18.6650  -42.6670 O.2       6 UNK        -0.5000 
     42 CA          0.7514  -17.2051  -44.5824 C.3       6 UNK         0.1400 
     43 CB         -0.4695  -18.0350  -45.0113 C.3       6 UNK        -0.1800 
     44 N           0.3694  -15.8003  -44.4819 N.am      6 UNK        -0.5000 
     45 C           0.9481  -14.7779  -45.1253 C.2       5 UNK         0.5000 
     46 O           1.8417  -14.9180  -45.9600 O.2       5 UNK        -0.5000 
     47 CA          0.4819  -13.3517  -44.7579 C.3       5 UNK         0.1400 
     48 CB         -0.3938  -12.7476  -45.8645 C.3       5 UNK        -0.1800 
     49 N          -0.2434  -13.2937  -43.4871 N.am      5 UNK        -0.5000 
     50 C           0.3364  -13.4273  -42.2855 C.2       4 UNK         0.5000 
     51 O           1.5540  -13.5206  -42.1291 O.2       4 UNK        -0.5000 
     52 CA         -0.5841  -13.4961  -41.0505 C.3       4 UNK         0.1400 
     53 CB         -0.5808  -12.1528  -40.3049 C.3       4 UNK        -0.1800 
     54 N          -1.9720  -13.8752  -41.3327 N.am      4 UNK        -0.5000 
     55 C          -2.3809  -15.0317  -41.8730 C.2       3 UNK         0.5000 
     56 O          -1.6096  -15.9085  -42.2646 O.2       3 UNK        -0.5000 
     57 CA         -3.9035  -15.2528  -42.0083 C.3       3 UNK         0.1400 
     58 CB         -4.7653  -14.1017  -41.4401 C.3       3 UNK        -0.1800 
     59 N          -4.3102  -15.5492  -43.3855 N.am      3 UNK        -0.5000 
     60 C          -4.0907  -14.7959  -44.4723 C.2       2 UNK         0.5000 
     61 O          -3.4536  -13.7387  -44.4662 O.2       2 UNK        -0.5000 
     62 CA         -4.7555  -15.2922  -45.7704 C.3       2 UNK         0.1400 
     63 CB         -6.2211  -14.8358  -45.8350 C.3       2 UNK        -0.1800 
     64 N          -4.0653  -14.8024  -46.9607 N.am      2 UNK        -0.5000 
     65 C          -2.9141  -15.2980  -47.4243 C.2       1 UNK         0.5000 
     66 O          -2.3645  -16.2822  -46.9363 O.2       1 UNK        -0.5000 
     67 C          -1.3236  -21.5260  -46.5847 C.2       11 UNK         0.5000 
     68 O          -2.1437  -21.3019  -47.4767 O.2       11 UNK        -0.5000 
     69 N          -1.6059  -21.4233  -45.2763 N.am      12 UNK        -0.5000 
     70 CA         -2.9344  -21.1293  -44.7387 C.3       12 UNK         0.1400 
     71 CB         -2.8240  -20.5595  -43.3151 C.3       12 UNK        -0.1800 
     72 C          -3.8147  -22.3878  -44.7629 C.2       12 UNK         0.5000 
     73 O          -4.9782  -22.3031  -45.1542 O.2       12 UNK        -0.5000 
     74 N          -3.2239  -23.5426  -44.4178 N.am      13 UNK        -0.5000 
     75 CA         -3.8364  -24.8708  -44.5291 C.3       13 UNK         0.1400 
     76 CB         -2.9061  -25.9144  -43.8934 C.3       13 UNK        -0.1800 
     77 C          -4.1827  -25.2546  -45.9833 C.2       13 UNK         0.5000 
     78 O          -5.1716  -25.9511  -46.2111 O.2       13 UNK        -0.5000 
     79 N          -3.4021  -24.7353  -46.9410 N.am      14 UNK        -0.5000 
     80 CA         -3.6471  -24.7940  -48.3844 C.3       14 UNK         0.1400 
     81 CB         -2.3113  -24.5894  -49.1174 C.3       14 UNK        -0.1800 
     82 C          -4.7198  -23.7939  -48.8813 C.2       14 UNK         0.5000 
     83 O          -4.8821  -23.6495  -50.0933 O.2       14 UNK        -0.5000 
     84 N          -5.4341  -23.1360  -47.9547 N.am      15 UNK        -0.5000 
     85 CA         -6.5360  -22.1943  -48.1629 C.3       15 UNK         0.1400 
     86 CB         -7.7214  -22.8693  -48.8866 C.3       15 UNK        -0.1800 
     87 C          -6.0720  -20.8850  -48.8261 C.2       15 UNK         0.5000 
     88 O          -6.6292  -20.4812  -49.8481 O.2       15 UNK        -0.5000 
     89 N          -5.0634  -20.2486  -48.2072 N.am      16 UNK        -0.5000 
     90 CA         -4.4320  -18.9851  -48.6101 C.3       16 UNK         0.1400 
     91 CB         -5.4454  -17.8217  -48.5449 C.3       16 UNK        -0.1800 
     92 C          -3.7624  -19.1264  -49.9888 C.2       16 UNK         0.5000 
     93 O          -4.1872  -18.4829  -50.9492 O.2       16 UNK        -0.5000 
     94 N          -2.7610  -20.0181  -50.0363 N.am      17 UNK        -0.5000 
     95 CA         -2.1343  -20.6598  -51.2001 C.3       17 UNK         0.1400 
     96 CB         -0.7457  -21.1700  -50.8018 C.3       17 UNK        -0.1800 
     97 C          -2.0235  -19.8609  -52.5106 C.2       17 UNK         0.5000 
     98 O          -2.2419  -20.4448  -53.5707 O.2       17 UNK        -0.5000 
     99 N          -1.7186  -18.5574  -52.4462 N.am      18 UNK        -0.5000 
    100 CA        -1.6813  -17.6575  -53.6060 C.3       18 UNK         0.1400 
    101 CB        -1.2571  -16.2529  -53.1555 C.3       18 UNK        -0.1800 
    102 C         -3.0067  -17.5924  -54.3986 C.2       18 UNK         0.5000 
    103 O         -2.9710  -17.4073  -55.6154 O.2       18 UNK        -0.5000 
    104 N         -4.1441  -17.8059  -53.7186 N.am      19 UNK        -0.5000 
    105 CA        -5.4746  -17.9275  -54.3240 C.3       19 UNK         0.1400 
    106 CB        -6.5408  -17.8598  -53.2196 C.3       19 UNK        -0.1800 
    107 C         -5.6535  -19.2175  -55.1516 C.2       19 UNK         0.5000 
    108 O         -6.5080  -19.2550  -56.0370 O.2       19 UNK        -0.5000 
    109 N         -4.8358  -20.2376  -54.8642 N.am      20 UNK        -0.5000 
    110 CA        -4.7623  -21.5166  -55.5685 C.3       20 UNK         0.1400 
    111 CB        -4.7971  -22.6488  -54.5257 C.3       20 UNK        -0.1800 
    112 C         -3.4971  -21.5847  -56.4502 C.2       20 UNK         0.5000 
    113 O         -3.0032  -22.6794  -56.7283 O.2       20 UNK        -0.5000 
    114 N         -2.9718  -20.4138  -56.8478 N.am      21 UNK        -0.5000 
    115 CA        -1.7777  -20.2040  -57.6755 C.3       21 UNK         0.1400 
    116 CB        -2.0372  -20.6734  -59.1222 C.3       21 UNK        -0.1800 
    117 C         -0.4917  -20.8083  -57.0696 C.2       21 UNK         0.5000 
    118 O          0.3896  -21.2490  -57.8096 O.2       21 UNK        -0.5000 
    119 N         -0.4205  -20.8236  -55.7321 N.am      22 UNK        -0.5000 
    120 CA         0.6495  -21.4098  -54.9080 C.3       22 UNK         0.1400 
    121 C          0.6505  -22.9689  -54.8831 C.2       22 UNK         0.5000 
    122 N         -0.3788  -23.6482  -55.3787 N.am      22 UNK        -0.7600 
    123 O          1.5871  -23.5800  -54.3761 O.2       22 UNK        -0.5000 
    124 C124        2.0576  -20.8115  -55.1837 C.3       23 UNK        -0.0398 
    125 S125        2.0905  -18.9856  -55.0917 S.3       23 UNK        -0.2404 
    126 C126        3.4158  -18.6855  -53.8832 C.3       23 UNK        -0.0205 
    127 H127       -4.4845  -15.6085  -51.8618 H         1 UNK         0.0600 
    128 H128       -5.0025  -13.9481  -52.1727 H         1 UNK         0.0600 
    129 H129       -6.0075  -15.0210  -51.1913 H         1 UNK         0.0600 
    130 H130       -2.7791  -15.6193  -50.4273 H         1 UNK         0.3000 
    131 H131       -2.3693  -13.5231  -48.4501 H         1 UNK         0.0600 
    132 H132       -0.2541  -14.8359  -47.9566 H         1 UNK         0.0800 
    133 H133       -0.3943  -14.1345  -49.5398 H         1 UNK         0.0800 
    134 H134        1.8314  -16.0928  -48.9803 H         1 UNK         0.0800 
    135 H135        1.5061  -15.4394  -50.5711 H         1 UNK         0.0800 
    136 H136        2.2397  -16.6740  -52.4926 H         1 UNK         0.1150 
    137 H137        3.4393  -20.7689  -52.1098 H         1 UNK         0.1150 
    138 H138        1.8466  -18.6382  -48.7328 H         1 UNK         0.1150 
    139 H139        1.9480  -21.8597  -49.8635 H         1 UNK         0.0800 
    140 H140        3.6803  -21.6777  -49.8067 H         1 UNK         0.0800 
    141 H141        0.9362  -19.9775  -46.5536 H         1 UNK         0.0800 
    142 H142        0.4769  -20.2309  -48.2134 H         1 UNK         0.0800 
    143 H143        0.0334  -22.5844  -47.8540 H         1 UNK         0.0600 
    144 H144        1.4972  -22.3281  -45.4037 H         1 UNK         0.3000 
    145 H145        0.5161  -25.4814  -44.0706 H         1 UNK         0.0600 
    146 H146        2.9715  -25.8392  -44.1149 H         1 UNK         0.0600 
    147 H147        2.3104  -26.0237  -45.7322 H         1 UNK         0.0600 
    148 H148        3.1687  -24.5487  -45.3001 H         1 UNK         0.0600 
    149 H149        2.3902  -23.6006  -43.1017 H         1 UNK         0.3000 
    150 H150        0.1695  -21.3131  -41.5405 H         1 UNK         0.0600 
    151 H151        0.2477  -23.1573  -39.9133 H         1 UNK         0.0600 
    152 H152        1.4643  -21.9537  -39.5152 H         1 UNK         0.0600 
    153 H153        1.9363  -23.4721  -40.2779 H         1 UNK         0.0600 
    154 H154        1.9413  -20.2911  -42.2510 H         1 UNK         0.3000 
    155 H155        5.3391  -20.7272  -42.0247 H         1 UNK         0.0600 
    156 H156        5.6587  -20.1774  -44.4333 H         1 UNK         0.0600 
    157 H157        4.0342  -20.7554  -44.8037 H         1 UNK         0.0600 
    158 H158        5.2676  -21.8779  -44.2450 H         1 UNK         0.0600 
    159 H159        3.7481  -18.7674  -43.4138 H         1 UNK         0.3000 
    160 H160        2.3729  -17.1080  -40.7071 H         1 UNK         0.0600 
    161 H161        4.8777  -16.0666  -42.1371 H         1 UNK         0.0600 
    162 H162        4.6868  -16.1953  -40.3925 H         1 UNK         0.0600 
    163 H163        3.6742  -15.0859  -41.2998 H         1 UNK         0.0600 
    164 H164        2.6626  -16.1301  -43.3035 H         1 UNK         0.3000 
    165 H165        1.5300  -17.3479  -45.3343 H         1 UNK         0.0600 
    166 H166       -1.3705  -17.7407  -44.4724 H         1 UNK         0.0600 
    167 H167       -0.6579  -17.9187  -46.0772 H         1 UNK         0.0600 
    168 H168       -0.3140  -19.0973  -44.8361 H         1 UNK         0.0600 
    169 H169       -0.3375  -15.6021  -43.7799 H         1 UNK         0.3000 
    170 H170        1.3776  -12.7333  -44.6686 H         1 UNK         0.0600 
    171 H171        0.1402  -12.7178  -46.8147 H         1 UNK         0.0600 
    172 H172       -1.3054  -13.3242  -46.0107 H         1 UNK         0.0600 
    173 H173       -0.6819  -11.7240  -45.6242 H         1 UNK         0.0600 
    174 H174       -1.2530  -13.2419  -43.5401 H         1 UNK         0.3000 
    175 H175       -0.1675  -14.2560  -40.3863 H         1 UNK         0.0600 
    176 H176       -1.0162  -11.3567  -40.9102 H         1 UNK         0.0600 
    177 H177       -1.1449  -12.2155  -39.3741 H         1 UNK         0.0600 
    178 H178        0.4350  -11.8503  -40.0464 H         1 UNK         0.0600 
    179 H179       -2.6775  -13.2039  -41.0664 H         1 UNK         0.3000 
    180 H180       -4.1259  -16.1467  -41.4240 H         1 UNK         0.0600 
    181 H181       -4.5541  -13.9308  -40.3836 H         1 UNK         0.0600 
    182 H182       -4.6033  -13.1637  -41.9727 H         1 UNK         0.0600 
    183 H183       -5.8264  -14.3398  -41.5147 H         1 UNK         0.0600 
    184 H184       -4.8226  -16.4119  -43.5007 H         1 UNK         0.3000 
    185 H185       -4.7313  -16.3840  -45.7762 H         1 UNK         0.0600 
    186 H186       -6.7880  -15.2090  -44.9812 H         1 UNK         0.0600 
    187 H187       -6.3032  -13.7480  -45.8335 H         1 UNK         0.0600 
    188 H188       -6.7100  -15.2075  -46.7359 H         1 UNK         0.0600 
    189 H189       -4.4758  -14.0095  -47.4388 H         1 UNK         0.3000 
    190 H190       -0.8972  -21.6767  -44.6030 H         1 UNK         0.3000 
    191 H191       -3.4055  -20.3692  -45.3658 H         1 UNK         0.0600 
    192 H192       -3.8030  -20.2480  -42.9493 H         1 UNK         0.0600 
    193 H193       -2.1745  -19.6858  -43.2812 H         1 UNK         0.0600 
    194 H194       -2.4339  -21.2900  -42.6074 H         1 UNK         0.0600 
    195 H195       -2.2770  -23.5093  -44.0521 H         1 UNK         0.3000 
    196 H196       -4.7690  -24.8534  -43.9615 H         1 UNK         0.0600 
    197 H197       -3.3654  -26.9036  -43.9043 H         1 UNK         0.0600 
    198 H198       -2.6872  -25.6677  -42.8543 H         1 UNK         0.0600 
    199 H199       -1.9584  -25.9878  -44.4264 H         1 UNK         0.0600 
    200 H200       -2.5635  -24.2480  -46.6509 H         1 UNK         0.3000 
    201 H201       -4.0121  -25.7934  -48.6287 H         1 UNK         0.0600 
    202 H202       -1.5685  -25.3203  -48.7974 H         1 UNK         0.0600 
    203 H203       -1.9071  -23.5970  -48.9292 H         1 UNK         0.0600 
    204 H204       -2.4279  -24.6981  -50.1963 H         1 UNK         0.0600 
    205 H205       -5.1914  -23.2831  -46.9824 H         1 UNK         0.3000 
    206 H206       -6.8879  -21.9188  -47.1677 H         1 UNK         0.0600 
    207 H207       -8.0324  -23.7775  -48.3704 H         1 UNK         0.0600 
    208 H208       -8.5845  -22.2036  -48.9203 H         1 UNK         0.0600 
    209 H209       -7.4770  -23.1347  -49.9155 H         1 UNK         0.0600 
    210 H210       -4.6368  -20.7130  -47.4178 H         1 UNK         0.3000 
    211 H211       -3.6399  -18.7761  -47.8886 H         1 UNK         0.0600 
    212 H212       -6.2652  -17.9465  -49.2524 H         1 UNK         0.0600 
    213 H213       -4.9643  -16.8756  -48.7845 H         1 UNK         0.0600 
    214 H214       -5.8754  -17.7280  -47.5483 H         1 UNK         0.0600 
    215 H215       -2.5321  -20.4613  -49.1504 H         1 UNK         0.3000 
    216 H216       -2.7552  -21.5303  -51.4209 H         1 UNK         0.0600 
    217 H217       -0.2738  -21.7198  -51.6168 H         1 UNK         0.0600 
    218 H218       -0.7966  -21.8424  -49.9488 H         1 UNK         0.0600 
    219 H219       -0.0919  -20.3396  -50.5411 H         1 UNK         0.0600 
    220 H220       -1.5578  -18.1448  -51.5384 H         1 UNK         0.3000 
    221 H221       -0.9168  -18.0385  -54.2863 H         1 UNK         0.0600 
    222 H222       -1.9566  -15.8326  -52.4335 H         1 UNK         0.0600 
    223 H223       -0.2677  -16.2683  -52.6998 H         1 UNK         0.0600 
    224 H224       -1.2093  -15.5682  -54.0032 H         1 UNK         0.0600 
    225 H225       -4.0899  -17.9917  -52.7177 H         1 UNK         0.3000 
    226 H226       -5.6220  -17.0797  -54.9960 H         1 UNK         0.0600 
    227 H227       -6.4772  -16.9265  -52.6629 H         1 UNK         0.0600 
    228 H228       -7.5452  -17.9167  -53.6409 H         1 UNK         0.0600 
    229 H229       -6.4367  -18.6811  -52.5089 H         1 UNK         0.0600 
    230 H230       -4.1179  -20.0994  -54.1611 H         1 UNK         0.3000 
    231 H231       -5.6219  -21.6366  -56.2305 H         1 UNK         0.0600 
    232 H232       -5.6825  -22.5758  -53.8938 H         1 UNK         0.0600 
    233 H233       -4.8238  -23.6271  -55.0069 H         1 UNK         0.0600 
    234 H234       -3.9211  -22.6253  -53.8763 H         1 UNK         0.0600 
    235 H235       -3.4242  -19.5677  -56.5276 H         1 UNK         0.3000 
    236 H236       -1.6157  -19.1255  -57.7032 H         1 UNK         0.0600 
    237 H237       -2.9402  -20.2177  -59.5284 H         1 UNK         0.0600 
    238 H238       -1.2123  -20.3951  -59.7791 H         1 UNK         0.0600 
    239 H239       -2.1516  -21.7562  -59.1814 H         1 UNK         0.0600 
    240 H240       -1.2229  -20.5020  -55.1997 H         1 UNK         0.3000 
    241 H241        0.3977  -21.1298  -53.8859 H         1 UNK         0.0600 
    242 H242       -1.1661  -23.1737  -55.8050 H         1 UNK         0.3800 
    243 H243       -0.3661  -24.6549  -55.3448 H         1 UNK         0.3800 
    244 H244        2.4188  -21.1116  -56.1678 H         1 UNK         0.0800 
    245 H245        2.7774  -21.2154  -54.4711 H         1 UNK         0.0800 
    246 H246        3.8508  -17.7063  -54.0883 H         1 UNK         0.0800 
    247 H247        4.2258  -19.4027  -54.0237 H         1 UNK         0.0800 
@<TRIPOS>BOND
     1    1    2 1    
     2    1  127 1    
     3    1  128 1    
     4    1  129 1    
     5    2    3 2    
     6    2    4 am   BACKBONE|DICT|INTERRES
     7    4    5 1    
     8    4  130 1    
     9    5    6 1    
    10    5   65 1    
    11    5  131 1    
    12    6    7 1    
    13    6  132 1    
    14    6  133 1    
    15    7    8 1    
    16    8    9 1    
    17    8  134 1    
    18    8  135 1    
    19    9   10 ar   
    20    9   14 ar   
    21   10   11 ar   
    22   10  136 1    
    23   11   12 ar   
    24   11  126 1    
    25   12   13 ar   
    26   12  137 1    
    27   13   14 ar   
    28   13   15 1    
    29   14  138 1    
    30   15   16 1    
    31   15  139 1    
    32   15  140 1    
    33   16   17 1    
    34   17   18 1    
    35   17  141 1    
    36   17  142 1    
    37   18   19 1    
    38   18   67 1    
    39   18  143 1    
    40   19   20 am   BACKBONE|DICT|INTERRES
    41   19  144 1    
    42   20   21 2    
    43   20   22 1    
    44   22   23 1    
    45   22   24 1    
    46   22  145 1    
    47   23  146 1    
    48   23  147 1    
    49   23  148 1    
    50   24   25 am   BACKBONE|DICT|INTERRES
    51   24  149 1    
    52   25   26 2    
    53   25   27 1    
    54   27   28 1    
    55   27   29 1    
    56   27  150 1    
    57   28  151 1    
    58   28  152 1    
    59   28  153 1    
    60   29   30 am   BACKBONE|DICT|INTERRES
    61   29  154 1    
    62   30   31 2    
    63   30   32 1    
    64   32   33 1    
    65   32   34 1    
    66   32  155 1    
    67   33  156 1    
    68   33  157 1    
    69   33  158 1    
    70   34   35 am   BACKBONE|DICT|INTERRES
    71   34  159 1    
    72   35   36 2    
    73   35   37 1    
    74   37   38 1    
    75   37   39 1    
    76   37  160 1    
    77   38  161 1    
    78   38  162 1    
    79   38  163 1    
    80   39   40 am   BACKBONE|DICT|INTERRES
    81   39  164 1    
    82   40   41 2    
    83   40   42 1    
    84   42   43 1    
    85   42   44 1    
    86   42  165 1    
    87   43  166 1    
    88   43  167 1    
    89   43  168 1    
    90   44   45 am   BACKBONE|DICT|INTERRES
    91   44  169 1    
    92   45   46 2    
    93   45   47 1    
    94   47   48 1    
    95   47   49 1    
    96   47  170 1    
    97   48  171 1    
    98   48  172 1    
    99   48  173 1    
   100   49   50 am   BACKBONE|DICT|INTERRES
   101   49  174 1    
   102   50   51 2    
   103   50   52 1    
   104   52   53 1    
   105   52   54 1    
   106   52  175 1    
   107   53  176 1    
   108   53  177 1    
   109   53  178 1    
   110   54   55 am   BACKBONE|DICT|INTERRES
   111   54  179 1    
   112   55   56 2    
   113   55   57 1    
   114   57   58 1    
   115   57   59 1    
   116   57  180 1    
   117   58  181 1    
   118   58  182 1    
   119   58  183 1    
   120   59   60 am   BACKBONE|DICT|INTERRES
   121   59  184 1    
   122   60   61 2    
   123   60   62 1    
   124   62   63 1    
   125   62   64 1    
   126   62  185 1    
   127   63  186 1    
   128   63  187 1    
   129   63  188 1    
   130   64   65 am   BACKBONE|DICT|INTERRES
   131   64  189 1    
   132   65   66 2    
   133   67   68 2    
   134   67   69 am   BACKBONE|DICT|INTERRES
   135   69   70 1    
   136   69  190 1    
   137   70   71 1    
   138   70   72 1    
   139   70  191 1    
   140   71  192 1    
   141   71  193 1    
   142   71  194 1    
   143   72   73 2    
   144   72   74 am   BACKBONE|DICT|INTERRES
   145   74   75 1    
   146   74  195 1    
   147   75   76 1    
   148   75   77 1    
   149   75  196 1    
   150   76  197 1    
   151   76  198 1    
   152   76  199 1    
   153   77   78 2    
   154   77   79 am   BACKBONE|DICT|INTERRES
   155   79   80 1    
   156   79  200 1    
   157   80   81 1    
   158   80   82 1    
   159   80  201 1    
   160   81  202 1    
   161   81  203 1    
   162   81  204 1    
   163   82   83 2    
   164   82   84 am   BACKBONE|DICT|INTERRES
   165   84   85 1    
   166   84  205 1    
   167   85   86 1    
   168   85   87 1    
   169   85  206 1    
   170   86  207 1    
   171   86  208 1    
   172   86  209 1    
   173   87   88 2    
   174   87   89 am   BACKBONE|DICT|INTERRES
   175   89   90 1    
   176   89  210 1    
   177   90   91 1    
   178   90   92 1    
   179   90  211 1    
   180   91  212 1    
   181   91  213 1    
   182   91  214 1    
   183   92   93 2    
   184   92   94 am   BACKBONE|DICT|INTERRES
   185   94   95 1    
   186   94  215 1    
   187   95   96 1    
   188   95   97 1    
   189   95  216 1    
   190   96  217 1    
   191   96  218 1    
   192   96  219 1    
   193   97   98 2    
   194   97   99 am   BACKBONE|DICT|INTERRES
   195   99  100 1    
   196   99  220 1    
   197  100  101 1    
   198  100  102 1    
   199  100  221 1    
   200  101  222 1    
   201  101  223 1    
   202  101  224 1    
   203  102  103 2    
   204  102  104 am   BACKBONE|DICT|INTERRES
   205  104  105 1    
   206  104  225 1    
   207  105  106 1    
   208  105  107 1    
   209  105  226 1    
   210  106  227 1    
   211  106  228 1    
   212  106  229 1    
   213  107  108 2    
   214  107  109 am   BACKBONE|DICT|INTERRES
   215  109  110 1    
   216  109  230 1    
   217  110  111 1    
   218  110  112 1    
   219  110  231 1    
   220  111  232 1    
   221  111  233 1    
   222  111  234 1    
   223  112  113 2    
   224  112  114 am   BACKBONE|DICT|INTERRES
   225  114  115 1    
   226  114  235 1    
   227  115  116 1    
   228  115  117 1    
   229  115  236 1    
   230  116  237 1    
   231  116  238 1    
   232  116  239 1    
   233  117  118 2    
   234  117  119 am   BACKBONE|DICT|INTERRES
   235  119  120 1    
   236  119  240 1    
   237  120  121 1    
   238  120  124 1    
   239  120  241 1    
   240  121  122 am   BACKBONE|DICT|INTERRES
   241  121  123 2    
   242  122  242 1    
   243  122  243 1    
   244  124  125 1    
   245  124  244 1    
   246  124  245 1    
   247  125  126 1    
   248  126  246 1    
   249  126  247 1    
@<TRIPOS>SUBSTRUCTURE
     1 UNK         1 GROUP             0       ****    0 ROOT    
