@<TRIPOS>MOLECULE
3R540
247   249    1
SMALL
USER_CHARGES


@<TRIPOS>ATOM
      1 CA          3.5480  -18.8851  -47.1906 C.3       0 UNK        -0.1800 
      2 C           2.7181  -17.6124  -47.2664 C.2       0 UNK         0.5000 
      3 O           2.8706  -16.7309  -46.4182 O.2       0 UNK        -0.5000 
      4 N           1.8561  -17.4936  -48.2876 N.am      1 UNK        -0.5000 
      5 CA          0.9685  -16.3479  -48.5302 C.3       1 UNK         0.1400 
      6 C6         -0.3003  -16.7495  -49.3281 C.3       23 UNK        -0.0398 
      7 S7         -1.6866  -15.6051  -49.0114 S.3       23 UNK        -0.2404 
      8 C8         -2.5999  -16.4655  -47.6942 C.3       23 UNK        -0.0205 
      9 C9         -3.6801  -17.3809  -48.2498 C.ar      23 UNK        -0.0193 
     10 C10        -4.8497  -16.8285  -48.7823 C.ar      23 UNK        -0.1150 
     11 C11        -5.8523  -17.6508  -49.3038 C.ar      23 UNK        -0.0193 
     12 C12        -5.6826  -19.0364  -49.2762 C.ar      23 UNK        -0.1150 
     13 C13        -4.5257  -19.6027  -48.7357 C.ar      23 UNK        -0.0193 
     14 C14        -3.5264  -18.7711  -48.2200 C.ar      23 UNK        -0.1150 
     15 C15        -4.3485  -21.1109  -48.7625 C.3       23 UNK        -0.0205 
     16 S16        -5.4500  -21.9749  -47.5910 S.3       23 UNK        -0.2404 
     17 C17        -4.4399  -22.1163  -46.0758 C.3       23 UNK        -0.0398 
     18 CA         -3.1672  -22.9842  -46.2897 C.3       11 UNK         0.1400 
     19 N          -1.9679  -22.1573  -46.4470 N.am      11 UNK        -0.5000 
     20 C          -0.8842  -22.5170  -47.1454 C.2       10 UNK         0.5000 
     21 O          -0.7995  -23.5819  -47.7583 O.2       10 UNK        -0.5000 
     22 CA          0.3177  -21.5532  -47.1308 C.3       10 UNK         0.1400 
     23 CB          0.3350  -20.7256  -48.4203 C.3       10 UNK        -0.1800 
     24 N           0.3534  -20.6531  -45.9720 N.am      10 UNK        -0.5000 
     25 C           0.4908  -21.0587  -44.7016 C.2       9 UNK         0.5000 
     26 O           0.6001  -22.2409  -44.3771 O.2       9 UNK        -0.5000 
     27 CA          0.4280  -19.9808  -43.6051 C.3       9 UNK         0.1400 
     28 CB          1.8148  -19.3752  -43.3645 C.3       9 UNK        -0.1800 
     29 N          -0.5392  -18.9022  -43.8362 N.am      9 UNK        -0.5000 
     30 C          -1.8484  -19.0757  -44.0769 C.2       8 UNK         0.5000 
     31 O          -2.3579  -20.1719  -44.3094 O.2       8 UNK        -0.5000 
     32 CA         -2.7273  -17.8101  -44.0256 C.3       8 UNK         0.1400 
     33 CB         -4.2386  -18.1118  -44.0677 C.3       8 UNK        -0.1800 
     34 N          -2.3913  -16.9502  -42.8897 N.am      8 UNK        -0.5000 
     35 C          -2.4104  -17.2575  -41.5832 C.2       7 UNK         0.5000 
     36 O          -2.8252  -18.3250  -41.1310 O.2       7 UNK        -0.5000 
     37 CA         -1.8365  -16.2042  -40.6139 C.3       7 UNK         0.1400 
     38 CB         -0.5062  -16.6993  -40.0239 C.3       7 UNK        -0.1800 
     39 N          -1.6029  -14.9148  -41.2677 N.am      7 UNK        -0.5000 
     40 C          -2.5203  -13.9470  -41.3993 C.2       6 UNK         0.5000 
     41 O          -3.6460  -13.9974  -40.9031 O.2       6 UNK        -0.5000 
     42 CA         -2.1188  -12.7280  -42.2536 C.3       6 UNK         0.1400 
     43 CB         -1.5044  -11.6310  -41.3711 C.3       6 UNK        -0.1800 
     44 N          -1.1795  -13.0601  -43.3295 N.am      6 UNK        -0.5000 
     45 C          -1.4701  -13.8297  -44.3887 C.2       5 UNK         0.5000 
     46 O          -2.5719  -14.3407  -44.5813 O.2       5 UNK        -0.5000 
     47 CA         -0.3236  -14.1246  -45.3714 C.3       5 UNK         0.1400 
     48 CB         -0.2747  -13.0559  -46.4729 C.3       5 UNK        -0.1800 
     49 N           0.9871  -14.2149  -44.7237 N.am      5 UNK        -0.5000 
     50 C           1.3411  -15.1467  -43.8270 C.2       4 UNK         0.5000 
     51 O           0.6010  -16.0674  -43.4696 O.2       4 UNK        -0.5000 
     52 CA          2.7581  -14.9977  -43.2505 C.3       4 UNK         0.1400 
     53 CB          3.1716  -16.1273  -42.2912 C.3       4 UNK        -0.1800 
     54 N           3.7207  -14.9025  -44.3430 N.am      4 UNK        -0.5000 
     55 C           4.8682  -14.2145  -44.3019 C.2       3 UNK         0.5000 
     56 O           5.2268  -13.5356  -43.3389 O.2       3 UNK        -0.5000 
     57 CA          5.7698  -14.2969  -45.5468 C.3       3 UNK         0.1400 
     58 CB          6.6614  -15.5465  -45.4791 C.3       3 UNK        -0.1800 
     59 N           5.0074  -14.3244  -46.7947 N.am      3 UNK        -0.5000 
     60 C           4.4020  -13.2613  -47.3445 C.2       2 UNK         0.5000 
     61 O           4.4326  -12.1270  -46.8680 O.2       2 UNK        -0.5000 
     62 CA          3.5927  -13.5326  -48.6189 C.3       2 UNK         0.1400 
     63 CB          4.5217  -13.7558  -49.8279 C.3       2 UNK        -0.1800 
     64 N           2.7412  -14.6909  -48.3762 N.am      2 UNK        -0.5000 
     65 C           1.7384  -15.1456  -49.1293 C.2       1 UNK         0.5000 
     66 O           1.4312  -14.6714  -50.2234 O.2       1 UNK        -0.5000 
     67 C          -2.9746  -24.1185  -45.2562 C.2       11 UNK         0.5000 
     68 O          -3.8574  -24.9677  -45.1300 O.2       11 UNK        -0.5000 
     69 N          -1.8102  -24.1580  -44.5930 N.am      12 UNK        -0.5000 
     70 CA         -1.3256  -25.2910  -43.8116 C.3       12 UNK         0.1400 
     71 CB         -1.0908  -24.8453  -42.3589 C.3       12 UNK        -0.1800 
     72 C          -0.0334  -25.8510  -44.4330 C.2       12 UNK         0.5000 
     73 O           0.0433  -27.0498  -44.7019 O.2       12 UNK        -0.5000 
     74 N           0.9624  -24.9795  -44.6455 N.am      13 UNK        -0.5000 
     75 CA          2.3362  -25.3499  -44.9909 C.3       13 UNK         0.1400 
     76 CB          3.2652  -24.1784  -44.6342 C.3       13 UNK        -0.1800 
     77 C           2.5489  -25.7571  -46.4594 C.2       13 UNK         0.5000 
     78 O           3.4775  -26.5184  -46.7335 O.2       13 UNK        -0.5000 
     79 N           1.7173  -25.2420  -47.3739 N.am      14 UNK        -0.5000 
     80 CA          1.8356  -25.4547  -48.8209 C.3       14 UNK         0.1400 
     81 CB          2.0913  -24.1044  -49.5147 C.3       14 UNK        -0.1800 
     82 C           0.5978  -26.1688  -49.3917 C.2       14 UNK         0.5000 
     83 O           0.3398  -26.0721  -50.5923 O.2       14 UNK        -0.5000 
     84 N          -0.1595  -26.8566  -48.5224 N.am      15 UNK        -0.5000 
     85 CA         -1.3459  -27.6663  -48.8284 C.3       15 UNK         0.1400 
     86 CB         -0.9321  -28.9465  -49.5837 C.3       15 UNK        -0.1800 
     87 C          -2.4711  -26.8905  -49.5502 C.2       15 UNK         0.5000 
     88 O          -3.2233  -27.4820  -50.3263 O.2       15 UNK        -0.5000 
     89 N          -2.5583  -25.5792  -49.2814 N.am      16 UNK        -0.5000 
     90 CA         -3.5148  -24.6266  -49.8492 C.3       16 UNK         0.1400 
     91 CB         -4.9684  -24.9926  -49.4820 C.3       16 UNK        -0.1800 
     92 C          -3.3228  -24.3391  -51.3492 C.2       16 UNK         0.5000 
     93 O          -4.2574  -23.8664  -51.9959 O.2       16 UNK        -0.5000 
     94 N          -2.1023  -24.5384  -51.8712 N.am      17 UNK        -0.5000 
     95 CA         -1.7255  -24.1940  -53.2488 C.3       17 UNK         0.1400 
     96 CB         -0.2862  -24.6606  -53.5105 C.3       17 UNK        -0.1800 
     97 C          -1.8722  -22.6914  -53.5756 C.2       17 UNK         0.5000 
     98 O          -2.1235  -22.3374  -54.7280 O.2       17 UNK        -0.5000 
     99 N          -1.7492  -21.8397  -52.5473 N.am      18 UNK        -0.5000 
    100 CA        -1.9300  -20.3905  -52.6246 C.3       18 UNK         0.1400 
    101 CB        -1.3942  -19.7475  -51.3379 C.3       18 UNK        -0.1800 
    102 C         -3.3834  -19.9416  -52.8665 C.2       18 UNK         0.5000 
    103 O         -3.5782  -18.8038  -53.2933 O.2       18 UNK        -0.5000 
    104 N         -4.3761  -20.8132  -52.6197 N.am      19 UNK        -0.5000 
    105 CA        -5.8097  -20.5032  -52.7322 C.3       19 UNK         0.1400 
    106 CB        -6.6361  -21.6780  -52.1860 C.3       19 UNK        -0.1800 
    107 C         -6.2798  -20.1353  -54.1545 C.2       19 UNK         0.5000 
    108 O         -7.3603  -19.5660  -54.3093 O.2       19 UNK        -0.5000 
    109 N         -5.4575  -20.4461  -55.1646 N.am      20 UNK        -0.5000 
    110 CA        -5.6464  -20.0448  -56.5563 C.3       20 UNK         0.1400 
    111 CB        -4.6912  -20.8694  -57.4334 C.3       20 UNK        -0.1800 
    112 C         -5.4345  -18.5348  -56.8019 C.2       20 UNK         0.5000 
    113 O         -5.8745  -18.0417  -57.8418 O.2       20 UNK        -0.5000 
    114 N         -4.7626  -17.8334  -55.8759 N.am      21 UNK        -0.5000 
    115 CA        -4.4271  -16.4134  -55.9987 C.3       21 UNK         0.1400 
    116 CB        -2.9470  -16.2767  -56.3925 C.3       21 UNK        -0.1800 
    117 C         -4.7221  -15.6153  -54.7183 C.2       21 UNK         0.5000 
    118 O         -5.1984  -14.4840  -54.8208 O.2       21 UNK        -0.5000 
    119 N         -4.4245  -16.1949  -53.5467 N.am      22 UNK        -0.5000 
    120 CA        -4.5268  -15.5681  -52.2144 C.3       22 UNK         0.1400 
    121 C         -3.5872  -14.3370  -52.0122 C.2       22 UNK         0.5000 
    122 N         -2.4680  -14.2469  -52.7214 N.am      22 UNK        -0.7600 
    123 O         -3.8592  -13.4574  -51.1992 O.2       22 UNK        -0.5000 
    124 C124       -5.9935  -15.2856  -51.7817 C.3       23 UNK        -0.0398 
    125 S125       -7.0087  -16.7998  -51.6849 S.3       23 UNK        -0.2404 
    126 C126       -7.1263  -17.0539  -49.8841 C.3       23 UNK        -0.0205 
    127 H127        3.5571  -19.4190  -48.1407 H         1 UNK         0.0600 
    128 H128        3.1487  -19.5493  -46.4246 H         1 UNK         0.0600 
    129 H129        4.5788  -18.6450  -46.9302 H         1 UNK         0.0600 
    130 H130        1.8335  -18.2148  -48.9936 H         1 UNK         0.3000 
    131 H131        0.6275  -16.0221  -47.5470 H         1 UNK         0.0600 
    132 H132       -0.6247  -17.7514  -49.0508 H         1 UNK         0.0800 
    133 H133       -0.1035  -16.7908  -50.4006 H         1 UNK         0.0800 
    134 H134       -3.0632  -15.7217  -47.0440 H         1 UNK         0.0800 
    135 H135       -1.8968  -17.0220  -47.0751 H         1 UNK         0.0800 
    136 H136       -4.9716  -15.7546  -48.7981 H         1 UNK         0.1150 
    137 H137       -6.4538  -19.6789  -49.6772 H         1 UNK         0.1150 
    138 H138       -2.6298  -19.2051  -47.8028 H         1 UNK         0.1150 
    139 H139       -4.5736  -21.4654  -49.7675 H         1 UNK         0.0800 
    140 H140       -3.3077  -21.3759  -48.5909 H         1 UNK         0.0800 
    141 H141       -5.0864  -22.5345  -45.3025 H         1 UNK         0.0800 
    142 H142       -4.1980  -21.1105  -45.7363 H         1 UNK         0.0800 
    143 H143       -3.3041  -23.5410  -47.2132 H         1 UNK         0.0600 
    144 H144       -1.9473  -21.3073  -45.8916 H         1 UNK         0.3000 
    145 H145        1.2199  -22.1678  -47.1073 H         1 UNK         0.0600 
    146 H146        1.2858  -20.2128  -48.5431 H         1 UNK         0.0600 
    147 H147        0.2013  -21.3571  -49.2988 H         1 UNK         0.0600 
    148 H148       -0.4609  -19.9831  -48.4274 H         1 UNK         0.0600 
    149 H149        0.2405  -19.6664  -46.1478 H         1 UNK         0.3000 
    150 H150        0.1219  -20.4875  -42.6877 H         1 UNK         0.0600 
    151 H151        2.1239  -18.7346  -44.1914 H         1 UNK         0.0600 
    152 H152        2.5725  -20.1505  -43.2426 H         1 UNK         0.0600 
    153 H153        1.8152  -18.7774  -42.4535 H         1 UNK         0.0600 
    154 H154       -0.2039  -17.9593  -43.6626 H         1 UNK         0.3000 
    155 H155       -2.4850  -17.2312  -44.9138 H         1 UNK         0.0600 
    156 H156       -4.5519  -18.7341  -43.2289 H         1 UNK         0.0600 
    157 H157       -4.5054  -18.6380  -44.9852 H         1 UNK         0.0600 
    158 H158       -4.8231  -17.1922  -44.0417 H         1 UNK         0.0600 
    159 H159       -2.0482  -16.0331  -43.1397 H         1 UNK         0.3000 
    160 H160       -2.5489  -16.0777  -39.7960 H         1 UNK         0.0600 
    161 H161        0.2255  -16.9070  -40.8049 H         1 UNK         0.0600 
    162 H162       -0.6492  -17.6209  -39.4584 H         1 UNK         0.0600 
    163 H163       -0.0755  -15.9647  -39.3433 H         1 UNK         0.0600 
    164 H164       -0.7080  -14.7995  -41.7212 H         1 UNK         0.3000 
    165 H165       -3.0283  -12.3312  -42.7098 H         1 UNK         0.0600 
    166 H166       -1.2878  -10.7334  -41.9505 H         1 UNK         0.0600 
    167 H167       -2.1897  -11.3430  -40.5727 H         1 UNK         0.0600 
    168 H168       -0.5763  -11.9621  -40.9034 H         1 UNK         0.0600 
    169 H169       -0.2484  -12.6781  -43.2530 H         1 UNK         0.3000 
    170 H170       -0.5371  -15.0901  -45.8316 H         1 UNK         0.0600 
    171 H171       -0.0812  -12.0636  -46.0637 H         1 UNK         0.0600 
    172 H172       -1.2215  -13.0100  -47.0130 H         1 UNK         0.0600 
    173 H173        0.5028  -13.2706  -47.2040 H         1 UNK         0.0600 
    174 H174        1.6600  -13.4999  -44.9599 H         1 UNK         0.3000 
    175 H175        2.7515  -14.0628  -42.6863 H         1 UNK         0.0600 
    176 H176        3.3350  -17.0603  -42.8279 H         1 UNK         0.0600 
    177 H177        4.1000  -15.8800  -41.7764 H         1 UNK         0.0600 
    178 H178        2.4167  -16.3018  -41.5249 H         1 UNK         0.0600 
    179 H179        3.5006  -15.4647  -45.1619 H         1 UNK         0.3000 
    180 H180        6.4161  -13.4165  -45.5526 H         1 UNK         0.0600 
    181 H181        7.3551  -15.5822  -46.3193 H         1 UNK         0.0600 
    182 H182        6.0714  -16.4641  -45.4907 H         1 UNK         0.0600 
    183 H183        7.2579  -15.5514  -44.5658 H         1 UNK         0.0600 
    184 H184        4.9474  -15.2173  -47.2614 H         1 UNK         0.3000 
    185 H185        2.9562  -12.6664  -48.8104 H         1 UNK         0.0600 
    186 H186        3.9563  -13.8446  -50.7552 H         1 UNK         0.0600 
    187 H187        5.2086  -12.9176  -49.9509 H         1 UNK         0.0600 
    188 H188        5.1216  -14.6596  -49.7158 H         1 UNK         0.0600 
    189 H189        2.9003  -15.1788  -47.4993 H         1 UNK         0.3000 
    190 H190       -1.1474  -23.4079  -44.7436 H         1 UNK         0.3000 
    191 H191       -2.0599  -26.0993  -43.8026 H         1 UNK         0.0600 
    192 H192       -0.6978  -25.6654  -41.7567 H         1 UNK         0.0600 
    193 H193       -2.0220  -24.5188  -41.8958 H         1 UNK         0.0600 
    194 H194       -0.3812  -24.0192  -42.2952 H         1 UNK         0.0600 
    195 H195        0.8190  -23.9960  -44.4224 H         1 UNK         0.3000 
    196 H196        2.6215  -26.2037  -44.3724 H         1 UNK         0.0600 
    197 H197        3.0400  -23.2915  -45.2278 H         1 UNK         0.0600 
    198 H198        3.1749  -23.9085  -43.5818 H         1 UNK         0.0600 
    199 H199        4.3095  -24.4370  -44.8145 H         1 UNK         0.0600 
    200 H200        0.9434  -24.6621  -47.0752 H         1 UNK         0.3000 
    201 H201        2.6843  -26.1033  -49.0450 H         1 UNK         0.0600 
    202 H202        1.2166  -23.4584  -49.4718 H         1 UNK         0.0600 
    203 H203        2.3355  -24.2474  -50.5679 H         1 UNK         0.0600 
    204 H204        2.9269  -23.5743  -49.0577 H         1 UNK         0.0600 
    205 H205        0.1306  -26.8551  -47.5543 H         1 UNK         0.3000 
    206 H206       -1.7620  -27.9701  -47.8669 H         1 UNK         0.0600 
    207 H207       -0.1524  -29.4865  -49.0465 H         1 UNK         0.0600 
    208 H208       -1.7761  -29.6280  -49.6961 H         1 UNK         0.0600 
    209 H209       -0.5570  -28.7216  -50.5827 H         1 UNK         0.0600 
    210 H210       -1.8595  -25.1745  -48.6670 H         1 UNK         0.3000 
    211 H211       -3.2882  -23.6745  -49.3768 H         1 UNK         0.0600 
    212 H212       -5.6569  -24.1953  -49.7642 H         1 UNK         0.0600 
    213 H213       -5.0773  -25.1459  -48.4083 H         1 UNK         0.0600 
    214 H214       -5.3020  -25.8986  -49.9877 H         1 UNK         0.0600 
    215 H215       -1.3810  -24.9606  -51.2966 H         1 UNK         0.3000 
    216 H216       -2.3904  -24.7401  -53.9210 H         1 UNK         0.0600 
    217 H217        0.4218  -24.1770  -52.8362 H         1 UNK         0.0600 
    218 H218        0.0215  -24.4321  -54.5318 H         1 UNK         0.0600 
    219 H219       -0.1917  -25.7384  -53.3769 H         1 UNK         0.0600 
    220 H220       -1.5305  -22.2235  -51.6408 H         1 UNK         0.3000 
    221 H221       -1.3368  -20.0190  -53.4628 H         1 UNK         0.0600 
    222 H222       -0.3251  -19.9260  -51.2257 H         1 UNK         0.0600 
    223 H223       -1.9025  -20.1347  -50.4549 H         1 UNK         0.0600 
    224 H224       -1.5411  -18.6667  -51.3503 H         1 UNK         0.0600 
    225 H225       -4.1459  -21.7594  -52.3395 H         1 UNK         0.3000 
    226 H226       -6.0020  -19.6322  -52.1044 H         1 UNK         0.0600 
    227 H227       -6.4967  -22.5777  -52.7863 H         1 UNK         0.0600 
    228 H228       -6.3691  -21.9161  -51.1574 H         1 UNK         0.0600 
    229 H229       -7.7011  -21.4426  -52.1938 H         1 UNK         0.0600 
    230 H230       -4.5952  -20.9246  -54.9448 H         1 UNK         0.3000 
    231 H231       -6.6716  -20.2839  -56.8463 H         1 UNK         0.0600 
    232 H232       -3.6477  -20.6845  -57.1742 H         1 UNK         0.0600 
    233 H233       -4.8166  -20.6238  -58.4888 H         1 UNK         0.0600 
    234 H234       -4.8789  -21.9378  -57.3252 H         1 UNK         0.0600 
    235 H235       -4.4519  -18.3042  -55.0332 H         1 UNK         0.3000 
    236 H236       -5.0265  -15.9536  -56.7872 H         1 UNK         0.0600 
    237 H237       -2.7533  -16.7440  -57.3582 H         1 UNK         0.0600 
    238 H238       -2.6578  -15.2282  -56.4752 H         1 UNK         0.0600 
    239 H239       -2.2907  -16.7443  -55.6574 H         1 UNK         0.0600 
    240 H240       -4.0458  -17.1399  -53.5365 H         1 UNK         0.3000 
    241 H241       -4.1311  -16.3126  -51.5229 H         1 UNK         0.0600 
    242 H242       -1.8572  -13.4582  -52.5808 H         1 UNK         0.3800 
    243 H243       -2.2209  -14.9622  -53.3852 H         1 UNK         0.3800 
    244 H244       -6.4706  -14.5942  -52.4768 H         1 UNK         0.0800 
    245 H245       -6.0227  -14.7895  -50.8112 H         1 UNK         0.0800 
    246 H246       -7.3721  -16.1145  -49.3867 H         1 UNK         0.0800 
    247 H247       -7.9636  -17.7241  -49.6839 H         1 UNK         0.0800 
@<TRIPOS>BOND
     1    1    2 1    
     2    1  127 1    
     3    1  128 1    
     4    1  129 1    
     5    2    3 2    
     6    2    4 am   BACKBONE|DICT|INTERRES
     7    4    5 1    
     8    4  130 1    
     9    5    6 1    
    10    5   65 1    
    11    5  131 1    
    12    6    7 1    
    13    6  132 1    
    14    6  133 1    
    15    7    8 1    
    16    8    9 1    
    17    8  134 1    
    18    8  135 1    
    19    9   10 ar   
    20    9   14 ar   
    21   10   11 ar   
    22   10  136 1    
    23   11   12 ar   
    24   11  126 1    
    25   12   13 ar   
    26   12  137 1    
    27   13   14 ar   
    28   13   15 1    
    29   14  138 1    
    30   15   16 1    
    31   15  139 1    
    32   15  140 1    
    33   16   17 1    
    34   17   18 1    
    35   17  141 1    
    36   17  142 1    
    37   18   19 1    
    38   18   67 1    
    39   18  143 1    
    40   19   20 am   BACKBONE|DICT|INTERRES
    41   19  144 1    
    42   20   21 2    
    43   20   22 1    
    44   22   23 1    
    45   22   24 1    
    46   22  145 1    
    47   23  146 1    
    48   23  147 1    
    49   23  148 1    
    50   24   25 am   BACKBONE|DICT|INTERRES
    51   24  149 1    
    52   25   26 2    
    53   25   27 1    
    54   27   28 1    
    55   27   29 1    
    56   27  150 1    
    57   28  151 1    
    58   28  152 1    
    59   28  153 1    
    60   29   30 am   BACKBONE|DICT|INTERRES
    61   29  154 1    
    62   30   31 2    
    63   30   32 1    
    64   32   33 1    
    65   32   34 1    
    66   32  155 1    
    67   33  156 1    
    68   33  157 1    
    69   33  158 1    
    70   34   35 am   BACKBONE|DICT|INTERRES
    71   34  159 1    
    72   35   36 2    
    73   35   37 1    
    74   37   38 1    
    75   37   39 1    
    76   37  160 1    
    77   38  161 1    
    78   38  162 1    
    79   38  163 1    
    80   39   40 am   BACKBONE|DICT|INTERRES
    81   39  164 1    
    82   40   41 2    
    83   40   42 1    
    84   42   43 1    
    85   42   44 1    
    86   42  165 1    
    87   43  166 1    
    88   43  167 1    
    89   43  168 1    
    90   44   45 am   BACKBONE|DICT|INTERRES
    91   44  169 1    
    92   45   46 2    
    93   45   47 1    
    94   47   48 1    
    95   47   49 1    
    96   47  170 1    
    97   48  171 1    
    98   48  172 1    
    99   48  173 1    
   100   49   50 am   BACKBONE|DICT|INTERRES
   101   49  174 1    
   102   50   51 2    
   103   50   52 1    
   104   52   53 1    
   105   52   54 1    
   106   52  175 1    
   107   53  176 1    
   108   53  177 1    
   109   53  178 1    
   110   54   55 am   BACKBONE|DICT|INTERRES
   111   54  179 1    
   112   55   56 2    
   113   55   57 1    
   114   57   58 1    
   115   57   59 1    
   116   57  180 1    
   117   58  181 1    
   118   58  182 1    
   119   58  183 1    
   120   59   60 am   BACKBONE|DICT|INTERRES
   121   59  184 1    
   122   60   61 2    
   123   60   62 1    
   124   62   63 1    
   125   62   64 1    
   126   62  185 1    
   127   63  186 1    
   128   63  187 1    
   129   63  188 1    
   130   64   65 am   BACKBONE|DICT|INTERRES
   131   64  189 1    
   132   65   66 2    
   133   67   68 2    
   134   67   69 am   BACKBONE|DICT|INTERRES
   135   69   70 1    
   136   69  190 1    
   137   70   71 1    
   138   70   72 1    
   139   70  191 1    
   140   71  192 1    
   141   71  193 1    
   142   71  194 1    
   143   72   73 2    
   144   72   74 am   BACKBONE|DICT|INTERRES
   145   74   75 1    
   146   74  195 1    
   147   75   76 1    
   148   75   77 1    
   149   75  196 1    
   150   76  197 1    
   151   76  198 1    
   152   76  199 1    
   153   77   78 2    
   154   77   79 am   BACKBONE|DICT|INTERRES
   155   79   80 1    
   156   79  200 1    
   157   80   81 1    
   158   80   82 1    
   159   80  201 1    
   160   81  202 1    
   161   81  203 1    
   162   81  204 1    
   163   82   83 2    
   164   82   84 am   BACKBONE|DICT|INTERRES
   165   84   85 1    
   166   84  205 1    
   167   85   86 1    
   168   85   87 1    
   169   85  206 1    
   170   86  207 1    
   171   86  208 1    
   172   86  209 1    
   173   87   88 2    
   174   87   89 am   BACKBONE|DICT|INTERRES
   175   89   90 1    
   176   89  210 1    
   177   90   91 1    
   178   90   92 1    
   179   90  211 1    
   180   91  212 1    
   181   91  213 1    
   182   91  214 1    
   183   92   93 2    
   184   92   94 am   BACKBONE|DICT|INTERRES
   185   94   95 1    
   186   94  215 1    
   187   95   96 1    
   188   95   97 1    
   189   95  216 1    
   190   96  217 1    
   191   96  218 1    
   192   96  219 1    
   193   97   98 2    
   194   97   99 am   BACKBONE|DICT|INTERRES
   195   99  100 1    
   196   99  220 1    
   197  100  101 1    
   198  100  102 1    
   199  100  221 1    
   200  101  222 1    
   201  101  223 1    
   202  101  224 1    
   203  102  103 2    
   204  102  104 am   BACKBONE|DICT|INTERRES
   205  104  105 1    
   206  104  225 1    
   207  105  106 1    
   208  105  107 1    
   209  105  226 1    
   210  106  227 1    
   211  106  228 1    
   212  106  229 1    
   213  107  108 2    
   214  107  109 am   BACKBONE|DICT|INTERRES
   215  109  110 1    
   216  109  230 1    
   217  110  111 1    
   218  110  112 1    
   219  110  231 1    
   220  111  232 1    
   221  111  233 1    
   222  111  234 1    
   223  112  113 2    
   224  112  114 am   BACKBONE|DICT|INTERRES
   225  114  115 1    
   226  114  235 1    
   227  115  116 1    
   228  115  117 1    
   229  115  236 1    
   230  116  237 1    
   231  116  238 1    
   232  116  239 1    
   233  117  118 2    
   234  117  119 am   BACKBONE|DICT|INTERRES
   235  119  120 1    
   236  119  240 1    
   237  120  121 1    
   238  120  124 1    
   239  120  241 1    
   240  121  122 am   BACKBONE|DICT|INTERRES
   241  121  123 2    
   242  122  242 1    
   243  122  243 1    
   244  124  125 1    
   245  124  244 1    
   246  124  245 1    
   247  125  126 1    
   248  126  246 1    
   249  126  247 1    
@<TRIPOS>SUBSTRUCTURE
     1 UNK         1 GROUP             0       ****    0 ROOT    
