@<TRIPOS>MOLECULE
3R540
247   249    1
SMALL
USER_CHARGES


@<TRIPOS>ATOM
      1 CA          6.1137  -11.5288  -49.4081 C.3       0 UNK        -0.1800 
      2 C           4.8791  -12.3745  -49.6862 C.2       0 UNK         0.5000 
      3 O           4.2983  -12.2680  -50.7662 O.2       0 UNK        -0.5000 
      4 N           4.4812  -13.2062  -48.7129 N.am      1 UNK        -0.5000 
      5 CA          3.3307  -14.1231  -48.7610 C.3       1 UNK         0.1400 
      6 C6          3.4729  -15.2623  -49.8064 C.3       23 UNK        -0.0398 
      7 S7          4.9823  -16.2534  -49.5528 S.3       23 UNK        -0.2404 
      8 C8          4.8577  -17.4285  -50.9347 C.3       23 UNK        -0.0205 
      9 C9          3.9073  -18.5741  -50.6215 C.ar      23 UNK        -0.0193 
     10 C10         2.5817  -18.5420  -51.0639 C.ar      23 UNK        -0.1150 
     11 C11         1.7146  -19.6104  -50.8037 C.ar      23 UNK        -0.0193 
     12 C12         2.1923  -20.7174  -50.0928 C.ar      23 UNK        -0.1150 
     13 C13         3.5236  -20.7709  -49.6644 C.ar      23 UNK        -0.0193 
     14 C14         4.3719  -19.6923  -49.9253 C.ar      23 UNK        -0.1150 
     15 C15         4.0673  -22.0192  -48.9805 C.3       23 UNK        -0.0205 
     16 S16         4.5894  -21.7310  -47.2569 S.3       23 UNK        -0.2404 
     17 C17         3.0159  -21.2781  -46.4593 C.3       23 UNK        -0.0398 
     18 CA          2.3147  -22.4605  -45.7476 C.3       11 UNK         0.1400 
     19 N           1.3741  -21.9884  -44.7304 N.am      11 UNK        -0.5000 
     20 C           0.7639  -22.7572  -43.8180 C.2       10 UNK         0.5000 
     21 O           1.0201  -23.9468  -43.6407 O.2       10 UNK        -0.5000 
     22 CA         -0.3461  -22.0917  -42.9837 C.3       10 UNK         0.1400 
     23 CB          0.2185  -21.5219  -41.6739 C.3       10 UNK        -0.1800 
     24 N          -1.0332  -21.0313  -43.7239 N.am      10 UNK        -0.5000 
     25 C          -1.8765  -21.2442  -44.7447 C.2       9 UNK         0.5000 
     26 O          -2.2068  -22.3644  -45.1344 O.2       9 UNK        -0.5000 
     27 CA         -2.3901  -19.9933  -45.4827 C.3       9 UNK         0.1400 
     28 CB         -3.5647  -19.3585  -44.7227 C.3       9 UNK        -0.1800 
     29 N          -1.3368  -18.9944  -45.6690 N.am      9 UNK        -0.5000 
     30 C          -0.2620  -19.1579  -46.4524 C.2       8 UNK         0.5000 
     31 O          -0.0829  -20.1543  -47.1514 O.2       8 UNK        -0.5000 
     32 CA          0.8208  -18.0596  -46.3966 C.3       8 UNK         0.1400 
     33 CB          0.6544  -17.0397  -47.5310 C.3       8 UNK        -0.1800 
     34 N           0.8567  -17.3660  -45.1048 N.am      8 UNK        -0.5000 
     35 C           1.2398  -17.9522  -43.9594 C.2       7 UNK         0.5000 
     36 O           1.5666  -19.1385  -43.8990 O.2       7 UNK        -0.5000 
     37 CA          1.2062  -17.1053  -42.6692 C.3       7 UNK         0.1400 
     38 CB          2.2172  -17.5895  -41.6092 C.3       7 UNK        -0.1800 
     39 N           1.3366  -15.6647  -42.9030 N.am      7 UNK        -0.5000 
     40 C           2.3894  -15.0061  -43.4123 C.2       6 UNK         0.5000 
     41 O           3.4483  -15.5501  -43.7267 O.2       6 UNK        -0.5000 
     42 CA          2.2297  -13.4878  -43.6345 C.3       6 UNK         0.1400 
     43 CB          2.6062  -13.1125  -45.0739 C.3       6 UNK        -0.1800 
     44 N           0.8574  -13.0410  -43.3900 N.am      6 UNK        -0.5000 
     45 C           0.4244  -12.4347  -42.2766 C.2       5 UNK         0.5000 
     46 O           1.1608  -12.0991  -41.3487 O.2       5 UNK        -0.5000 
     47 CA         -1.0959  -12.1962  -42.1597 C.3       5 UNK         0.1400 
     48 CB         -1.4578  -10.7726  -42.6086 C.3       5 UNK        -0.1800 
     49 N          -1.8929  -13.1604  -42.9241 N.am      5 UNK        -0.5000 
     50 C          -1.9650  -14.4732  -42.6594 C.2       4 UNK         0.5000 
     51 O          -1.4043  -15.0041  -41.7015 O.2       4 UNK        -0.5000 
     52 CA         -2.7294  -15.3585  -43.6624 C.3       4 UNK         0.1400 
     53 CB         -4.1586  -15.6283  -43.1714 C.3       4 UNK        -0.1800 
     54 N          -2.7836  -14.8091  -45.0184 N.am      4 UNK        -0.5000 
     55 C          -1.7259  -14.5745  -45.8064 C.2       3 UNK         0.5000 
     56 O          -0.5628  -14.7976  -45.4555 O.2       3 UNK        -0.5000 
     57 CA         -2.0193  -14.0131  -47.2159 C.3       3 UNK         0.1400 
     58 CB         -3.3710  -13.2741  -47.3257 C.3       3 UNK        -0.1800 
     59 N          -0.9405  -13.1786  -47.7411 N.am      3 UNK        -0.5000 
     60 C          -0.4372  -12.0539  -47.2217 C.2       2 UNK         0.5000 
     61 O          -0.8170  -11.5575  -46.1595 O.2       2 UNK        -0.5000 
     62 CA          0.6911  -11.3891  -48.0432 C.3       2 UNK         0.1400 
     63 CB          1.1192  -10.0281  -47.4654 C.3       2 UNK        -0.1800 
     64 N           1.8775  -12.2402  -48.1619 N.am      2 UNK        -0.5000 
     65 C           1.9890  -13.3645  -48.8847 C.2       1 UNK         0.5000 
     66 O           1.0874  -13.8003  -49.6037 O.2       1 UNK        -0.5000 
     67 C           1.6230  -23.4116  -46.7500 C.2       11 UNK         0.5000 
     68 O           2.1581  -24.4842  -47.0333 O.2       11 UNK        -0.5000 
     69 N           0.4391  -23.0154  -47.2465 N.am      12 UNK        -0.5000 
     70 CA         -0.4122  -23.8276  -48.1213 C.3       12 UNK         0.1400 
     71 CB         -1.5736  -22.9722  -48.6532 C.3       12 UNK        -0.1800 
     72 C          -0.9284  -25.1022  -47.4229 C.2       12 UNK         0.5000 
     73 O          -0.9029  -26.1754  -48.0268 O.2       12 UNK        -0.5000 
     74 N          -1.3357  -24.9581  -46.1520 N.am      13 UNK        -0.5000 
     75 CA         -1.6835  -25.9858  -45.1615 C.3       13 UNK         0.1400 
     76 CB         -0.4853  -26.9133  -44.8757 C.3       13 UNK        -0.1800 
     77 C          -2.9452  -26.8034  -45.4936 C.2       13 UNK         0.5000 
     78 O          -3.9112  -26.7721  -44.7315 O.2       13 UNK        -0.5000 
     79 N          -2.9166  -27.5131  -46.6251 N.am      14 UNK        -0.5000 
     80 CA         -3.9808  -28.3814  -47.1335 C.3       14 UNK         0.1400 
     81 CB         -3.3330  -29.6556  -47.7037 C.3       14 UNK        -0.1800 
     82 C          -4.8453  -27.6611  -48.1879 C.2       14 UNK         0.5000 
     83 O          -5.4602  -28.3172  -49.0309 O.2       14 UNK        -0.5000 
     84 N          -4.8408  -26.3212  -48.1497 N.am      15 UNK        -0.5000 
     85 CA         -5.4378  -25.3592  -49.0808 C.3       15 UNK         0.1400 
     86 CB         -6.9619  -25.5394  -49.2164 C.3       15 UNK        -0.1800 
     87 C          -4.7391  -25.3342  -50.4516 C.2       15 UNK         0.5000 
     88 O          -4.3016  -24.2677  -50.8851 O.2       15 UNK        -0.5000 
     89 N          -4.6391  -26.5088  -51.0919 N.am      16 UNK        -0.5000 
     90 CA         -3.8939  -26.8126  -52.3208 C.3       16 UNK         0.1400 
     91 CB         -2.3817  -26.8010  -52.0145 C.3       16 UNK        -0.1800 
     92 C          -4.2529  -25.9117  -53.5234 C.2       16 UNK         0.5000 
     93 O          -3.3925  -25.6377  -54.3613 O.2       16 UNK        -0.5000 
     94 N          -5.4971  -25.4088  -53.5481 N.am      17 UNK        -0.5000 
     95 CA         -6.0622  -24.3679  -54.4224 C.3       17 UNK         0.1400 
     96 CB         -6.0216  -24.7857  -55.9043 C.3       17 UNK        -0.1800 
     97 C          -5.4500  -22.9628  -54.2221 C.2       17 UNK         0.5000 
     98 O          -6.1706  -21.9711  -54.3340 O.2       17 UNK        -0.5000 
     99 N          -4.1529  -22.8956  -53.8972 N.am      18 UNK        -0.5000 
    100 CA        -3.3591  -21.6926  -53.6467 C.3       18 UNK         0.1400 
    101 CB        -1.9218  -22.1157  -53.3171 C.3       18 UNK        -0.1800 
    102 C         -3.9171  -20.7859  -52.5352 C.2       18 UNK         0.5000 
    103 O         -3.7795  -19.5650  -52.6250 O.2       18 UNK        -0.5000 
    104 N         -4.5877  -21.3791  -51.5369 N.am      19 UNK        -0.5000 
    105 CA        -5.2923  -20.6779  -50.4596 C.3       19 UNK         0.1400 
    106 CB        -5.7791  -21.6891  -49.4169 C.3       19 UNK        -0.1800 
    107 C         -6.4428  -19.7573  -50.9198 C.2       19 UNK         0.5000 
    108 O         -6.8774  -18.9185  -50.1312 O.2       19 UNK        -0.5000 
    109 N         -6.8785  -19.8596  -52.1852 N.am      20 UNK        -0.5000 
    110 CA        -7.7609  -18.8789  -52.8260 C.3       20 UNK         0.1400 
    111 CB        -8.1591  -19.3839  -54.2204 C.3       20 UNK        -0.1800 
    112 C         -7.1304  -17.4713  -52.9214 C.2       20 UNK         0.5000 
    113 O         -7.8645  -16.4824  -52.9097 O.2       20 UNK        -0.5000 
    114 N         -5.7926  -17.4090  -52.9854 N.am      21 UNK        -0.5000 
    115 CA        -5.0038  -16.1818  -52.9054 C.3       21 UNK         0.1400 
    116 CB        -3.9762  -16.1684  -54.0485 C.3       21 UNK        -0.1800 
    117 C         -4.2957  -16.0756  -51.5434 C.2       21 UNK         0.5000 
    118 O         -4.3027  -15.0026  -50.9395 O.2       21 UNK        -0.5000 
    119 N         -3.6909  -17.1816  -51.0900 N.am      22 UNK        -0.5000 
    120 CA        -2.8681  -17.2497  -49.8712 C.3       22 UNK         0.1400 
    121 C         -3.6583  -17.3164  -48.5326 C.2       22 UNK         0.5000 
    122 N         -4.9708  -17.4964  -48.5162 N.am      22 UNK        -0.7600 
    123 O         -3.0631  -17.1761  -47.4713 O.2       22 UNK        -0.5000 
    124 C124       -1.8111  -18.3806  -49.9632 C.3       23 UNK        -0.0398 
    125 S125       -0.5917  -18.0500  -51.2780 S.3       23 UNK        -0.2404 
    126 C126        0.3029  -19.6366  -51.3847 C.3       23 UNK        -0.0205 
    127 H127        6.5245  -11.7228  -48.4169 H         1 UNK         0.0600 
    128 H128        5.8648  -10.4694  -49.4714 H         1 UNK         0.0600 
    129 H129        6.8882  -11.7430  -50.1445 H         1 UNK         0.0600 
    130 H130        5.0249  -13.2476  -47.8623 H         1 UNK         0.3000 
    131 H131        3.2968  -14.5996  -47.7802 H         1 UNK         0.0600 
    132 H132        2.6184  -15.9383  -49.7481 H         1 UNK         0.0800 
    133 H133        3.4783  -14.8586  -50.8199 H         1 UNK         0.0800 
    134 H134        4.5485  -16.9063  -51.8414 H         1 UNK         0.0800 
    135 H135        5.8513  -17.8285  -51.1426 H         1 UNK         0.0800 
    136 H136        2.2321  -17.6930  -51.6340 H         1 UNK         0.1150 
    137 H137        1.5376  -21.5577  -49.9081 H         1 UNK         0.1150 
    138 H138        5.4021  -19.7319  -49.5999 H         1 UNK         0.1150 
    139 H139        3.3367  -22.8277  -49.0119 H         1 UNK         0.0800 
    140 H140        4.9292  -22.3769  -49.5454 H         1 UNK         0.0800 
    141 H141        3.2590  -20.5056  -45.7283 H         1 UNK         0.0800 
    142 H142        2.3605  -20.7992  -47.1840 H         1 UNK         0.0800 
    143 H143        3.0773  -23.0375  -45.2199 H         1 UNK         0.0600 
    144 H144        1.1639  -20.9974  -44.7305 H         1 UNK         0.3000 
    145 H145       -1.0781  -22.8619  -42.7307 H         1 UNK         0.0600 
    146 H146       -0.5669  -21.0716  -41.0668 H         1 UNK         0.0600 
    147 H147        0.6803  -22.3088  -41.0763 H         1 UNK         0.0600 
    148 H148        0.9795  -20.7640  -41.8573 H         1 UNK         0.0600 
    149 H149       -0.7778  -20.0830  -43.4944 H         1 UNK         0.3000 
    150 H150       -2.7446  -20.3029  -46.4683 H         1 UNK         0.0600 
    151 H151       -4.3726  -20.0780  -44.5831 H         1 UNK         0.0600 
    152 H152       -3.9776  -18.5120  -45.2713 H         1 UNK         0.0600 
    153 H153       -3.2658  -19.0033  -43.7358 H         1 UNK         0.0600 
    154 H154       -1.4382  -18.1226  -45.1735 H         1 UNK         0.3000 
    155 H155        1.7898  -18.5421  -46.5345 H         1 UNK         0.0600 
    156 H156        1.3563  -16.2131  -47.4270 H         1 UNK         0.0600 
    157 H157       -0.3514  -16.6233  -47.5569 H         1 UNK         0.0600 
    158 H158        0.8451  -17.5048  -48.4986 H         1 UNK         0.0600 
    159 H159        0.5596  -16.3946  -45.0985 H         1 UNK         0.3000 
    160 H160        0.2090  -17.2484  -42.2514 H         1 UNK         0.0600 
    161 H161        3.2408  -17.5674  -41.9838 H         1 UNK         0.0600 
    162 H162        2.0060  -18.6146  -41.3042 H         1 UNK         0.0600 
    163 H163        2.1738  -16.9721  -40.7120 H         1 UNK         0.0600 
    164 H164        0.5211  -15.1191  -42.6541 H         1 UNK         0.3000 
    165 H165        2.9217  -12.9837  -42.9571 H         1 UNK         0.0600 
    166 H166        1.9789  -13.6448  -45.7889 H         1 UNK         0.0600 
    167 H167        2.4863  -12.0429  -45.2430 H         1 UNK         0.0600 
    168 H168        3.6452  -13.3626  -45.2915 H         1 UNK         0.0600 
    169 H169        0.1815  -13.2940  -44.1023 H         1 UNK         0.3000 
    170 H170       -1.3638  -12.2995  -41.1061 H         1 UNK         0.0600 
    171 H171       -0.9070  -10.0295  -42.0305 H         1 UNK         0.0600 
    172 H172       -1.2216  -10.6096  -43.6604 H         1 UNK         0.0600 
    173 H173       -2.5198  -10.5715  -42.4672 H         1 UNK         0.0600 
    174 H174       -2.3585  -12.8091  -43.7485 H         1 UNK         0.3000 
    175 H175       -2.2033  -16.3136  -43.7162 H         1 UNK         0.0600 
    176 H176       -4.7471  -14.7113  -43.1227 H         1 UNK         0.0600 
    177 H177       -4.6765  -16.3264  -43.8295 H         1 UNK         0.0600 
    178 H178       -4.1528  -16.0689  -42.1735 H         1 UNK         0.0600 
    179 H179       -3.7039  -14.6173  -45.3862 H         1 UNK         0.3000 
    180 H180       -2.0573  -14.8696  -47.8843 H         1 UNK         0.0600 
    181 H181       -3.5105  -12.8651  -48.3267 H         1 UNK         0.0600 
    182 H182       -3.4422  -12.4482  -46.6169 H         1 UNK         0.0600 
    183 H183       -4.2097  -13.9475  -47.1455 H         1 UNK         0.0600 
    184 H184       -0.4770  -13.5327  -48.5738 H         1 UNK         0.3000 
    185 H185        0.2969  -11.2125  -49.0461 H         1 UNK         0.0600 
    186 H186        1.8706   -9.5509  -48.0948 H         1 UNK         0.0600 
    187 H187        1.5344  -10.1260  -46.4619 H         1 UNK         0.0600 
    188 H188        0.2701   -9.3463  -47.4033 H         1 UNK         0.0600 
    189 H189        2.6762  -11.9563  -47.6147 H         1 UNK         0.3000 
    190 H190        0.1001  -22.0853  -47.0181 H         1 UNK         0.3000 
    191 H191        0.1936  -24.1399  -48.9745 H         1 UNK         0.0600 
    192 H192       -1.2063  -22.0951  -49.1863 H         1 UNK         0.0600 
    193 H193       -2.1876  -23.5419  -49.3510 H         1 UNK         0.0600 
    194 H194       -2.2244  -22.6247  -47.8508 H         1 UNK         0.0600 
    195 H195       -1.4033  -24.0067  -45.8004 H         1 UNK         0.3000 
    196 H196       -1.8956  -25.4395  -44.2410 H         1 UNK         0.0600 
    197 H197       -0.7180  -27.6124  -44.0716 H         1 UNK         0.0600 
    198 H198        0.3906  -26.3442  -44.5667 H         1 UNK         0.0600 
    199 H199       -0.2027  -27.5031  -45.7479 H         1 UNK         0.0600 
    200 H200       -2.1081  -27.3825  -47.2291 H         1 UNK         0.3000 
    201 H201       -4.6446  -28.6742  -46.3178 H         1 UNK         0.0600 
    202 H202       -2.7205  -30.1552  -46.9529 H         1 UNK         0.0600 
    203 H203       -2.6965  -29.4324  -48.5610 H         1 UNK         0.0600 
    204 H204       -4.0884  -30.3713  -48.0303 H         1 UNK         0.0600 
    205 H205       -4.2785  -25.9074  -47.4202 H         1 UNK         0.3000 
    206 H206       -5.2676  -24.3880  -48.6198 H         1 UNK         0.0600 
    207 H207       -7.4501  -25.4955  -48.2429 H         1 UNK         0.0600 
    208 H208       -7.3929  -24.7486  -49.8312 H         1 UNK         0.0600 
    209 H209       -7.2281  -26.4887  -49.6812 H         1 UNK         0.0600 
    210 H210       -5.0396  -27.3116  -50.6131 H         1 UNK         0.3000 
    211 H211       -4.1701  -27.8281  -52.6074 H         1 UNK         0.0600 
    212 H212       -2.0292  -25.7980  -51.7700 H         1 UNK         0.0600 
    213 H213       -1.8021  -27.1550  -52.8678 H         1 UNK         0.0600 
    214 H214       -2.1450  -27.4514  -51.1720 H         1 UNK         0.0600 
    215 H215       -6.1006  -25.6900  -52.7885 H         1 UNK         0.3000 
    216 H216       -7.1120  -24.2865  -54.1365 H         1 UNK         0.0600 
    217 H217       -6.5587  -24.0661  -56.5233 H         1 UNK         0.0600 
    218 H218       -5.0024  -24.8428  -56.2869 H         1 UNK         0.0600 
    219 H219       -6.4920  -25.7576  -56.0532 H         1 UNK         0.0600 
    220 H220       -3.6528  -23.7774  -53.8612 H         1 UNK         0.3000 
    221 H221       -3.3474  -21.1113  -54.5705 H         1 UNK         0.0600 
    222 H222       -1.8711  -22.6794  -52.3841 H         1 UNK         0.0600 
    223 H223       -1.4996  -22.7360  -54.1079 H         1 UNK         0.0600 
    224 H224       -1.2800  -21.2426  -53.2155 H         1 UNK         0.0600 
    225 H225       -4.6113  -22.3947  -51.5103 H         1 UNK         0.3000 
    226 H226       -4.5646  -20.0319  -49.9675 H         1 UNK         0.0600 
    227 H227       -4.9306  -22.1873  -48.9495 H         1 UNK         0.0600 
    228 H228       -6.3407  -21.1998  -48.6199 H         1 UNK         0.0600 
    229 H229       -6.4260  -22.4444  -49.8630 H         1 UNK         0.0600 
    230 H230       -6.4949  -20.5816  -52.7857 H         1 UNK         0.3000 
    231 H231       -8.6659  -18.7963  -52.2207 H         1 UNK         0.0600 
    232 H232       -8.8570  -18.6966  -54.7003 H         1 UNK         0.0600 
    233 H233       -8.6474  -20.3570  -54.1638 H         1 UNK         0.0600 
    234 H234       -7.2917  -19.4813  -54.8745 H         1 UNK         0.0600 
    235 H235       -5.2666  -18.2762  -52.9782 H         1 UNK         0.3000 
    236 H236       -5.6441  -15.3044  -53.0179 H         1 UNK         0.0600 
    237 H237       -4.4701  -16.1888  -55.0200 H         1 UNK         0.0600 
    238 H238       -3.3642  -15.2662  -54.0128 H         1 UNK         0.0600 
    239 H239       -3.3024  -17.0250  -53.9983 H         1 UNK         0.0600 
    240 H240       -3.6965  -18.0190  -51.6668 H         1 UNK         0.3000 
    241 H241       -2.3136  -16.3113  -49.8116 H         1 UNK         0.0600 
    242 H242       -5.4405  -17.5171  -47.6265 H         1 UNK         0.3800 
    243 H243       -5.5091  -17.6591  -49.3574 H         1 UNK         0.3800 
    244 H244       -2.2925  -19.3411  -50.1483 H         1 UNK         0.0800 
    245 H245       -1.2668  -18.4908  -49.0282 H         1 UNK         0.0800 
    246 H246       -0.2909  -20.4284  -50.9262 H         1 UNK         0.0800 
    247 H247        0.3966  -19.8935  -52.4396 H         1 UNK         0.0800 
@<TRIPOS>BOND
     1    1    2 1    
     2    1  127 1    
     3    1  128 1    
     4    1  129 1    
     5    2    3 2    
     6    2    4 am   BACKBONE|DICT|INTERRES
     7    4    5 1    
     8    4  130 1    
     9    5    6 1    
    10    5   65 1    
    11    5  131 1    
    12    6    7 1    
    13    6  132 1    
    14    6  133 1    
    15    7    8 1    
    16    8    9 1    
    17    8  134 1    
    18    8  135 1    
    19    9   10 ar   
    20    9   14 ar   
    21   10   11 ar   
    22   10  136 1    
    23   11   12 ar   
    24   11  126 1    
    25   12   13 ar   
    26   12  137 1    
    27   13   14 ar   
    28   13   15 1    
    29   14  138 1    
    30   15   16 1    
    31   15  139 1    
    32   15  140 1    
    33   16   17 1    
    34   17   18 1    
    35   17  141 1    
    36   17  142 1    
    37   18   19 1    
    38   18   67 1    
    39   18  143 1    
    40   19   20 am   BACKBONE|DICT|INTERRES
    41   19  144 1    
    42   20   21 2    
    43   20   22 1    
    44   22   23 1    
    45   22   24 1    
    46   22  145 1    
    47   23  146 1    
    48   23  147 1    
    49   23  148 1    
    50   24   25 am   BACKBONE|DICT|INTERRES
    51   24  149 1    
    52   25   26 2    
    53   25   27 1    
    54   27   28 1    
    55   27   29 1    
    56   27  150 1    
    57   28  151 1    
    58   28  152 1    
    59   28  153 1    
    60   29   30 am   BACKBONE|DICT|INTERRES
    61   29  154 1    
    62   30   31 2    
    63   30   32 1    
    64   32   33 1    
    65   32   34 1    
    66   32  155 1    
    67   33  156 1    
    68   33  157 1    
    69   33  158 1    
    70   34   35 am   BACKBONE|DICT|INTERRES
    71   34  159 1    
    72   35   36 2    
    73   35   37 1    
    74   37   38 1    
    75   37   39 1    
    76   37  160 1    
    77   38  161 1    
    78   38  162 1    
    79   38  163 1    
    80   39   40 am   BACKBONE|DICT|INTERRES
    81   39  164 1    
    82   40   41 2    
    83   40   42 1    
    84   42   43 1    
    85   42   44 1    
    86   42  165 1    
    87   43  166 1    
    88   43  167 1    
    89   43  168 1    
    90   44   45 am   BACKBONE|DICT|INTERRES
    91   44  169 1    
    92   45   46 2    
    93   45   47 1    
    94   47   48 1    
    95   47   49 1    
    96   47  170 1    
    97   48  171 1    
    98   48  172 1    
    99   48  173 1    
   100   49   50 am   BACKBONE|DICT|INTERRES
   101   49  174 1    
   102   50   51 2    
   103   50   52 1    
   104   52   53 1    
   105   52   54 1    
   106   52  175 1    
   107   53  176 1    
   108   53  177 1    
   109   53  178 1    
   110   54   55 am   BACKBONE|DICT|INTERRES
   111   54  179 1    
   112   55   56 2    
   113   55   57 1    
   114   57   58 1    
   115   57   59 1    
   116   57  180 1    
   117   58  181 1    
   118   58  182 1    
   119   58  183 1    
   120   59   60 am   BACKBONE|DICT|INTERRES
   121   59  184 1    
   122   60   61 2    
   123   60   62 1    
   124   62   63 1    
   125   62   64 1    
   126   62  185 1    
   127   63  186 1    
   128   63  187 1    
   129   63  188 1    
   130   64   65 am   BACKBONE|DICT|INTERRES
   131   64  189 1    
   132   65   66 2    
   133   67   68 2    
   134   67   69 am   BACKBONE|DICT|INTERRES
   135   69   70 1    
   136   69  190 1    
   137   70   71 1    
   138   70   72 1    
   139   70  191 1    
   140   71  192 1    
   141   71  193 1    
   142   71  194 1    
   143   72   73 2    
   144   72   74 am   BACKBONE|DICT|INTERRES
   145   74   75 1    
   146   74  195 1    
   147   75   76 1    
   148   75   77 1    
   149   75  196 1    
   150   76  197 1    
   151   76  198 1    
   152   76  199 1    
   153   77   78 2    
   154   77   79 am   BACKBONE|DICT|INTERRES
   155   79   80 1    
   156   79  200 1    
   157   80   81 1    
   158   80   82 1    
   159   80  201 1    
   160   81  202 1    
   161   81  203 1    
   162   81  204 1    
   163   82   83 2    
   164   82   84 am   BACKBONE|DICT|INTERRES
   165   84   85 1    
   166   84  205 1    
   167   85   86 1    
   168   85   87 1    
   169   85  206 1    
   170   86  207 1    
   171   86  208 1    
   172   86  209 1    
   173   87   88 2    
   174   87   89 am   BACKBONE|DICT|INTERRES
   175   89   90 1    
   176   89  210 1    
   177   90   91 1    
   178   90   92 1    
   179   90  211 1    
   180   91  212 1    
   181   91  213 1    
   182   91  214 1    
   183   92   93 2    
   184   92   94 am   BACKBONE|DICT|INTERRES
   185   94   95 1    
   186   94  215 1    
   187   95   96 1    
   188   95   97 1    
   189   95  216 1    
   190   96  217 1    
   191   96  218 1    
   192   96  219 1    
   193   97   98 2    
   194   97   99 am   BACKBONE|DICT|INTERRES
   195   99  100 1    
   196   99  220 1    
   197  100  101 1    
   198  100  102 1    
   199  100  221 1    
   200  101  222 1    
   201  101  223 1    
   202  101  224 1    
   203  102  103 2    
   204  102  104 am   BACKBONE|DICT|INTERRES
   205  104  105 1    
   206  104  225 1    
   207  105  106 1    
   208  105  107 1    
   209  105  226 1    
   210  106  227 1    
   211  106  228 1    
   212  106  229 1    
   213  107  108 2    
   214  107  109 am   BACKBONE|DICT|INTERRES
   215  109  110 1    
   216  109  230 1    
   217  110  111 1    
   218  110  112 1    
   219  110  231 1    
   220  111  232 1    
   221  111  233 1    
   222  111  234 1    
   223  112  113 2    
   224  112  114 am   BACKBONE|DICT|INTERRES
   225  114  115 1    
   226  114  235 1    
   227  115  116 1    
   228  115  117 1    
   229  115  236 1    
   230  116  237 1    
   231  116  238 1    
   232  116  239 1    
   233  117  118 2    
   234  117  119 am   BACKBONE|DICT|INTERRES
   235  119  120 1    
   236  119  240 1    
   237  120  121 1    
   238  120  124 1    
   239  120  241 1    
   240  121  122 am   BACKBONE|DICT|INTERRES
   241  121  123 2    
   242  122  242 1    
   243  122  243 1    
   244  124  125 1    
   245  124  244 1    
   246  124  245 1    
   247  125  126 1    
   248  126  246 1    
   249  126  247 1    
@<TRIPOS>SUBSTRUCTURE
     1 UNK         1 GROUP             0       ****    0 ROOT    
