@<TRIPOS>MOLECULE
3R540
247   249    1
SMALL
USER_CHARGES


@<TRIPOS>ATOM
      1 CA          3.1650  -17.9262  -48.6141 C.3       0 UNK        -0.1800 
      2 C           2.5827  -16.7184  -47.9002 C.2       0 UNK         0.5000 
      3 O           3.1932  -16.2172  -46.9583 O.2       0 UNK        -0.5000 
      4 N           1.4277  -16.2261  -48.3666 N.am      1 UNK        -0.5000 
      5 CA          0.7041  -15.0632  -47.8272 C.3       1 UNK         0.1400 
      6 C6         -0.6349  -14.8314  -48.5711 C.3       23 UNK        -0.0398 
      7 S7         -1.7707  -16.2615  -48.5020 S.3       23 UNK        -0.2404 
      8 C8         -3.1950  -15.5110  -47.6562 C.3       23 UNK        -0.0205 
      9 C9         -4.4005  -16.4374  -47.6288 C.ar      23 UNK        -0.0193 
     10 C10        -5.2568  -16.4956  -48.7317 C.ar      23 UNK        -0.1150 
     11 C11        -6.4130  -17.2778  -48.6898 C.ar      23 UNK        -0.0193 
     12 C12        -6.7007  -18.0177  -47.5406 C.ar      23 UNK        -0.1150 
     13 C13        -5.8563  -17.9740  -46.4277 C.ar      23 UNK        -0.0193 
     14 C14        -4.7009  -17.1808  -46.4827 C.ar      23 UNK        -0.1150 
     15 C15        -6.2871  -18.7145  -45.1617 C.3       23 UNK        -0.0205 
     16 S16        -4.9366  -19.1826  -44.0320 S.3       23 UNK        -0.2404 
     17 C17        -4.3721  -20.7760  -44.7229 C.3       23 UNK        -0.0398 
     18 CA         -3.1668  -20.6519  -45.6863 C.3       11 UNK         0.1400 
     19 N          -2.0800  -19.8319  -45.1456 N.am      11 UNK        -0.5000 
     20 C          -1.0882  -19.3232  -45.8876 C.2       10 UNK         0.5000 
     21 O          -0.9343  -19.5656  -47.0850 O.2       10 UNK        -0.5000 
     22 CA         -0.0900  -18.4100  -45.1602 C.3       10 UNK         0.1400 
     23 CB         -0.7677  -17.0927  -44.7530 C.3       10 UNK        -0.1800 
     24 N           0.5141  -19.0184  -43.9758 N.am      10 UNK        -0.5000 
     25 C           1.2396  -20.1449  -43.9530 C.2       9 UNK         0.5000 
     26 O           1.3790  -20.8940  -44.9180 O.2       9 UNK        -0.5000 
     27 CA          1.9170  -20.4978  -42.6207 C.3       9 UNK         0.1400 
     28 CB          3.0393  -19.5004  -42.2902 C.3       9 UNK        -0.1800 
     29 N           0.9365  -20.4957  -41.5412 N.am      9 UNK        -0.5000 
     30 C           0.3439  -21.5915  -41.0498 C.2       8 UNK         0.5000 
     31 O           0.6429  -22.7394  -41.3789 O.2       8 UNK        -0.5000 
     32 CA         -0.7847  -21.3779  -40.0203 C.3       8 UNK         0.1400 
     33 CB         -0.2473  -21.5522  -38.5916 C.3       8 UNK        -0.1800 
     34 N          -1.4454  -20.0747  -40.1211 N.am      8 UNK        -0.5000 
     35 C          -2.1280  -19.6358  -41.1877 C.2       7 UNK         0.5000 
     36 O          -2.2801  -20.2871  -42.2207 O.2       7 UNK        -0.5000 
     37 CA         -2.6766  -18.1997  -41.1050 C.3       7 UNK         0.1400 
     38 CB         -4.0611  -18.1925  -40.4401 C.3       7 UNK        -0.1800 
     39 N          -1.7975  -17.2614  -40.3973 N.am      7 UNK        -0.5000 
     40 C          -0.5238  -16.9953  -40.7171 C.2       6 UNK         0.5000 
     41 O           0.1019  -17.5796  -41.6038 O.2       6 UNK        -0.5000 
     42 CA          0.1890  -15.9190  -39.8841 C.3       6 UNK         0.1400 
     43 CB          1.2872  -16.5547  -39.0173 C.3       6 UNK        -0.1800 
     44 N           0.7876  -14.8980  -40.7418 N.am      6 UNK        -0.5000 
     45 C           0.1022  -14.0144  -41.4821 C.2       5 UNK         0.5000 
     46 O          -1.1274  -13.9439  -41.4929 O.2       5 UNK        -0.5000 
     47 CA          0.9199  -13.0217  -42.3320 C.3       5 UNK         0.1400 
     48 CB          0.9343  -11.6357  -41.6676 C.3       5 UNK        -0.1800 
     49 N           2.3033  -13.4568  -42.5404 N.am      5 UNK        -0.5000 
     50 C           2.6911  -14.2775  -43.5232 C.2       4 UNK         0.5000 
     51 O           1.9304  -14.7419  -44.3721 O.2       4 UNK        -0.5000 
     52 CA          4.1741  -14.6625  -43.5419 C.3       4 UNK         0.1400 
     53 CB          4.3840  -16.0537  -42.9225 C.3       4 UNK        -0.1800 
     54 N           4.6472  -14.6703  -44.9206 N.am      4 UNK        -0.5000 
     55 C           5.8547  -14.2576  -45.3218 C.2       3 UNK         0.5000 
     56 O           6.7230  -13.8341  -44.5573 O.2       3 UNK        -0.5000 
     57 CA          6.1458  -14.3161  -46.8298 C.3       3 UNK         0.1400 
     58 CB          6.6297  -15.7181  -47.2345 C.3       3 UNK        -0.1800 
     59 N           4.9709  -13.9608  -47.6253 N.am      3 UNK        -0.5000 
     60 C           4.6700  -12.7169  -48.0234 C.2       2 UNK         0.5000 
     61 O           5.3523  -11.7302  -47.7440 O.2       2 UNK        -0.5000 
     62 CA          3.4162  -12.5335  -48.9022 C.3       2 UNK         0.1400 
     63 CB          3.8187  -12.3786  -50.3773 C.3       2 UNK        -0.1800 
     64 N           2.4759  -13.6485  -48.7898 N.am      2 UNK        -0.5000 
     65 C           1.5355  -13.7580  -47.8412 C.2       1 UNK         0.5000 
     66 O           1.3087  -12.8818  -47.0064 O.2       1 UNK        -0.5000 
     67 C          -2.6561  -22.0484  -46.0883 C.2       11 UNK         0.5000 
     68 O          -3.1057  -22.5979  -47.0938 O.2       11 UNK        -0.5000 
     69 N          -1.7008  -22.5796  -45.3104 N.am      12 UNK        -0.5000 
     70 CA         -1.0211  -23.8460  -45.5744 C.3       12 UNK         0.1400 
     71 CB         -0.1592  -24.2308  -44.3635 C.3       12 UNK        -0.1800 
     72 C          -0.1763  -23.7878  -46.8571 C.2       12 UNK         0.5000 
     73 O          -0.2607  -24.6995  -47.6791 O.2       12 UNK        -0.5000 
     74 N           0.5834  -22.6973  -47.0290 N.am      13 UNK        -0.5000 
     75 CA          1.3674  -22.4206  -48.2298 C.3       13 UNK         0.1400 
     76 CB          2.2695  -21.2051  -47.9925 C.3       13 UNK        -0.1800 
     77 C           0.4880  -22.2154  -49.4735 C.2       13 UNK         0.5000 
     78 O           0.8123  -22.7603  -50.5265 O.2       13 UNK        -0.5000 
     79 N          -0.6256  -21.4816  -49.3270 N.am      14 UNK        -0.5000 
     80 CA         -1.6261  -21.2809  -50.3787 C.3       14 UNK         0.1400 
     81 CB         -2.6901  -20.2807  -49.8997 C.3       14 UNK        -0.1800 
     82 C          -2.2752  -22.5998  -50.8414 C.2       14 UNK         0.5000 
     83 O          -2.4310  -22.8121  -52.0454 O.2       14 UNK        -0.5000 
     84 N          -2.5995  -23.4800  -49.8840 N.am      15 UNK        -0.5000 
     85 CA         -3.1085  -24.8264  -50.1401 C.3       15 UNK         0.1400 
     86 CB         -3.6023  -25.4545  -48.8282 C.3       15 UNK        -0.1800 
     87 C          -2.0680  -25.7278  -50.8298 C.2       15 UNK         0.5000 
     88 O          -2.4020  -26.3860  -51.8150 O.2       15 UNK        -0.5000 
     89 N          -0.8237  -25.7159  -50.3295 N.am      16 UNK        -0.5000 
     90 CA          0.3039  -26.4818  -50.8697 C.3       16 UNK         0.1400 
     91 CB          1.5027  -26.3740  -49.9155 C.3       16 UNK        -0.1800 
     92 C           0.7057  -26.0550  -52.2942 C.2       16 UNK         0.5000 
     93 O           1.0195  -26.9127  -53.1204 O.2       16 UNK        -0.5000 
     94 N           0.6588  -24.7439  -52.5647 N.am      17 UNK        -0.5000 
     95 CA          0.8985  -24.1467  -53.8800 C.3       17 UNK         0.1400 
     96 CB          1.1662  -22.6437  -53.7006 C.3       17 UNK        -0.1800 
     97 C          -0.2607  -24.3600  -54.8737 C.2       17 UNK         0.5000 
     98 O          -0.0736  -24.1133  -56.0660 O.2       17 UNK        -0.5000 
     99 N          -1.4283  -24.7894  -54.3698 N.am      18 UNK        -0.5000 
    100 CA        -2.6988  -24.9573  -55.0786 C.3       18 UNK         0.1400 
    101 CB        -2.6073  -26.0882  -56.1242 C.3       18 UNK        -0.1800 
    102 C         -3.2061  -23.6214  -55.6576 C.2       18 UNK         0.5000 
    103 O         -3.5629  -23.5416  -56.8344 O.2       18 UNK        -0.5000 
    104 N         -3.2153  -22.5860  -54.8056 N.am      19 UNK        -0.5000 
    105 CA        -3.6046  -21.2140  -55.1429 C.3       19 UNK         0.1400 
    106 CB        -3.1056  -20.2751  -54.0347 C.3       19 UNK        -0.1800 
    107 C         -5.1160  -21.0231  -55.3957 C.2       19 UNK         0.5000 
    108 O         -5.5070  -19.9596  -55.8798 O.2       19 UNK        -0.5000 
    109 N         -5.9269  -22.0452  -55.0794 N.am      20 UNK        -0.5000 
    110 CA        -7.3609  -22.1852  -55.3522 C.3       20 UNK         0.1400 
    111 CB        -7.6046  -22.3594  -56.8675 C.3       20 UNK        -0.1800 
    112 C         -8.2006  -21.0567  -54.7245 C.2       20 UNK         0.5000 
    113 O         -8.5754  -21.1630  -53.5567 O.2       20 UNK        -0.5000 
    114 N         -8.4715  -20.0010  -55.5036 N.am      21 UNK        -0.5000 
    115 CA        -9.1734  -18.7916  -55.0730 C.3       21 UNK         0.1400 
    116 CB        -9.5507  -17.9676  -56.3137 C.3       21 UNK        -0.1800 
    117 C         -8.3636  -17.9330  -54.0808 C.2       21 UNK         0.5000 
    118 O         -8.9714  -17.1614  -53.3388 O.2       21 UNK        -0.5000 
    119 N         -7.0289  -18.0796  -54.0991 N.am      22 UNK        -0.5000 
    120 CA        -5.9940  -17.5110  -53.2074 C.3       22 UNK         0.1400 
    121 C         -5.9733  -15.9725  -52.9444 C.2       22 UNK         0.5000 
    122 N         -6.9864  -15.2049  -53.3135 N.am      22 UNK        -0.7600 
    123 O         -4.9882  -15.4565  -52.4246 O.2       22 UNK        -0.5000 
    124 C124       -5.7554  -18.3475  -51.9128 C.3       23 UNK        -0.0398 
    125 S125       -7.2275  -18.7433  -50.9070 S.3       23 UNK        -0.2404 
    126 C126       -7.3927  -17.2729  -49.8521 C.3       23 UNK        -0.0205 
    127 H127        3.5315  -18.6474  -47.8840 H         1 UNK         0.0600 
    128 H128        4.0043  -17.6218  -49.2393 H         1 UNK         0.0600 
    129 H129        2.4244  -18.4172  -49.2458 H         1 UNK         0.0600 
    130 H130        0.9676  -16.6954  -49.1338 H         1 UNK         0.3000 
    131 H131        0.4841  -15.2800  -46.7804 H         1 UNK         0.0600 
    132 H132       -1.1420  -13.9546  -48.1640 H         1 UNK         0.0800 
    133 H133       -0.4504  -14.6055  -49.6229 H         1 UNK         0.0800 
    134 H134       -3.4704  -14.5860  -48.1654 H         1 UNK         0.0800 
    135 H135       -2.9092  -15.2276  -46.6423 H         1 UNK         0.0800 
    136 H136       -5.0365  -15.9075  -49.6121 H         1 UNK         0.1150 
    137 H137       -7.6080  -18.6047  -47.5031 H         1 UNK         0.1150 
    138 H138       -4.0486  -17.1089  -45.6245 H         1 UNK         0.1150 
    139 H139       -6.9663  -18.0602  -44.6141 H         1 UNK         0.0800 
    140 H140       -6.8658  -19.6032  -45.4177 H         1 UNK         0.0800 
    141 H141       -5.2065  -21.2699  -45.2233 H         1 UNK         0.0800 
    142 H142       -4.1153  -21.4135  -43.8749 H         1 UNK         0.0800 
    143 H143       -3.5246  -20.1613  -46.5943 H         1 UNK         0.0600 
    144 H144       -2.1106  -19.6562  -44.1472 H         1 UNK         0.3000 
    145 H145        0.7173  -18.1769  -45.8571 H         1 UNK         0.0600 
    146 H146       -0.0573  -16.4093  -44.2906 H         1 UNK         0.0600 
    147 H147       -1.1912  -16.5869  -45.6184 H         1 UNK         0.0600 
    148 H148       -1.5775  -17.2547  -44.0426 H         1 UNK         0.0600 
    149 H149        0.4325  -18.4776  -43.1169 H         1 UNK         0.3000 
    150 H150        2.3698  -21.4860  -42.7261 H         1 UNK         0.0600 
    151 H151        3.7670  -19.4473  -43.1009 H         1 UNK         0.0600 
    152 H152        3.5760  -19.8002  -41.3901 H         1 UNK         0.0600 
    153 H153        2.6537  -18.4939  -42.1256 H         1 UNK         0.0600 
    154 H154        0.5947  -19.5878  -41.2504 H         1 UNK         0.3000 
    155 H155       -1.5387  -22.1468  -40.2008 H         1 UNK         0.0600 
    156 H156        0.4941  -20.7908  -38.3457 H         1 UNK         0.0600 
    157 H157        0.2290  -22.5259  -38.4691 H         1 UNK         0.0600 
    158 H158       -1.0503  -21.4907  -37.8569 H         1 UNK         0.0600 
    159 H159       -1.3598  -19.4609  -39.3246 H         1 UNK         0.3000 
    160 H160       -2.7912  -17.8349  -42.1266 H         1 UNK         0.0600 
    161 H161       -4.5159  -17.2029  -40.4873 H         1 UNK         0.0600 
    162 H162       -4.0071  -18.4895  -39.3920 H         1 UNK         0.0600 
    163 H163       -4.7403  -18.8835  -40.9413 H         1 UNK         0.0600 
    164 H164       -2.2262  -16.7348  -39.6498 H         1 UNK         0.3000 
    165 H165       -0.5341  -15.4332  -39.2256 H         1 UNK         0.0600 
    166 H166        1.7760  -15.8091  -38.3900 H         1 UNK         0.0600 
    167 H167        0.8711  -17.3141  -38.3540 H         1 UNK         0.0600 
    168 H168        2.0542  -17.0361  -39.6260 H         1 UNK         0.0600 
    169 H169        1.7925  -14.9068  -40.8193 H         1 UNK         0.3000 
    170 H170        0.4201  -12.9272  -43.2988 H         1 UNK         0.0600 
    171 H171       -0.0799  -11.2611  -41.5222 H         1 UNK         0.0600 
    172 H172        1.4178  -11.6615  -40.6903 H         1 UNK         0.0600 
    173 H173        1.4616  -10.9083  -42.2850 H         1 UNK         0.0600 
    174 H174        2.9888  -13.1076  -41.8857 H         1 UNK         0.3000 
    175 H175        4.7297  -13.9245  -42.9593 H         1 UNK         0.0600 
    176 H176        4.0033  -16.0936  -41.9012 H         1 UNK         0.0600 
    177 H177        5.4418  -16.3145  -42.8876 H         1 UNK         0.0600 
    178 H178        3.8690  -16.8237  -43.4984 H         1 UNK         0.0600 
    179 H179        3.9799  -15.0214  -45.6042 H         1 UNK         0.3000 
    180 H180        6.9549  -13.6137  -47.0420 H         1 UNK         0.0600 
    181 H181        5.8795  -16.4826  -47.0307 H         1 UNK         0.0600 
    182 H182        7.5315  -15.9912  -46.6852 H         1 UNK         0.0600 
    183 H183        6.8709  -15.7602  -48.2967 H         1 UNK         0.0600 
    184 H184        4.3126  -14.7084  -47.8056 H         1 UNK         0.3000 
    185 H185        2.9242  -11.6106  -48.5879 H         1 UNK         0.0600 
    186 H186        4.4991  -11.5365  -50.5107 H         1 UNK         0.0600 
    187 H187        4.3220  -13.2700  -50.7539 H         1 UNK         0.0600 
    188 H188        2.9477  -12.1930  -51.0062 H         1 UNK         0.0600 
    189 H189        2.5860  -14.4062  -49.4480 H         1 UNK         0.3000 
    190 H190       -1.3746  -22.0416  -44.5203 H         1 UNK         0.3000 
    191 H191       -1.7832  -24.6163  -45.7101 H         1 UNK         0.0600 
    192 H192        0.6126  -23.4869  -44.1625 H         1 UNK         0.0600 
    193 H193        0.3410  -25.1858  -44.5287 H         1 UNK         0.0600 
    194 H194       -0.7658  -24.3328  -43.4635 H         1 UNK         0.0600 
    195 H195        0.6364  -22.0035  -46.2876 H         1 UNK         0.3000 
    196 H196        2.0091  -23.2840  -48.4157 H         1 UNK         0.0600 
    197 H197        2.8537  -20.9720  -48.8835 H         1 UNK         0.0600 
    198 H198        2.9731  -21.3889  -47.1805 H         1 UNK         0.0600 
    199 H199        1.6847  -20.3218  -47.7340 H         1 UNK         0.0600 
    200 H200       -0.7952  -21.0168  -48.4397 H         1 UNK         0.3000 
    201 H201       -1.1165  -20.8459  -51.2408 H         1 UNK         0.0600 
    202 H202       -2.2428  -19.3197  -49.6440 H         1 UNK         0.0600 
    203 H203       -3.2198  -20.6446  -49.0197 H         1 UNK         0.0600 
    204 H204       -3.4341  -20.0965  -50.6743 H         1 UNK         0.0600 
    205 H205       -2.4880  -23.2116  -48.9113 H         1 UNK         0.3000 
    206 H206       -3.9650  -24.7361  -50.8116 H         1 UNK         0.0600 
    207 H207       -4.3986  -24.8579  -48.3827 H         1 UNK         0.0600 
    208 H208       -4.0017  -26.4547  -48.9998 H         1 UNK         0.0600 
    209 H209       -2.8018  -25.5416  -48.0935 H         1 UNK         0.0600 
    210 H210       -0.6399  -25.1751  -49.4880 H         1 UNK         0.3000 
    211 H211        0.0000  -27.5296  -50.9137 H         1 UNK         0.0600 
    212 H212        1.8357  -25.3418  -49.8050 H         1 UNK         0.0600 
    213 H213        2.3491  -26.9556  -50.2827 H         1 UNK         0.0600 
    214 H214        1.2531  -26.7532  -48.9244 H         1 UNK         0.0600 
    215 H215        0.4664  -24.0940  -51.8056 H         1 UNK         0.3000 
    216 H216        1.7906  -24.6052  -54.3113 H         1 UNK         0.0600 
    217 H217        1.3835  -22.1649  -54.6562 H         1 UNK         0.0600 
    218 H218        2.0232  -22.4704  -53.0495 H         1 UNK         0.0600 
    219 H219        0.3053  -22.1338  -53.2655 H         1 UNK         0.0600 
    220 H220       -1.4689  -24.9573  -53.3728 H         1 UNK         0.3000 
    221 H221       -3.4285  -25.2637  -54.3277 H         1 UNK         0.0600 
    222 H222       -3.5845  -26.2905  -56.5639 H         1 UNK         0.0600 
    223 H223       -2.2576  -27.0152  -55.6698 H         1 UNK         0.0600 
    224 H224       -1.9288  -25.8376  -56.9400 H         1 UNK         0.0600 
    225 H225       -2.8987  -22.7376  -53.8493 H         1 UNK         0.3000 
    226 H226       -3.0939  -20.9405  -56.0683 H         1 UNK         0.0600 
    227 H227       -3.3295  -19.2339  -54.2672 H         1 UNK         0.0600 
    228 H228       -3.5675  -20.5120  -53.0775 H         1 UNK         0.0600 
    229 H229       -2.0253  -20.3531  -53.9104 H         1 UNK         0.0600 
    230 H230       -5.4935  -22.8440  -54.6402 H         1 UNK         0.3000 
    231 H231       -7.6782  -23.1090  -54.8658 H         1 UNK         0.0600 
    232 H232       -7.1112  -23.2585  -57.2371 H         1 UNK         0.0600 
    233 H233       -7.2281  -21.5186  -57.4506 H         1 UNK         0.0600 
    234 H234       -8.6685  -22.4639  -57.0844 H         1 UNK         0.0600 
    235 H235       -8.0842  -19.9899  -56.4364 H         1 UNK         0.3000 
    236 H236      -10.0937  -19.0944  -54.5692 H         1 UNK         0.0600 
    237 H237      -10.1847  -18.5407  -56.9905 H         1 UNK         0.0600 
    238 H238      -10.1042  -17.0704  -56.0336 H         1 UNK         0.0600 
    239 H239       -8.6673  -17.6488  -56.8684 H         1 UNK         0.0600 
    240 H240       -6.6600  -18.7199  -54.7951 H         1 UNK         0.3000 
    241 H241       -5.0889  -17.6440  -53.8004 H         1 UNK         0.0600 
    242 H242       -6.9541  -14.2107  -53.1539 H         1 UNK         0.3800 
    243 H243       -7.8492  -15.6527  -53.6035 H         1 UNK         0.3800 
    244 H244       -4.9902  -17.8963  -51.2793 H         1 UNK         0.0800 
    245 H245       -5.3416  -19.3109  -52.2065 H         1 UNK         0.0800 
    246 H246       -8.4104  -17.2457  -49.4602 H         1 UNK         0.0800 
    247 H247       -7.2840  -16.3670  -50.4483 H         1 UNK         0.0800 
@<TRIPOS>BOND
     1    1    2 1    
     2    1  127 1    
     3    1  128 1    
     4    1  129 1    
     5    2    3 2    
     6    2    4 am   BACKBONE|DICT|INTERRES
     7    4    5 1    
     8    4  130 1    
     9    5    6 1    
    10    5   65 1    
    11    5  131 1    
    12    6    7 1    
    13    6  132 1    
    14    6  133 1    
    15    7    8 1    
    16    8    9 1    
    17    8  134 1    
    18    8  135 1    
    19    9   10 ar   
    20    9   14 ar   
    21   10   11 ar   
    22   10  136 1    
    23   11   12 ar   
    24   11  126 1    
    25   12   13 ar   
    26   12  137 1    
    27   13   14 ar   
    28   13   15 1    
    29   14  138 1    
    30   15   16 1    
    31   15  139 1    
    32   15  140 1    
    33   16   17 1    
    34   17   18 1    
    35   17  141 1    
    36   17  142 1    
    37   18   19 1    
    38   18   67 1    
    39   18  143 1    
    40   19   20 am   BACKBONE|DICT|INTERRES
    41   19  144 1    
    42   20   21 2    
    43   20   22 1    
    44   22   23 1    
    45   22   24 1    
    46   22  145 1    
    47   23  146 1    
    48   23  147 1    
    49   23  148 1    
    50   24   25 am   BACKBONE|DICT|INTERRES
    51   24  149 1    
    52   25   26 2    
    53   25   27 1    
    54   27   28 1    
    55   27   29 1    
    56   27  150 1    
    57   28  151 1    
    58   28  152 1    
    59   28  153 1    
    60   29   30 am   BACKBONE|DICT|INTERRES
    61   29  154 1    
    62   30   31 2    
    63   30   32 1    
    64   32   33 1    
    65   32   34 1    
    66   32  155 1    
    67   33  156 1    
    68   33  157 1    
    69   33  158 1    
    70   34   35 am   BACKBONE|DICT|INTERRES
    71   34  159 1    
    72   35   36 2    
    73   35   37 1    
    74   37   38 1    
    75   37   39 1    
    76   37  160 1    
    77   38  161 1    
    78   38  162 1    
    79   38  163 1    
    80   39   40 am   BACKBONE|DICT|INTERRES
    81   39  164 1    
    82   40   41 2    
    83   40   42 1    
    84   42   43 1    
    85   42   44 1    
    86   42  165 1    
    87   43  166 1    
    88   43  167 1    
    89   43  168 1    
    90   44   45 am   BACKBONE|DICT|INTERRES
    91   44  169 1    
    92   45   46 2    
    93   45   47 1    
    94   47   48 1    
    95   47   49 1    
    96   47  170 1    
    97   48  171 1    
    98   48  172 1    
    99   48  173 1    
   100   49   50 am   BACKBONE|DICT|INTERRES
   101   49  174 1    
   102   50   51 2    
   103   50   52 1    
   104   52   53 1    
   105   52   54 1    
   106   52  175 1    
   107   53  176 1    
   108   53  177 1    
   109   53  178 1    
   110   54   55 am   BACKBONE|DICT|INTERRES
   111   54  179 1    
   112   55   56 2    
   113   55   57 1    
   114   57   58 1    
   115   57   59 1    
   116   57  180 1    
   117   58  181 1    
   118   58  182 1    
   119   58  183 1    
   120   59   60 am   BACKBONE|DICT|INTERRES
   121   59  184 1    
   122   60   61 2    
   123   60   62 1    
   124   62   63 1    
   125   62   64 1    
   126   62  185 1    
   127   63  186 1    
   128   63  187 1    
   129   63  188 1    
   130   64   65 am   BACKBONE|DICT|INTERRES
   131   64  189 1    
   132   65   66 2    
   133   67   68 2    
   134   67   69 am   BACKBONE|DICT|INTERRES
   135   69   70 1    
   136   69  190 1    
   137   70   71 1    
   138   70   72 1    
   139   70  191 1    
   140   71  192 1    
   141   71  193 1    
   142   71  194 1    
   143   72   73 2    
   144   72   74 am   BACKBONE|DICT|INTERRES
   145   74   75 1    
   146   74  195 1    
   147   75   76 1    
   148   75   77 1    
   149   75  196 1    
   150   76  197 1    
   151   76  198 1    
   152   76  199 1    
   153   77   78 2    
   154   77   79 am   BACKBONE|DICT|INTERRES
   155   79   80 1    
   156   79  200 1    
   157   80   81 1    
   158   80   82 1    
   159   80  201 1    
   160   81  202 1    
   161   81  203 1    
   162   81  204 1    
   163   82   83 2    
   164   82   84 am   BACKBONE|DICT|INTERRES
   165   84   85 1    
   166   84  205 1    
   167   85   86 1    
   168   85   87 1    
   169   85  206 1    
   170   86  207 1    
   171   86  208 1    
   172   86  209 1    
   173   87   88 2    
   174   87   89 am   BACKBONE|DICT|INTERRES
   175   89   90 1    
   176   89  210 1    
   177   90   91 1    
   178   90   92 1    
   179   90  211 1    
   180   91  212 1    
   181   91  213 1    
   182   91  214 1    
   183   92   93 2    
   184   92   94 am   BACKBONE|DICT|INTERRES
   185   94   95 1    
   186   94  215 1    
   187   95   96 1    
   188   95   97 1    
   189   95  216 1    
   190   96  217 1    
   191   96  218 1    
   192   96  219 1    
   193   97   98 2    
   194   97   99 am   BACKBONE|DICT|INTERRES
   195   99  100 1    
   196   99  220 1    
   197  100  101 1    
   198  100  102 1    
   199  100  221 1    
   200  101  222 1    
   201  101  223 1    
   202  101  224 1    
   203  102  103 2    
   204  102  104 am   BACKBONE|DICT|INTERRES
   205  104  105 1    
   206  104  225 1    
   207  105  106 1    
   208  105  107 1    
   209  105  226 1    
   210  106  227 1    
   211  106  228 1    
   212  106  229 1    
   213  107  108 2    
   214  107  109 am   BACKBONE|DICT|INTERRES
   215  109  110 1    
   216  109  230 1    
   217  110  111 1    
   218  110  112 1    
   219  110  231 1    
   220  111  232 1    
   221  111  233 1    
   222  111  234 1    
   223  112  113 2    
   224  112  114 am   BACKBONE|DICT|INTERRES
   225  114  115 1    
   226  114  235 1    
   227  115  116 1    
   228  115  117 1    
   229  115  236 1    
   230  116  237 1    
   231  116  238 1    
   232  116  239 1    
   233  117  118 2    
   234  117  119 am   BACKBONE|DICT|INTERRES
   235  119  120 1    
   236  119  240 1    
   237  120  121 1    
   238  120  124 1    
   239  120  241 1    
   240  121  122 am   BACKBONE|DICT|INTERRES
   241  121  123 2    
   242  122  242 1    
   243  122  243 1    
   244  124  125 1    
   245  124  244 1    
   246  124  245 1    
   247  125  126 1    
   248  126  246 1    
   249  126  247 1    
@<TRIPOS>SUBSTRUCTURE
     1 UNK         1 GROUP             0       ****    0 ROOT    
