@<TRIPOS>MOLECULE
3R540
247   249    1
SMALL
USER_CHARGES


@<TRIPOS>ATOM
      1 CA          6.2421  -11.7673  -47.8317 C.3       0 UNK        -0.1800 
      2 C           5.2758  -12.9061  -47.5419 C.2       0 UNK         0.5000 
      3 O           4.6886  -12.9533  -46.4604 O.2       0 UNK        -0.5000 
      4 N           5.0902  -13.8153  -48.5094 N.am      1 UNK        -0.5000 
      5 CA          4.2216  -14.9968  -48.4098 C.3       1 UNK         0.1400 
      6 C6          4.4300  -16.0143  -49.5626 C.3       23 UNK        -0.0398 
      7 S7          4.6992  -15.3377  -51.2460 S.3       23 UNK        -0.2404 
      8 C8          3.1112  -14.5683  -51.7350 C.3       23 UNK        -0.0205 
      9 C9          1.8588  -15.4389  -51.6235 C.ar      23 UNK        -0.0193 
     10 C10         0.6198  -14.8080  -51.4709 C.ar      23 UNK        -0.1150 
     11 C11        -0.5583  -15.5485  -51.3379 C.ar      23 UNK        -0.0193 
     12 C12        -0.4859  -16.9457  -51.3589 C.ar      23 UNK        -0.1150 
     13 C13         0.7419  -17.5936  -51.5171 C.ar      23 UNK        -0.0193 
     14 C14         1.9051  -16.8366  -51.6737 C.ar      23 UNK        -0.1150 
     15 C15         0.8185  -19.1103  -51.4819 C.3       23 UNK        -0.0205 
     16 S16         0.6407  -19.7277  -49.7842 S.3       23 UNK        -0.2404 
     17 C17         0.7675  -21.5224  -50.0849 C.3       23 UNK        -0.0398 
     18 CA          0.8549  -22.3688  -48.7916 C.3       11 UNK         0.1400 
     19 N           1.8891  -21.8601  -47.8898 N.am      11 UNK        -0.5000 
     20 C           2.3935  -22.5040  -46.8336 C.2       10 UNK         0.5000 
     21 O           2.0405  -23.6348  -46.4999 O.2       10 UNK        -0.5000 
     22 CA          3.4335  -21.7499  -45.9768 C.3       10 UNK         0.1400 
     23 CB          3.8903  -20.3998  -46.5794 C.3       10 UNK        -0.1800 
     24 N           2.9576  -21.5535  -44.6037 N.am      10 UNK        -0.5000 
     25 C           1.8203  -20.9484  -44.2348 C.2       9 UNK         0.5000 
     26 O           1.0060  -20.4763  -45.0323 O.2       9 UNK        -0.5000 
     27 CA          1.5636  -20.8622  -42.7224 C.3       9 UNK         0.1400 
     28 CB          2.4690  -19.8129  -42.0578 C.3       9 UNK        -0.1800 
     29 N           0.1741  -20.4947  -42.4709 N.am      9 UNK        -0.5000 
     30 C          -0.7282  -21.2675  -41.8546 C.2       8 UNK         0.5000 
     31 O          -0.4796  -22.3910  -41.4156 O.2       8 UNK        -0.5000 
     32 CA         -2.1285  -20.6602  -41.6650 C.3       8 UNK         0.1400 
     33 CB         -2.9566  -21.3667  -40.5742 C.3       8 UNK        -0.1800 
     34 N          -2.0052  -19.2370  -41.3583 N.am      8 UNK        -0.5000 
     35 C          -2.8873  -18.2911  -41.6928 C.2       7 UNK         0.5000 
     36 O          -3.9557  -18.5325  -42.2573 O.2       7 UNK        -0.5000 
     37 CA         -2.5250  -16.8340  -41.3389 C.3       7 UNK         0.1400 
     38 CB         -1.1714  -16.6700  -40.6159 C.3       7 UNK        -0.1800 
     39 N          -2.4945  -16.0477  -42.5657 N.am      7 UNK        -0.5000 
     40 C          -3.5177  -15.3400  -43.0600 C.2       6 UNK         0.5000 
     41 O          -4.5853  -15.1718  -42.4681 O.2       6 UNK        -0.5000 
     42 CA         -3.3219  -14.7019  -44.4499 C.3       6 UNK         0.1400 
     43 CB         -3.0122  -13.2034  -44.3101 C.3       6 UNK        -0.1800 
     44 N          -2.2680  -15.3411  -45.2421 N.am      6 UNK        -0.5000 
     45 C          -2.3549  -16.5661  -45.7810 C.2       5 UNK         0.5000 
     46 O          -3.3690  -17.2612  -45.7319 O.2       5 UNK        -0.5000 
     47 CA         -1.0949  -17.1131  -46.4776 C.3       5 UNK         0.1400 
     48 CB         -1.0651  -16.6773  -47.9463 C.3       5 UNK        -0.1800 
     49 N           0.1512  -16.6988  -45.8390 N.am      5 UNK        -0.5000 
     50 C           0.5407  -17.0287  -44.6003 C.2       4 UNK         0.5000 
     51 O          -0.1167  -17.7277  -43.8268 O.2       4 UNK        -0.5000 
     52 CA          1.8734  -16.4179  -44.1340 C.3       4 UNK         0.1400 
     53 CB          3.0725  -17.1608  -44.7460 C.3       4 UNK        -0.1800 
     54 N           1.9596  -14.9970  -44.4697 N.am      4 UNK        -0.5000 
     55 C           1.2320  -14.0338  -43.8872 C.2       3 UNK         0.5000 
     56 O           0.4510  -14.2326  -42.9569 O.2       3 UNK        -0.5000 
     57 CA          1.3825  -12.6143  -44.4633 C.3       3 UNK         0.1400 
     58 CB          2.5683  -11.8862  -43.8133 C.3       3 UNK        -0.1800 
     59 N           1.5512  -12.6201  -45.9176 N.am      3 UNK        -0.5000 
     60 C           0.5700  -12.9168  -46.7833 C.2       2 UNK         0.5000 
     61 O          -0.5785  -13.1909  -46.4411 O.2       2 UNK        -0.5000 
     62 CA          0.9389  -12.9625  -48.2782 C.3       2 UNK         0.1400 
     63 CB          0.7782  -11.5785  -48.9227 C.3       2 UNK        -0.1800 
     64 N           2.2956  -13.4525  -48.5174 N.am      2 UNK        -0.5000 
     65 C           2.7283  -14.6781  -48.1898 C.2       1 UNK         0.5000 
     66 O           2.0078  -15.5332  -47.6769 O.2       1 UNK        -0.5000 
     67 C          -0.5263  -22.5442  -48.1200 C.2       11 UNK         0.5000 
     68 O          -1.3196  -23.3595  -48.5952 O.2       11 UNK        -0.5000 
     69 N          -0.8042  -21.8155  -47.0285 N.am      12 UNK        -0.5000 
     70 CA         -2.0439  -21.9663  -46.2635 C.3       12 UNK         0.1400 
     71 CB         -2.3967  -20.6532  -45.5547 C.3       12 UNK        -0.1800 
     72 C          -2.0004  -23.1469  -45.2775 C.2       12 UNK         0.5000 
     73 O          -3.0616  -23.6430  -44.8997 O.2       12 UNK        -0.5000 
     74 N          -0.7971  -23.6196  -44.9144 N.am      13 UNK        -0.5000 
     75 CA         -0.5954  -24.7683  -44.0207 C.3       13 UNK         0.1400 
     76 CB          0.8796  -24.8514  -43.6017 C.3       13 UNK        -0.1800 
     77 C          -1.0506  -26.1062  -44.6368 C.2       13 UNK         0.5000 
     78 O          -1.3487  -27.0455  -43.8991 O.2       13 UNK        -0.5000 
     79 N          -1.1270  -26.1577  -45.9744 N.am      14 UNK        -0.5000 
     80 CA         -1.6741  -27.2726  -46.7490 C.3       14 UNK         0.1400 
     81 CB         -1.2531  -27.0932  -48.2171 C.3       14 UNK        -0.1800 
     82 C          -3.2098  -27.4014  -46.6440 C.2       14 UNK         0.5000 
     83 O          -3.7482  -28.4371  -47.0352 O.2       14 UNK        -0.5000 
     84 N          -3.8772  -26.3492  -46.1426 N.am      15 UNK        -0.5000 
     85 CA         -5.3262  -26.1728  -46.0166 C.3       15 UNK         0.1400 
     86 CB         -5.8577  -27.0588  -44.8705 C.3       15 UNK        -0.1800 
     87 C          -6.1005  -26.3774  -47.3451 C.2       15 UNK         0.5000 
     88 O          -6.9741  -27.2429  -47.4054 O.2       15 UNK        -0.5000 
     89 N          -5.8168  -25.6274  -48.4199 N.am      16 UNK        -0.5000 
     90 CA         -4.8399  -24.5553  -48.5870 C.3       16 UNK         0.1400 
     91 CB         -5.4011  -23.2261  -48.0498 C.3       16 UNK        -0.1800 
     92 C          -4.5333  -24.4401  -50.0835 C.2       16 UNK         0.5000 
     93 O          -5.4616  -24.4601  -50.8944 O.2       16 UNK        -0.5000 
     94 N          -3.2495  -24.2753  -50.4195 N.am      17 UNK        -0.5000 
     95 CA         -2.7894  -23.9416  -51.7684 C.3       17 UNK         0.1400 
     96 CB         -1.3508  -24.4463  -51.9540 C.3       17 UNK        -0.1800 
     97 C          -2.8866  -22.4275  -52.0342 C.2       17 UNK         0.5000 
     98 O          -2.9527  -22.0177  -53.1930 O.2       17 UNK        -0.5000 
     99 N          -2.9447  -21.6255  -50.9579 N.am      18 UNK        -0.5000 
    100 CA        -3.1400  -20.1738  -50.9765 C.3       18 UNK         0.1400 
    101 CB        -3.1730  -19.6474  -49.5336 C.3       18 UNK        -0.1800 
    102 C         -4.4086  -19.7392  -51.7335 C.2       18 UNK         0.5000 
    103 O         -4.3752  -18.7475  -52.4596 O.2       18 UNK        -0.5000 
    104 N         -5.4829  -20.5298  -51.5982 N.am      19 UNK        -0.5000 
    105 CA        -6.7614  -20.3344  -52.2826 C.3       19 UNK         0.1400 
    106 CB        -7.7729  -21.3603  -51.7498 C.3       19 UNK        -0.1800 
    107 C         -6.6582  -20.4218  -53.8182 C.2       19 UNK         0.5000 
    108 O         -7.3870  -19.7126  -54.5119 O.2       19 UNK        -0.5000 
    109 N         -5.7443  -21.2625  -54.3208 N.am      20 UNK        -0.5000 
    110 CA        -5.4390  -21.3820  -55.7453 C.3       20 UNK         0.1400 
    111 CB        -4.9135  -22.7968  -56.0356 C.3       20 UNK        -0.1800 
    112 C         -4.4221  -20.3192  -56.1973 C.2       20 UNK         0.5000 
    113 O         -4.5501  -19.7896  -57.3015 O.2       20 UNK        -0.5000 
    114 N         -3.4293  -20.0358  -55.3429 N.am      21 UNK        -0.5000 
    115 CA        -2.3302  -19.1105  -55.6154 C.3       21 UNK         0.1400 
    116 CB        -1.2462  -19.2902  -54.5463 C.3       21 UNK        -0.1800 
    117 C         -2.7602  -17.6346  -55.6854 C.2       21 UNK         0.5000 
    118 O         -2.2965  -16.9189  -56.5747 O.2       21 UNK        -0.5000 
    119 N         -3.6164  -17.2035  -54.7515 N.am      22 UNK        -0.5000 
    120 CA        -4.0556  -15.8062  -54.6067 C.3       22 UNK         0.1400 
    121 C         -5.5835  -15.6351  -54.3659 C.2       22 UNK         0.5000 
    122 N         -6.3896  -16.6885  -54.4059 N.am      22 UNK        -0.7600 
    123 O         -6.0577  -14.5182  -54.1746 O.2       22 UNK        -0.5000 
    124 C124       -3.1738  -15.0243  -53.5935 C.3       23 UNK        -0.0398 
    125 S125       -3.3326  -15.5966  -51.8663 S.3       23 UNK        -0.2404 
    126 C126       -1.8774  -14.8179  -51.0921 C.3       23 UNK        -0.0205 
    127 H127        6.6743  -11.8464  -48.8295 H         1 UNK         0.0600 
    128 H128        7.0557  -11.7734  -47.1065 H         1 UNK         0.0600 
    129 H129        5.7259  -10.8101  -47.7587 H         1 UNK         0.0600 
    130 H130        5.5871  -13.7216  -49.3848 H         1 UNK         0.3000 
    131 H131        4.5256  -15.5088  -47.4939 H         1 UNK         0.0600 
    132 H132        5.3280  -16.5907  -49.3365 H         1 UNK         0.0800 
    133 H133        3.6340  -16.7600  -49.5824 H         1 UNK         0.0800 
    134 H134        3.2019  -14.2478  -52.7735 H         1 UNK         0.0800 
    135 H135        2.9830  -13.6552  -51.1543 H         1 UNK         0.0800 
    136 H136        0.5753  -13.7287  -51.4343 H         1 UNK         0.1150 
    137 H137       -1.3811  -17.5332  -51.2189 H         1 UNK         0.1150 
    138 H138        2.8496  -17.3439  -51.8050 H         1 UNK         0.1150 
    139 H139        0.0367  -19.5423  -52.1023 H         1 UNK         0.0800 
    140 H140        1.7672  -19.4554  -51.8958 H         1 UNK         0.0800 
    141 H141        1.6635  -21.6986  -50.6818 H         1 UNK         0.0800 
    142 H142       -0.0685  -21.8342  -50.7110 H         1 UNK         0.0800 
    143 H143        1.1628  -23.3735  -49.0893 H         1 UNK         0.0600 
    144 H144        2.1929  -20.9135  -48.0700 H         1 UNK         0.3000 
    145 H145        4.3076  -22.3997  -45.9167 H         1 UNK         0.0600 
    146 H146        4.3253  -20.5364  -47.5703 H         1 UNK         0.0600 
    147 H147        3.0701  -19.6863  -46.6699 H         1 UNK         0.0600 
    148 H148        4.6567  -19.9376  -45.9572 H         1 UNK         0.0600 
    149 H149        3.5520  -21.9404  -43.8843 H         1 UNK         0.3000 
    150 H150        1.7966  -21.8358  -42.2887 H         1 UNK         0.0600 
    151 H151        3.5205  -19.9780  -42.2958 H         1 UNK         0.0600 
    152 H152        2.3739  -19.8521  -40.9726 H         1 UNK         0.0600 
    153 H153        2.2115  -18.8027  -42.3708 H         1 UNK         0.0600 
    154 H154       -0.1208  -19.6198  -42.8952 H         1 UNK         0.3000 
    155 H155       -2.6459  -20.7814  -42.6176 H         1 UNK         0.0600 
    156 H156       -2.4731  -21.2996  -39.5990 H         1 UNK         0.0600 
    157 H157       -3.0904  -22.4241  -40.8060 H         1 UNK         0.0600 
    158 H158       -3.9509  -20.9289  -40.4863 H         1 UNK         0.0600 
    159 H159       -1.1427  -18.9597  -40.9102 H         1 UNK         0.3000 
    160 H160       -3.3049  -16.4618  -40.6716 H         1 UNK         0.0600 
    161 H161       -0.3348  -17.0235  -41.2196 H         1 UNK         0.0600 
    162 H162       -1.1589  -17.2098  -39.6683 H         1 UNK         0.0600 
    163 H163       -0.9825  -15.6210  -40.3860 H         1 UNK         0.0600 
    164 H164       -1.6735  -16.1686  -43.1444 H         1 UNK         0.3000 
    165 H165       -4.2646  -14.8047  -44.9912 H         1 UNK         0.0600 
    166 H166       -2.9888  -12.7138  -45.2836 H         1 UNK         0.0600 
    167 H167       -3.7730  -12.6981  -43.7138 H         1 UNK         0.0600 
    168 H168       -2.0493  -13.0364  -43.8258 H         1 UNK         0.0600 
    169 H169       -1.4292  -14.7947  -45.4027 H         1 UNK         0.3000 
    170 H170       -1.1279  -18.2018  -46.4450 H         1 UNK         0.0600 
    171 H171       -1.9732  -16.9773  -48.4679 H         1 UNK         0.0600 
    172 H172       -0.9757  -15.5954  -48.0362 H         1 UNK         0.0600 
    173 H173       -0.2212  -17.1244  -48.4711 H         1 UNK         0.0600 
    174 H174        0.7875  -16.1565  -46.4188 H         1 UNK         0.3000 
    175 H175        1.9264  -16.5153  -43.0479 H         1 UNK         0.0600 
    176 H176        3.0918  -17.0808  -45.8325 H         1 UNK         0.0600 
    177 H177        4.0154  -16.7688  -44.3647 H         1 UNK         0.0600 
    178 H178        3.0426  -18.2225  -44.5058 H         1 UNK         0.0600 
    179 H179        2.5534  -14.7463  -45.2466 H         1 UNK         0.3000 
    180 H180        0.4723  -12.0594  -44.2252 H         1 UNK         0.0600 
    181 H181        2.6525  -10.8632  -44.1803 H         1 UNK         0.0600 
    182 H182        3.5128  -12.3933  -44.0139 H         1 UNK         0.0600 
    183 H183        2.4473  -11.8345  -42.7305 H         1 UNK         0.0600 
    184 H184        2.4870  -12.4578  -46.2688 H         1 UNK         0.3000 
    185 H185        0.2453  -13.6485  -48.7674 H         1 UNK         0.0600 
    186 H186        0.9641  -11.6183  -49.9960 H         1 UNK         0.0600 
    187 H187       -0.2351  -11.1995  -48.7833 H         1 UNK         0.0600 
    188 H188        1.4644  -10.8500  -48.4890 H         1 UNK         0.0600 
    189 H189        2.9585  -12.7978  -48.9045 H         1 UNK         0.3000 
    190 H190       -0.1054  -21.1841  -46.6488 H         1 UNK         0.3000 
    191 H191       -2.8597  -22.1739  -46.9566 H         1 UNK         0.0600 
    192 H192       -3.2845  -20.7680  -44.9319 H         1 UNK         0.0600 
    193 H193       -2.6279  -19.8793  -46.2847 H         1 UNK         0.0600 
    194 H194       -1.5894  -20.2932  -44.9181 H         1 UNK         0.0600 
    195 H195        0.0340  -23.1989  -45.3080 H         1 UNK         0.3000 
    196 H196       -1.1932  -24.5995  -43.1225 H         1 UNK         0.0600 
    197 H197        1.5267  -25.1064  -44.4405 H         1 UNK         0.0600 
    198 H198        1.2268  -23.9108  -43.1792 H         1 UNK         0.0600 
    199 H199        1.0215  -25.6186  -42.8396 H         1 UNK         0.0600 
    200 H200       -0.8364  -25.3442  -46.4972 H         1 UNK         0.3000 
    201 H201       -1.2386  -28.2012  -46.3746 H         1 UNK         0.0600 
    202 H202       -0.1678  -27.0601  -48.3155 H         1 UNK         0.0600 
    203 H203       -1.6557  -26.1739  -48.6431 H         1 UNK         0.0600 
    204 H204       -1.6082  -27.9217  -48.8313 H         1 UNK         0.0600 
    205 H205       -3.3324  -25.5584  -45.8206 H         1 UNK         0.3000 
    206 H206       -5.4878  -25.1383  -45.7152 H         1 UNK         0.0600 
    207 H207       -5.3368  -26.8465  -43.9367 H         1 UNK         0.0600 
    208 H208       -6.9194  -26.8795  -44.6967 H         1 UNK         0.0600 
    209 H209       -5.7347  -28.1205  -45.0873 H         1 UNK         0.0600 
    210 H210       -6.3256  -25.8149  -49.2741 H         1 UNK         0.3000 
    211 H211       -3.9046  -24.7812  -48.0797 H         1 UNK         0.0600 
    212 H212       -4.7585  -22.3891  -48.3220 H         1 UNK         0.0600 
    213 H213       -5.4799  -23.2274  -46.9636 H         1 UNK         0.0600 
    214 H214       -6.3913  -23.0168  -48.4565 H         1 UNK         0.0600 
    215 H215       -2.5434  -24.2168  -49.6888 H         1 UNK         0.3000 
    216 H216       -3.4202  -24.4440  -52.5049 H         1 UNK         0.0600 
    217 H217       -0.6741  -24.0386  -51.2044 H         1 UNK         0.0600 
    218 H218       -0.9620  -24.1723  -52.9357 H         1 UNK         0.0600 
    219 H219       -1.3077  -25.5330  -51.8799 H         1 UNK         0.0600 
    220 H220       -2.8585  -22.0552  -50.0493 H         1 UNK         0.3000 
    221 H221       -2.2821  -19.7330  -51.4825 H         1 UNK         0.0600 
    222 H222       -2.2399  -19.8531  -49.0102 H         1 UNK         0.0600 
    223 H223       -3.9845  -20.0924  -48.9574 H         1 UNK         0.0600 
    224 H224       -3.3211  -18.5673  -49.5218 H         1 UNK         0.0600 
    225 H225       -5.4114  -21.3401  -51.0018 H         1 UNK         0.3000 
    226 H226       -7.1220  -19.3339  -52.0342 H         1 UNK         0.0600 
    227 H227       -7.4450  -22.3838  -51.9378 H         1 UNK         0.0600 
    228 H228       -7.9209  -21.2479  -50.6755 H         1 UNK         0.0600 
    229 H229       -8.7461  -21.2338  -52.2260 H         1 UNK         0.0600 
    230 H230       -5.1461  -21.7724  -53.6851 H         1 UNK         0.3000 
    231 H231       -6.3540  -21.2409  -56.3249 H         1 UNK         0.0600 
    232 H232       -3.9903  -23.0072  -55.4948 H         1 UNK         0.0600 
    233 H233       -4.7059  -22.9237  -57.0988 H         1 UNK         0.0600 
    234 H234       -5.6458  -23.5539  -55.7549 H         1 UNK         0.0600 
    235 H235       -3.3741  -20.5605  -54.4763 H         1 UNK         0.3000 
    236 H236       -1.8996  -19.3805  -56.5820 H         1 UNK         0.0600 
    237 H237       -1.6187  -18.9926  -53.5672 H         1 UNK         0.0600 
    238 H238       -0.9120  -20.3260  -54.4840 H         1 UNK         0.0600 
    239 H239       -0.3728  -18.6743  -54.7646 H         1 UNK         0.0600 
    240 H240       -3.9170  -17.8348  -54.0111 H         1 UNK         0.3000 
    241 H241       -3.9159  -15.3134  -55.5703 H         1 UNK         0.0600 
    242 H242       -7.3783  -16.5581  -54.2629 H         1 UNK         0.3800 
    243 H243       -6.0331  -17.6145  -54.5802 H         1 UNK         0.3800 
    244 H244       -2.1267  -15.1004  -53.8900 H         1 UNK         0.0800 
    245 H245       -3.4143  -13.9606  -53.6259 H         1 UNK         0.0800 
    246 H246       -2.0479  -14.7736  -50.0168 H         1 UNK         0.0800 
    247 H247       -1.8124  -13.7830  -51.4317 H         1 UNK         0.0800 
@<TRIPOS>BOND
     1    1    2 1    
     2    1  127 1    
     3    1  128 1    
     4    1  129 1    
     5    2    3 2    
     6    2    4 am   BACKBONE|DICT|INTERRES
     7    4    5 1    
     8    4  130 1    
     9    5    6 1    
    10    5   65 1    
    11    5  131 1    
    12    6    7 1    
    13    6  132 1    
    14    6  133 1    
    15    7    8 1    
    16    8    9 1    
    17    8  134 1    
    18    8  135 1    
    19    9   10 ar   
    20    9   14 ar   
    21   10   11 ar   
    22   10  136 1    
    23   11   12 ar   
    24   11  126 1    
    25   12   13 ar   
    26   12  137 1    
    27   13   14 ar   
    28   13   15 1    
    29   14  138 1    
    30   15   16 1    
    31   15  139 1    
    32   15  140 1    
    33   16   17 1    
    34   17   18 1    
    35   17  141 1    
    36   17  142 1    
    37   18   19 1    
    38   18   67 1    
    39   18  143 1    
    40   19   20 am   BACKBONE|DICT|INTERRES
    41   19  144 1    
    42   20   21 2    
    43   20   22 1    
    44   22   23 1    
    45   22   24 1    
    46   22  145 1    
    47   23  146 1    
    48   23  147 1    
    49   23  148 1    
    50   24   25 am   BACKBONE|DICT|INTERRES
    51   24  149 1    
    52   25   26 2    
    53   25   27 1    
    54   27   28 1    
    55   27   29 1    
    56   27  150 1    
    57   28  151 1    
    58   28  152 1    
    59   28  153 1    
    60   29   30 am   BACKBONE|DICT|INTERRES
    61   29  154 1    
    62   30   31 2    
    63   30   32 1    
    64   32   33 1    
    65   32   34 1    
    66   32  155 1    
    67   33  156 1    
    68   33  157 1    
    69   33  158 1    
    70   34   35 am   BACKBONE|DICT|INTERRES
    71   34  159 1    
    72   35   36 2    
    73   35   37 1    
    74   37   38 1    
    75   37   39 1    
    76   37  160 1    
    77   38  161 1    
    78   38  162 1    
    79   38  163 1    
    80   39   40 am   BACKBONE|DICT|INTERRES
    81   39  164 1    
    82   40   41 2    
    83   40   42 1    
    84   42   43 1    
    85   42   44 1    
    86   42  165 1    
    87   43  166 1    
    88   43  167 1    
    89   43  168 1    
    90   44   45 am   BACKBONE|DICT|INTERRES
    91   44  169 1    
    92   45   46 2    
    93   45   47 1    
    94   47   48 1    
    95   47   49 1    
    96   47  170 1    
    97   48  171 1    
    98   48  172 1    
    99   48  173 1    
   100   49   50 am   BACKBONE|DICT|INTERRES
   101   49  174 1    
   102   50   51 2    
   103   50   52 1    
   104   52   53 1    
   105   52   54 1    
   106   52  175 1    
   107   53  176 1    
   108   53  177 1    
   109   53  178 1    
   110   54   55 am   BACKBONE|DICT|INTERRES
   111   54  179 1    
   112   55   56 2    
   113   55   57 1    
   114   57   58 1    
   115   57   59 1    
   116   57  180 1    
   117   58  181 1    
   118   58  182 1    
   119   58  183 1    
   120   59   60 am   BACKBONE|DICT|INTERRES
   121   59  184 1    
   122   60   61 2    
   123   60   62 1    
   124   62   63 1    
   125   62   64 1    
   126   62  185 1    
   127   63  186 1    
   128   63  187 1    
   129   63  188 1    
   130   64   65 am   BACKBONE|DICT|INTERRES
   131   64  189 1    
   132   65   66 2    
   133   67   68 2    
   134   67   69 am   BACKBONE|DICT|INTERRES
   135   69   70 1    
   136   69  190 1    
   137   70   71 1    
   138   70   72 1    
   139   70  191 1    
   140   71  192 1    
   141   71  193 1    
   142   71  194 1    
   143   72   73 2    
   144   72   74 am   BACKBONE|DICT|INTERRES
   145   74   75 1    
   146   74  195 1    
   147   75   76 1    
   148   75   77 1    
   149   75  196 1    
   150   76  197 1    
   151   76  198 1    
   152   76  199 1    
   153   77   78 2    
   154   77   79 am   BACKBONE|DICT|INTERRES
   155   79   80 1    
   156   79  200 1    
   157   80   81 1    
   158   80   82 1    
   159   80  201 1    
   160   81  202 1    
   161   81  203 1    
   162   81  204 1    
   163   82   83 2    
   164   82   84 am   BACKBONE|DICT|INTERRES
   165   84   85 1    
   166   84  205 1    
   167   85   86 1    
   168   85   87 1    
   169   85  206 1    
   170   86  207 1    
   171   86  208 1    
   172   86  209 1    
   173   87   88 2    
   174   87   89 am   BACKBONE|DICT|INTERRES
   175   89   90 1    
   176   89  210 1    
   177   90   91 1    
   178   90   92 1    
   179   90  211 1    
   180   91  212 1    
   181   91  213 1    
   182   91  214 1    
   183   92   93 2    
   184   92   94 am   BACKBONE|DICT|INTERRES
   185   94   95 1    
   186   94  215 1    
   187   95   96 1    
   188   95   97 1    
   189   95  216 1    
   190   96  217 1    
   191   96  218 1    
   192   96  219 1    
   193   97   98 2    
   194   97   99 am   BACKBONE|DICT|INTERRES
   195   99  100 1    
   196   99  220 1    
   197  100  101 1    
   198  100  102 1    
   199  100  221 1    
   200  101  222 1    
   201  101  223 1    
   202  101  224 1    
   203  102  103 2    
   204  102  104 am   BACKBONE|DICT|INTERRES
   205  104  105 1    
   206  104  225 1    
   207  105  106 1    
   208  105  107 1    
   209  105  226 1    
   210  106  227 1    
   211  106  228 1    
   212  106  229 1    
   213  107  108 2    
   214  107  109 am   BACKBONE|DICT|INTERRES
   215  109  110 1    
   216  109  230 1    
   217  110  111 1    
   218  110  112 1    
   219  110  231 1    
   220  111  232 1    
   221  111  233 1    
   222  111  234 1    
   223  112  113 2    
   224  112  114 am   BACKBONE|DICT|INTERRES
   225  114  115 1    
   226  114  235 1    
   227  115  116 1    
   228  115  117 1    
   229  115  236 1    
   230  116  237 1    
   231  116  238 1    
   232  116  239 1    
   233  117  118 2    
   234  117  119 am   BACKBONE|DICT|INTERRES
   235  119  120 1    
   236  119  240 1    
   237  120  121 1    
   238  120  124 1    
   239  120  241 1    
   240  121  122 am   BACKBONE|DICT|INTERRES
   241  121  123 2    
   242  122  242 1    
   243  122  243 1    
   244  124  125 1    
   245  124  244 1    
   246  124  245 1    
   247  125  126 1    
   248  126  246 1    
   249  126  247 1    
@<TRIPOS>SUBSTRUCTURE
     1 UNK         1 GROUP             0       ****    0 ROOT    
