@<TRIPOS>MOLECULE
3R540
247   249    1
SMALL
USER_CHARGES


@<TRIPOS>ATOM
      1 CA          2.8421   -9.5669  -51.1898 C.3       0 UNK        -0.1800 
      2 C           2.5077  -10.5302  -50.0595 C.2       0 UNK         0.5000 
      3 O           1.5527  -10.2877  -49.3239 O.2       0 UNK        -0.5000 
      4 N           3.3099  -11.5969  -49.9208 N.am      1 UNK        -0.5000 
      5 CA          3.2059  -12.7204  -48.9710 C.3       1 UNK         0.1400 
      6 C6          2.1622  -13.7998  -49.3735 C.3       23 UNK        -0.0398 
      7 S7          0.4058  -13.3210  -49.2002 S.3       23 UNK        -0.2404 
      8 C8         -0.2541  -13.7372  -50.8445 C.3       23 UNK        -0.0205 
      9 C9         -0.2476  -15.2388  -51.0881 C.ar      23 UNK        -0.0193 
     10 C10         0.5968  -15.7983  -52.0526 C.ar      23 UNK        -0.1150 
     11 C11         0.5997  -17.1784  -52.2762 C.ar      23 UNK        -0.0193 
     12 C12        -0.2348  -17.9998  -51.5136 C.ar      23 UNK        -0.1150 
     13 C13        -1.0887  -17.4507  -50.5550 C.ar      23 UNK        -0.0193 
     14 C14        -1.0950  -16.0695  -50.3492 C.ar      23 UNK        -0.1150 
     15 C15        -2.0130  -18.3495  -49.7555 C.3       23 UNK        -0.0205 
     16 S16        -1.3542  -18.6608  -48.0888 S.3       23 UNK        -0.2404 
     17 C17        -2.4689  -19.9943  -47.5466 C.3       23 UNK        -0.0398 
     18 CA         -1.6985  -21.2852  -47.1893 C.3       11 UNK         0.1400 
     19 N          -0.7795  -21.1004  -46.0639 N.am      11 UNK        -0.5000 
     20 C           0.1327  -21.9969  -45.6631 C.2       10 UNK         0.5000 
     21 O           0.3301  -23.0726  -46.2251 O.2       10 UNK        -0.5000 
     22 CA          0.9085  -21.6578  -44.3804 C.3       10 UNK         0.1400 
     23 CB          2.1324  -20.7867  -44.6971 C.3       10 UNK        -0.1800 
     24 N           0.0466  -20.9917  -43.4019 N.am      10 UNK        -0.5000 
     25 C          -0.9297  -21.6245  -42.7319 C.2       9 UNK         0.5000 
     26 O          -1.1551  -22.8303  -42.8387 O.2       9 UNK        -0.5000 
     27 CA         -1.8429  -20.7674  -41.8380 C.3       9 UNK         0.1400 
     28 CB         -1.2601  -20.6578  -40.4226 C.3       9 UNK        -0.1800 
     29 N          -2.0847  -19.4345  -42.3976 N.am      9 UNK        -0.5000 
     30 C          -2.8064  -19.2220  -43.5095 C.2       8 UNK         0.5000 
     31 O          -3.3447  -20.1370  -44.1334 O.2       8 UNK        -0.5000 
     32 CA         -2.9070  -17.7889  -44.0716 C.3       8 UNK         0.1400 
     33 CB         -4.3463  -17.4157  -44.4805 C.3       8 UNK        -0.1800 
     34 N          -2.2882  -16.7602  -43.2317 N.am      8 UNK        -0.5000 
     35 C          -2.7123  -16.2512  -42.0663 C.2       7 UNK         0.5000 
     36 O          -3.7768  -16.5507  -41.5244 O.2       7 UNK        -0.5000 
     37 CA         -1.7405  -15.2527  -41.3942 C.3       7 UNK         0.1400 
     38 CB         -2.0519  -15.0168  -39.9012 C.3       7 UNK        -0.1800 
     39 N          -0.3290  -15.6245  -41.5852 N.am      7 UNK        -0.5000 
     40 C           0.2515  -16.7688  -41.1897 C.2       6 UNK         0.5000 
     41 O          -0.3358  -17.6411  -40.5515 O.2       6 UNK        -0.5000 
     42 CA          1.7055  -16.9940  -41.6536 C.3       6 UNK         0.1400 
     43 CB          2.2226  -18.4144  -41.3460 C.3       6 UNK        -0.1800 
     44 N           1.8981  -16.6807  -43.0743 N.am      6 UNK        -0.5000 
     45 C           1.2434  -17.2059  -44.1229 C.2       5 UNK         0.5000 
     46 O           0.3547  -18.0532  -44.0194 O.2       5 UNK        -0.5000 
     47 CA          1.6166  -16.6850  -45.5257 C.3       5 UNK         0.1400 
     48 CB          0.5257  -15.7363  -46.0433 C.3       5 UNK        -0.1800 
     49 N           2.9121  -16.0005  -45.5711 N.am      5 UNK        -0.5000 
     50 C           4.0949  -16.6262  -45.4820 C.2       4 UNK         0.5000 
     51 O           4.2161  -17.8501  -45.4242 O.2       4 UNK        -0.5000 
     52 CA          5.3547  -15.7420  -45.4163 C.3       4 UNK         0.1400 
     53 CB          5.8649  -15.4293  -46.8311 C.3       4 UNK        -0.1800 
     54 N           5.1700  -14.4851  -44.6872 N.am      4 UNK        -0.5000 
     55 C           4.8104  -14.3508  -43.4041 C.2       3 UNK         0.5000 
     56 O           4.5416  -15.3035  -42.6731 O.2       3 UNK        -0.5000 
     57 CA          4.6913  -12.9194  -42.8374 C.3       3 UNK         0.1400 
     58 CB          6.0298  -12.4420  -42.2427 C.3       3 UNK        -0.1800 
     59 N           4.1295  -11.9378  -43.7773 N.am      3 UNK        -0.5000 
     60 C           4.6604  -11.4664  -44.9130 C.2       2 UNK         0.5000 
     61 O           5.7890  -11.7477  -45.3227 O.2       2 UNK        -0.5000 
     62 CA          3.7395  -10.5913  -45.7798 C.3       2 UNK         0.1400 
     63 CB          4.2538   -9.1451  -45.8434 C.3       2 UNK        -0.1800 
     64 N           3.6287  -11.1238  -47.1377 N.am      2 UNK        -0.5000 
     65 C           3.1730  -12.3417  -47.4691 C.2       1 UNK         0.5000 
     66 O           2.7839  -13.1682  -46.6390 O.2       1 UNK        -0.5000 
     67 C          -2.6812  -22.4441  -46.9387 C.2       11 UNK         0.5000 
     68 O          -2.9611  -23.2050  -47.8648 O.2       11 UNK        -0.5000 
     69 N          -3.1745  -22.5708  -45.7000 N.am      12 UNK        -0.5000 
     70 CA         -4.0160  -23.6800  -45.2571 C.3       12 UNK         0.1400 
     71 CB         -4.6133  -23.3577  -43.8795 C.3       12 UNK        -0.1800 
     72 C          -3.2510  -25.0152  -45.2345 C.2       12 UNK         0.5000 
     73 O          -3.7680  -26.0128  -45.7369 O.2       12 UNK        -0.5000 
     74 N          -2.0244  -25.0027  -44.6916 N.am      13 UNK        -0.5000 
     75 CA         -1.1362  -26.1658  -44.6094 C.3       13 UNK         0.1400 
     76 CB          0.0838  -25.8198  -43.7426 C.3       13 UNK        -0.1800 
     77 C          -0.6921  -26.6929  -45.9872 C.2       13 UNK         0.5000 
     78 O          -0.6697  -27.9064  -46.1955 O.2       13 UNK        -0.5000 
     79 N          -0.3728  -25.7745  -46.9089 N.am      14 UNK        -0.5000 
     80 CA          0.0051  -26.0750  -48.2922 C.3       14 UNK         0.1400 
     81 CB          0.7404  -24.8574  -48.8757 C.3       14 UNK        -0.1800 
     82 C          -1.1909  -26.4461  -49.1922 C.2       14 UNK         0.5000 
     83 O          -0.9742  -26.9231  -50.3063 O.2       14 UNK        -0.5000 
     84 N          -2.4169  -26.1795  -48.7165 N.am      15 UNK        -0.5000 
     85 CA         -3.7031  -26.2866  -49.4166 C.3       15 UNK         0.1400 
     86 CB         -3.9876  -27.7309  -49.8754 C.3       15 UNK        -0.1800 
     87 C          -3.8746  -25.2573  -50.5549 C.2       15 UNK         0.5000 
     88 O          -4.8058  -25.3743  -51.3524 O.2       15 UNK        -0.5000 
     89 N          -3.0207  -24.2247  -50.5757 N.am      16 UNK        -0.5000 
     90 CA         -3.0967  -23.0775  -51.4780 C.3       16 UNK         0.1400 
     91 CB         -1.8280  -22.2245  -51.3309 C.3       16 UNK        -0.1800 
     92 C          -4.3532  -22.2272  -51.2285 C.2       16 UNK         0.5000 
     93 O          -4.9162  -21.6946  -52.1827 O.2       16 UNK        -0.5000 
     94 N          -4.7990  -22.1611  -49.9644 N.am      17 UNK        -0.5000 
     95 CA         -6.0512  -21.5176  -49.5607 C.3       17 UNK         0.1400 
     96 CB         -6.1216  -21.4399  -48.0270 C.3       17 UNK        -0.1800 
     97 C          -7.2941  -22.2416  -50.1123 C.2       17 UNK         0.5000 
     98 O          -8.2529  -21.5819  -50.5124 O.2       17 UNK        -0.5000 
     99 N          -7.2457  -23.5813  -50.1375 N.am      18 UNK        -0.5000 
    100 CA        -8.3072  -24.4393  -50.6658 C.3       18 UNK         0.1400 
    101 CB        -8.1255  -25.8683  -50.1303 C.3       18 UNK        -0.1800 
    102 C         -8.3431  -24.4277  -52.2037 C.2       18 UNK         0.5000 
    103 O         -9.4260  -24.3819  -52.7882 O.2       18 UNK        -0.5000 
    104 N         -7.1574  -24.4436  -52.8279 N.am      19 UNK        -0.5000 
    105 CA        -6.9747  -24.3582  -54.2781 C.3       19 UNK         0.1400 
    106 CB        -5.5361  -24.7799  -54.6163 C.3       19 UNK        -0.1800 
    107 C         -7.2625  -22.9574  -54.8557 C.2       19 UNK         0.5000 
    108 O         -7.4981  -22.8441  -56.0592 O.2       19 UNK        -0.5000 
    109 N         -7.2064  -21.9268  -53.9980 N.am      20 UNK        -0.5000 
    110 CA        -7.2453  -20.4943  -54.3117 C.3       20 UNK         0.1400 
    111 CB        -8.6107  -20.0854  -54.9023 C.3       20 UNK        -0.1800 
    112 C         -6.0426  -20.0685  -55.1817 C.2       20 UNK         0.5000 
    113 O         -6.1930  -19.2877  -56.1237 O.2       20 UNK        -0.5000 
    114 N         -4.8682  -20.6198  -54.8544 N.am      21 UNK        -0.5000 
    115 CA        -3.6046  -20.3783  -55.5390 C.3       21 UNK         0.1400 
    116 CB        -2.7284  -21.6352  -55.4210 C.3       21 UNK        -0.1800 
    117 C         -2.8970  -19.1638  -54.9211 C.2       21 UNK         0.5000 
    118 O         -2.7887  -19.0946  -53.6952 O.2       21 UNK        -0.5000 
    119 N         -2.4315  -18.2559  -55.7902 N.am      22 UNK        -0.5000 
    120 CA        -1.6397  -17.0244  -55.5645 C.3       22 UNK         0.1400 
    121 C         -2.0692  -16.0160  -54.4521 C.2       22 UNK         0.5000 
    122 N         -2.9372  -16.3637  -53.5166 N.am      22 UNK        -0.7600 
    123 O         -1.6425  -14.8645  -54.4801 O.2       22 UNK        -0.5000 
    124 C124       -0.0978  -17.2493  -55.6272 C.3       23 UNK        -0.0398 
    125 S125        0.5678  -18.6385  -54.6419 S.3       23 UNK        -0.2404 
    126 C126        1.5078  -17.7903  -53.3316 C.3       23 UNK        -0.0205 
    127 H127        3.7166   -9.8896  -51.7553 H         1 UNK         0.0600 
    128 H128        3.0442   -8.5734  -50.7892 H         1 UNK         0.0600 
    129 H129        2.0009   -9.4927  -51.8791 H         1 UNK         0.0600 
    130 H130        4.0846  -11.6790  -50.5647 H         1 UNK         0.3000 
    131 H131        4.1734  -13.2142  -49.0720 H         1 UNK         0.0600 
    132 H132        2.3520  -14.0991  -50.4042 H         1 UNK         0.0800 
    133 H133        2.3168  -14.7057  -48.7852 H         1 UNK         0.0800 
    134 H134        0.3176  -13.2103  -51.6101 H         1 UNK         0.0800 
    135 H135       -1.2781  -13.3690  -50.9192 H         1 UNK         0.0800 
    136 H136        1.2438  -15.1583  -52.6354 H         1 UNK         0.1150 
    137 H137       -0.2340  -19.0672  -51.6848 H         1 UNK         0.1150 
    138 H138       -1.7507  -15.6411  -49.6042 H         1 UNK         0.1150 
    139 H139       -2.1546  -19.2948  -50.2819 H         1 UNK         0.0800 
    140 H140       -2.9991  -17.8894  -49.6773 H         1 UNK         0.0800 
    141 H141       -3.1883  -20.1938  -48.3419 H         1 UNK         0.0800 
    142 H142       -3.0524  -19.6352  -46.6990 H         1 UNK         0.0800 
    143 H143       -1.0925  -21.5674  -48.0523 H         1 UNK         0.0600 
    144 H144       -0.8702  -20.2416  -45.5421 H         1 UNK         0.3000 
    145 H145        1.2661  -22.5916  -43.9416 H         1 UNK         0.0600 
    146 H146        2.8483  -21.3371  -45.3085 H         1 UNK         0.0600 
    147 H147        2.6505  -20.4776  -43.7893 H         1 UNK         0.0600 
    148 H148        1.8605  -19.8902  -45.2527 H         1 UNK         0.0600 
    149 H149        0.1372  -19.9844  -43.3193 H         1 UNK         0.3000 
    150 H150       -2.8063  -21.2760  -41.7618 H         1 UNK         0.0600 
    151 H151       -0.2491  -20.2503  -40.4320 H         1 UNK         0.0600 
    152 H152       -1.2085  -21.6390  -39.9492 H         1 UNK         0.0600 
    153 H153       -1.8756  -20.0207  -39.7872 H         1 UNK         0.0600 
    154 H154       -1.6357  -18.6543  -41.9323 H         1 UNK         0.3000 
    155 H155       -2.3126  -17.8001  -44.9862 H         1 UNK         0.0600 
    156 H156       -5.0369  -17.4720  -43.6390 H         1 UNK         0.0600 
    157 H157       -4.7208  -18.0922  -45.2497 H         1 UNK         0.0600 
    158 H158       -4.3921  -16.4063  -44.8890 H         1 UNK         0.0600 
    159 H159       -1.3635  -16.4880  -43.5332 H         1 UNK         0.3000 
    160 H160       -1.8805  -14.3023  -41.9113 H         1 UNK         0.0600 
    161 H161       -2.0009  -15.9402  -39.3235 H         1 UNK         0.0600 
    162 H162       -3.0542  -14.6070  -39.7716 H         1 UNK         0.0600 
    163 H163       -1.3528  -14.3064  -39.4603 H         1 UNK         0.0600 
    164 H164        0.2295  -14.9714  -42.1166 H         1 UNK         0.3000 
    165 H165        2.3207  -16.2894  -41.0924 H         1 UNK         0.0600 
    166 H166        2.1902  -18.6193  -40.2754 H         1 UNK         0.0600 
    167 H167        1.6276  -19.1797  -41.8428 H         1 UNK         0.0600 
    168 H168        3.2570  -18.5337  -41.6686 H         1 UNK         0.0600 
    169 H169        2.6517  -16.0313  -43.2653 H         1 UNK         0.3000 
    170 H170        1.6556  -17.5483  -46.1932 H         1 UNK         0.0600 
    171 H171        0.7144  -15.4548  -47.0783 H         1 UNK         0.0600 
    172 H172        0.4697  -14.8216  -45.4521 H         1 UNK         0.0600 
    173 H173       -0.4562  -16.2106  -46.0175 H         1 UNK         0.0600 
    174 H174        2.8969  -14.9906  -45.6779 H         1 UNK         0.3000 
    175 H175        6.1258  -16.3105  -44.8928 H         1 UNK         0.0600 
    176 H176        6.0543  -16.3465  -47.3903 H         1 UNK         0.0600 
    177 H177        5.1410  -14.8431  -47.3973 H         1 UNK         0.0600 
    178 H178        6.7995  -14.8690  -46.7995 H         1 UNK         0.0600 
    179 H179        5.3855  -13.6304  -45.1909 H         1 UNK         0.3000 
    180 H180        3.9757  -12.9745  -42.0154 H         1 UNK         0.0600 
    181 H181        6.8220  -12.4040  -42.9906 H         1 UNK         0.0600 
    182 H182        6.3641  -13.1163  -41.4533 H         1 UNK         0.0600 
    183 H183        5.9345  -11.4492  -41.8030 H         1 UNK         0.0600 
    184 H184        3.1795  -11.6637  -43.5679 H         1 UNK         0.3000 
    185 H185        2.7378  -10.5822  -45.3456 H         1 UNK         0.0600 
    186 H186        4.3292   -8.7140  -44.8443 H         1 UNK         0.0600 
    187 H187        5.2424   -9.0888  -46.3010 H         1 UNK         0.0600 
    188 H188        3.5798   -8.5115  -46.4205 H         1 UNK         0.0600 
    189 H189        3.9446  -10.5223  -47.8834 H         1 UNK         0.3000 
    190 H190       -2.9737  -21.8489  -45.0146 H         1 UNK         0.3000 
    191 H191       -4.8405  -23.7829  -45.9651 H         1 UNK         0.0600 
    192 H192       -5.2010  -22.4400  -43.9113 H         1 UNK         0.0600 
    193 H193       -5.2749  -24.1574  -43.5445 H         1 UNK         0.0600 
    194 H194       -3.8401  -23.2319  -43.1217 H         1 UNK         0.0600 
    195 H195       -1.6886  -24.1469  -44.2608 H         1 UNK         0.3000 
    196 H196       -1.6869  -26.9669  -44.1121 H         1 UNK         0.0600 
    197 H197        0.7484  -26.6787  -43.6420 H         1 UNK         0.0600 
    198 H198       -0.2177  -25.5226  -42.7380 H         1 UNK         0.0600 
    199 H199        0.6644  -25.0036  -44.1729 H         1 UNK         0.0600 
    200 H200       -0.3435  -24.7948  -46.6360 H         1 UNK         0.3000 
    201 H201        0.6929  -26.9231  -48.2914 H         1 UNK         0.0600 
    202 H202        1.0759  -25.0502  -49.8955 H         1 UNK         0.0600 
    203 H203        1.6235  -24.6107  -48.2859 H         1 UNK         0.0600 
    204 H204        0.0990  -23.9753  -48.9018 H         1 UNK         0.0600 
    205 H205       -2.4727  -25.7824  -47.7877 H         1 UNK         0.3000 
    206 H206       -4.4588  -26.0289  -48.6734 H         1 UNK         0.0600 
    207 H207       -3.8569  -28.4376  -49.0559 H         1 UNK         0.0600 
    208 H208       -5.0141  -27.8323  -50.2293 H         1 UNK         0.0600 
    209 H209       -3.3333  -28.0362  -50.6921 H         1 UNK         0.0600 
    210 H210       -2.3546  -24.1626  -49.8185 H         1 UNK         0.3000 
    211 H211       -3.1430  -23.4543  -52.5011 H         1 UNK         0.0600 
    212 H212       -0.9349  -22.8007  -51.5731 H         1 UNK         0.0600 
    213 H213       -1.8534  -21.3654  -52.0033 H         1 UNK         0.0600 
    214 H214       -1.7157  -21.8417  -50.3171 H         1 UNK         0.0600 
    215 H215       -4.2644  -22.6336  -49.2425 H         1 UNK         0.3000 
    216 H216       -6.0540  -20.5001  -49.9574 H         1 UNK         0.0600 
    217 H217       -6.0579  -22.4280  -47.5710 H         1 UNK         0.0600 
    218 H218       -7.0608  -20.9904  -47.7021 H         1 UNK         0.0600 
    219 H219       -5.3195  -20.8287  -47.6176 H         1 UNK         0.0600 
    220 H220       -6.4047  -24.0412  -49.8246 H         1 UNK         0.3000 
    221 H221       -9.2674  -24.0639  -50.3052 H         1 UNK         0.0600 
    222 H222       -7.1828  -26.3086  -50.4557 H         1 UNK         0.0600 
    223 H223       -8.1458  -25.8867  -49.0405 H         1 UNK         0.0600 
    224 H224       -8.9277  -26.5190  -50.4807 H         1 UNK         0.0600 
    225 H225       -6.3155  -24.5636  -52.2718 H         1 UNK         0.3000 
    226 H226       -7.6609  -25.0615  -54.7543 H         1 UNK         0.0600 
    227 H227       -5.3236  -25.7864  -54.2555 H         1 UNK         0.0600 
    228 H228       -5.3697  -24.7781  -55.6943 H         1 UNK         0.0600 
    229 H229       -4.8062  -24.1033  -54.1709 H         1 UNK         0.0600 
    230 H230       -6.9432  -22.1426  -53.0454 H         1 UNK         0.3000 
    231 H231       -7.1303  -19.9739  -53.3597 H         1 UNK         0.0600 
    232 H232       -8.7723  -20.5125  -55.8923 H         1 UNK         0.0600 
    233 H233       -8.6827  -19.0017  -55.0001 H         1 UNK         0.0600 
    234 H234       -9.4295  -20.4083  -54.2593 H         1 UNK         0.0600 
    235 H235       -4.8201  -21.1530  -53.9901 H         1 UNK         0.3000 
    236 H236       -3.7942  -20.1935  -56.5987 H         1 UNK         0.0600 
    237 H237       -2.5051  -21.8741  -54.3811 H         1 UNK         0.0600 
    238 H238       -3.2191  -22.5013  -55.8656 H         1 UNK         0.0600 
    239 H239       -1.7774  -21.4967  -55.9367 H         1 UNK         0.0600 
    240 H240       -2.6264  -18.4310  -56.7652 H         1 UNK         0.3000 
    241 H241       -1.8682  -16.4525  -56.4651 H         1 UNK         0.0600 
    242 H242       -3.2060  -15.7032  -52.8071 H         1 UNK         0.3800 
    243 H243       -3.1586  -17.3517  -53.4205 H         1 UNK         0.3800 
    244 H244        0.1738  -17.4610  -56.6619 H         1 UNK         0.0800 
    245 H245        0.4437  -16.3340  -55.3822 H         1 UNK         0.0800 
    246 H246        2.1629  -18.5157  -52.8476 H         1 UNK         0.0800 
    247 H247        2.1612  -17.0387  -53.7772 H         1 UNK         0.0800 
@<TRIPOS>BOND
     1    1    2 1    
     2    1  127 1    
     3    1  128 1    
     4    1  129 1    
     5    2    3 2    
     6    2    4 am   BACKBONE|DICT|INTERRES
     7    4    5 1    
     8    4  130 1    
     9    5    6 1    
    10    5   65 1    
    11    5  131 1    
    12    6    7 1    
    13    6  132 1    
    14    6  133 1    
    15    7    8 1    
    16    8    9 1    
    17    8  134 1    
    18    8  135 1    
    19    9   10 ar   
    20    9   14 ar   
    21   10   11 ar   
    22   10  136 1    
    23   11   12 ar   
    24   11  126 1    
    25   12   13 ar   
    26   12  137 1    
    27   13   14 ar   
    28   13   15 1    
    29   14  138 1    
    30   15   16 1    
    31   15  139 1    
    32   15  140 1    
    33   16   17 1    
    34   17   18 1    
    35   17  141 1    
    36   17  142 1    
    37   18   19 1    
    38   18   67 1    
    39   18  143 1    
    40   19   20 am   BACKBONE|DICT|INTERRES
    41   19  144 1    
    42   20   21 2    
    43   20   22 1    
    44   22   23 1    
    45   22   24 1    
    46   22  145 1    
    47   23  146 1    
    48   23  147 1    
    49   23  148 1    
    50   24   25 am   BACKBONE|DICT|INTERRES
    51   24  149 1    
    52   25   26 2    
    53   25   27 1    
    54   27   28 1    
    55   27   29 1    
    56   27  150 1    
    57   28  151 1    
    58   28  152 1    
    59   28  153 1    
    60   29   30 am   BACKBONE|DICT|INTERRES
    61   29  154 1    
    62   30   31 2    
    63   30   32 1    
    64   32   33 1    
    65   32   34 1    
    66   32  155 1    
    67   33  156 1    
    68   33  157 1    
    69   33  158 1    
    70   34   35 am   BACKBONE|DICT|INTERRES
    71   34  159 1    
    72   35   36 2    
    73   35   37 1    
    74   37   38 1    
    75   37   39 1    
    76   37  160 1    
    77   38  161 1    
    78   38  162 1    
    79   38  163 1    
    80   39   40 am   BACKBONE|DICT|INTERRES
    81   39  164 1    
    82   40   41 2    
    83   40   42 1    
    84   42   43 1    
    85   42   44 1    
    86   42  165 1    
    87   43  166 1    
    88   43  167 1    
    89   43  168 1    
    90   44   45 am   BACKBONE|DICT|INTERRES
    91   44  169 1    
    92   45   46 2    
    93   45   47 1    
    94   47   48 1    
    95   47   49 1    
    96   47  170 1    
    97   48  171 1    
    98   48  172 1    
    99   48  173 1    
   100   49   50 am   BACKBONE|DICT|INTERRES
   101   49  174 1    
   102   50   51 2    
   103   50   52 1    
   104   52   53 1    
   105   52   54 1    
   106   52  175 1    
   107   53  176 1    
   108   53  177 1    
   109   53  178 1    
   110   54   55 am   BACKBONE|DICT|INTERRES
   111   54  179 1    
   112   55   56 2    
   113   55   57 1    
   114   57   58 1    
   115   57   59 1    
   116   57  180 1    
   117   58  181 1    
   118   58  182 1    
   119   58  183 1    
   120   59   60 am   BACKBONE|DICT|INTERRES
   121   59  184 1    
   122   60   61 2    
   123   60   62 1    
   124   62   63 1    
   125   62   64 1    
   126   62  185 1    
   127   63  186 1    
   128   63  187 1    
   129   63  188 1    
   130   64   65 am   BACKBONE|DICT|INTERRES
   131   64  189 1    
   132   65   66 2    
   133   67   68 2    
   134   67   69 am   BACKBONE|DICT|INTERRES
   135   69   70 1    
   136   69  190 1    
   137   70   71 1    
   138   70   72 1    
   139   70  191 1    
   140   71  192 1    
   141   71  193 1    
   142   71  194 1    
   143   72   73 2    
   144   72   74 am   BACKBONE|DICT|INTERRES
   145   74   75 1    
   146   74  195 1    
   147   75   76 1    
   148   75   77 1    
   149   75  196 1    
   150   76  197 1    
   151   76  198 1    
   152   76  199 1    
   153   77   78 2    
   154   77   79 am   BACKBONE|DICT|INTERRES
   155   79   80 1    
   156   79  200 1    
   157   80   81 1    
   158   80   82 1    
   159   80  201 1    
   160   81  202 1    
   161   81  203 1    
   162   81  204 1    
   163   82   83 2    
   164   82   84 am   BACKBONE|DICT|INTERRES
   165   84   85 1    
   166   84  205 1    
   167   85   86 1    
   168   85   87 1    
   169   85  206 1    
   170   86  207 1    
   171   86  208 1    
   172   86  209 1    
   173   87   88 2    
   174   87   89 am   BACKBONE|DICT|INTERRES
   175   89   90 1    
   176   89  210 1    
   177   90   91 1    
   178   90   92 1    
   179   90  211 1    
   180   91  212 1    
   181   91  213 1    
   182   91  214 1    
   183   92   93 2    
   184   92   94 am   BACKBONE|DICT|INTERRES
   185   94   95 1    
   186   94  215 1    
   187   95   96 1    
   188   95   97 1    
   189   95  216 1    
   190   96  217 1    
   191   96  218 1    
   192   96  219 1    
   193   97   98 2    
   194   97   99 am   BACKBONE|DICT|INTERRES
   195   99  100 1    
   196   99  220 1    
   197  100  101 1    
   198  100  102 1    
   199  100  221 1    
   200  101  222 1    
   201  101  223 1    
   202  101  224 1    
   203  102  103 2    
   204  102  104 am   BACKBONE|DICT|INTERRES
   205  104  105 1    
   206  104  225 1    
   207  105  106 1    
   208  105  107 1    
   209  105  226 1    
   210  106  227 1    
   211  106  228 1    
   212  106  229 1    
   213  107  108 2    
   214  107  109 am   BACKBONE|DICT|INTERRES
   215  109  110 1    
   216  109  230 1    
   217  110  111 1    
   218  110  112 1    
   219  110  231 1    
   220  111  232 1    
   221  111  233 1    
   222  111  234 1    
   223  112  113 2    
   224  112  114 am   BACKBONE|DICT|INTERRES
   225  114  115 1    
   226  114  235 1    
   227  115  116 1    
   228  115  117 1    
   229  115  236 1    
   230  116  237 1    
   231  116  238 1    
   232  116  239 1    
   233  117  118 2    
   234  117  119 am   BACKBONE|DICT|INTERRES
   235  119  120 1    
   236  119  240 1    
   237  120  121 1    
   238  120  124 1    
   239  120  241 1    
   240  121  122 am   BACKBONE|DICT|INTERRES
   241  121  123 2    
   242  122  242 1    
   243  122  243 1    
   244  124  125 1    
   245  124  244 1    
   246  124  245 1    
   247  125  126 1    
   248  126  246 1    
   249  126  247 1    
@<TRIPOS>SUBSTRUCTURE
     1 UNK         1 GROUP             0       ****    0 ROOT    
