@<TRIPOS>MOLECULE
3R540
247   249    1
SMALL
USER_CHARGES


@<TRIPOS>ATOM
      1 CA         -0.0254  -13.3382  -44.4766 C.3       0 UNK        -0.1800 
      2 C          -0.5302  -12.9591  -45.8605 C.2       0 UNK         0.5000 
      3 O          -1.7316  -12.7573  -46.0449 O.2       0 UNK        -0.5000 
      4 N           0.3812  -12.8495  -46.8359 N.am      1 UNK        -0.5000 
      5 CA          0.0831  -12.6350  -48.2588 C.3       1 UNK         0.1400 
      6 C6          1.3413  -12.7522  -49.1513 C.3       23 UNK        -0.0398 
      7 S7          2.2243  -14.3373  -48.9699 S.3       23 UNK        -0.2404 
      8 C8          0.9634  -15.5039  -49.5657 C.3       23 UNK        -0.0205 
      9 C9          1.5930  -16.8163  -49.9942 C.ar      23 UNK        -0.0193 
     10 C10         2.0702  -16.9620  -51.2990 C.ar      23 UNK        -0.1150 
     11 C11         2.6377  -18.1692  -51.7236 C.ar      23 UNK        -0.0193 
     12 C12         2.7292  -19.2275  -50.8129 C.ar      23 UNK        -0.1150 
     13 C13         2.2612  -19.0935  -49.5015 C.ar      23 UNK        -0.0193 
     14 C14         1.6948  -17.8824  -49.0973 C.ar      23 UNK        -0.1150 
     15 C15         2.3833  -20.2548  -48.5260 C.3       23 UNK        -0.0205 
     16 S16         1.1759  -21.5636  -48.9064 S.3       23 UNK        -0.2404 
     17 C17         0.1347  -21.6525  -47.4095 C.3       23 UNK        -0.0398 
     18 CA         -0.0599  -23.1160  -46.9565 C.3       11 UNK         0.1400 
     19 N           1.1822  -23.7452  -46.5107 N.am      11 UNK        -0.5000 
     20 C           1.4256  -25.0606  -46.5867 C.2       10 UNK         0.5000 
     21 O           0.6452  -25.8741  -47.0812 O.2       10 UNK        -0.5000 
     22 CA          2.7479  -25.5527  -45.9687 C.3       10 UNK         0.1400 
     23 CB          3.8852  -25.4709  -46.9977 C.3       10 UNK        -0.1800 
     24 N           3.1269  -24.7998  -44.7711 N.am      10 UNK        -0.5000 
     25 C           2.4188  -24.7757  -43.6334 C.2       9 UNK         0.5000 
     26 O           1.3936  -25.4335  -43.4548 O.2       9 UNK        -0.5000 
     27 CA          2.9048  -23.8134  -42.5331 C.3       9 UNK         0.1400 
     28 CB          3.8642  -24.5362  -41.5765 C.3       9 UNK        -0.1800 
     29 N           3.5521  -22.5987  -43.0409 N.am      9 UNK        -0.5000 
     30 C           2.9751  -21.6776  -43.8244 C.2       8 UNK         0.5000 
     31 O           1.8320  -21.7760  -44.2829 O.2       8 UNK        -0.5000 
     32 CA          3.8437  -20.4691  -44.1951 C.3       8 UNK         0.1400 
     33 CB          4.7383  -20.7954  -45.4022 C.3       8 UNK        -0.1800 
     34 N           2.9771  -19.3418  -44.5211 N.am      8 UNK        -0.5000 
     35 C           3.2245  -18.0585  -44.2290 C.2       7 UNK         0.5000 
     36 O           4.2605  -17.6759  -43.6836 O.2       7 UNK        -0.5000 
     37 CA          2.1499  -17.0157  -44.6090 C.3       7 UNK         0.1400 
     38 CB          2.6618  -16.0925  -45.7253 C.3       7 UNK        -0.1800 
     39 N           0.8789  -17.6014  -45.0399 N.am      7 UNK        -0.5000 
     40 C          -0.0270  -18.1607  -44.2311 C.2       6 UNK         0.5000 
     41 O           0.0897  -18.2186  -43.0064 O.2       6 UNK        -0.5000 
     42 CA         -1.2691  -18.7548  -44.9229 C.3       6 UNK         0.1400 
     43 CB         -1.7937  -19.9878  -44.1750 C.3       6 UNK        -0.1800 
     44 N          -2.3540  -17.7873  -45.0524 N.am      6 UNK        -0.5000 
     45 C          -2.3315  -16.6863  -45.8119 C.2       5 UNK         0.5000 
     46 O          -1.3746  -16.3571  -46.5177 O.2       5 UNK        -0.5000 
     47 CA         -3.5971  -15.8160  -45.7489 C.3       5 UNK         0.1400 
     48 CB         -3.7023  -15.0937  -44.3954 C.3       5 UNK        -0.1800 
     49 N          -3.5969  -14.8144  -46.8072 N.am      5 UNK        -0.5000 
     50 C          -4.0804  -14.9904  -48.0429 C.2       4 UNK         0.5000 
     51 O          -4.5987  -16.0398  -48.4266 O.2       4 UNK        -0.5000 
     52 CA         -3.9736  -13.7811  -49.0014 C.3       4 UNK         0.1400 
     53 CB         -5.0304  -13.8091  -50.1248 C.3       4 UNK        -0.1800 
     54 N          -3.9826  -12.4876  -48.3034 N.am      4 UNK        -0.5000 
     55 C          -4.9453  -11.9902  -47.5081 C.2       3 UNK         0.5000 
     56 O          -6.0494  -12.5160  -47.3620 O.2       3 UNK        -0.5000 
     57 CA         -4.6116  -10.7146  -46.7056 C.3       3 UNK         0.1400 
     58 CB         -4.8478  -10.9432  -45.2024 C.3       3 UNK        -0.1800 
     59 N          -3.2175  -10.3076  -46.8871 N.am      3 UNK        -0.5000 
     60 C          -2.8013   -9.2270  -47.5608 C.2       2 UNK         0.5000 
     61 O          -3.5601   -8.3959  -48.0606 O.2       2 UNK        -0.5000 
     62 CA         -1.2756   -9.0532  -47.7261 C.3       2 UNK         0.1400 
     63 CB         -0.7234   -8.1098  -46.6467 C.3       2 UNK        -0.1800 
     64 N          -0.5308  -10.3156  -47.6799 N.am      2 UNK        -0.5000 
     65 C          -0.6645  -11.3196  -48.5584 C.2       1 UNK         0.5000 
     66 O          -1.3955  -11.2624  -49.5468 O.2       1 UNK        -0.5000 
     67 C          -1.1581  -23.2298  -45.8852 C.2       11 UNK         0.5000 
     68 O          -2.3306  -23.3166  -46.2470 O.2       11 UNK        -0.5000 
     69 N          -0.7825  -23.2673  -44.5980 N.am      12 UNK        -0.5000 
     70 CA         -1.7056  -23.4915  -43.4800 C.3       12 UNK         0.1400 
     71 CB         -0.9951  -23.2305  -42.1440 C.3       12 UNK        -0.1800 
     72 C          -2.3171  -24.9026  -43.5160 C.2       12 UNK         0.5000 
     73 O          -3.5197  -25.0508  -43.2996 O.2       12 UNK        -0.5000 
     74 N          -1.4969  -25.8999  -43.8767 N.am      13 UNK        -0.5000 
     75 CA         -1.9135  -27.2798  -44.1423 C.3       13 UNK         0.1400 
     76 CB         -0.6622  -28.1450  -44.3542 C.3       13 UNK        -0.1800 
     77 C          -2.8749  -27.4122  -45.3438 C.2       13 UNK         0.5000 
     78 O          -3.6724  -28.3493  -45.3815 O.2       13 UNK        -0.5000 
     79 N          -2.8033  -26.4581  -46.2815 N.am      14 UNK        -0.5000 
     80 CA         -3.6912  -26.3246  -47.4370 C.3       14 UNK         0.1400 
     81 CB         -2.8641  -25.8236  -48.6336 C.3       14 UNK        -0.1800 
     82 C          -4.8848  -25.3843  -47.1619 C.2       14 UNK         0.5000 
     83 O          -5.6002  -25.0392  -48.1025 O.2       14 UNK        -0.5000 
     84 N          -5.0695  -24.9520  -45.9035 N.am      15 UNK        -0.5000 
     85 CA         -6.1232  -24.0495  -45.4210 C.3       15 UNK         0.1400 
     86 CB         -7.4975  -24.7485  -45.4769 C.3       15 UNK        -0.1800 
     87 C          -6.1209  -22.6711  -46.1198 C.2       15 UNK         0.5000 
     88 O          -7.1836  -22.0933  -46.3517 O.2       15 UNK        -0.5000 
     89 N          -4.9174  -22.1872  -46.4607 N.am      16 UNK        -0.5000 
     90 CA         -4.6046  -20.9475  -47.1784 C.3       16 UNK         0.1400 
     91 CB         -5.1326  -19.7041  -46.4345 C.3       16 UNK        -0.1800 
     92 C          -5.0019  -20.9454  -48.6692 C.2       16 UNK         0.5000 
     93 O          -4.7904  -19.9315  -49.3345 O.2       16 UNK        -0.5000 
     94 N          -5.4980  -22.0697  -49.2100 N.am      17 UNK        -0.5000 
     95 CA         -5.8329  -22.2052  -50.6324 C.3       17 UNK         0.1400 
     96 CB         -6.5753  -23.5273  -50.8724 C.3       17 UNK        -0.1800 
     97 C          -4.5875  -22.1089  -51.5320 C.2       17 UNK         0.5000 
     98 O          -4.6384  -21.4802  -52.5890 O.2       17 UNK        -0.5000 
     99 N          -3.4719  -22.6805  -51.0573 N.am      18 UNK        -0.5000 
    100 CA        -2.1619  -22.5925  -51.6996 C.3       18 UNK         0.1400 
    101 CB        -1.2054  -23.5994  -51.0478 C.3       18 UNK        -0.1800 
    102 C         -1.5682  -21.1720  -51.6606 C.2       18 UNK         0.5000 
    103 O         -0.8627  -20.8017  -52.5960 O.2       18 UNK        -0.5000 
    104 N         -1.8859  -20.3966  -50.6127 N.am      19 UNK        -0.5000 
    105 CA        -1.4774  -18.9967  -50.4752 C.3       19 UNK         0.1400 
    106 CB        -1.6068  -18.5463  -49.0126 C.3       19 UNK        -0.1800 
    107 C         -2.2851  -18.0653  -51.3902 C.2       19 UNK         0.5000 
    108 O         -1.7186  -17.1368  -51.9663 O.2       19 UNK        -0.5000 
    109 N         -3.5899  -18.3419  -51.5192 N.am      20 UNK        -0.5000 
    110 CA        -4.4956  -17.6444  -52.4291 C.3       20 UNK         0.1400 
    111 CB        -5.9426  -18.0591  -52.1240 C.3       20 UNK        -0.1800 
    112 C         -4.1452  -17.8946  -53.9080 C.2       20 UNK         0.5000 
    113 O         -4.2217  -16.9658  -54.7129 O.2       20 UNK        -0.5000 
    114 N         -3.7516  -19.1346  -54.2315 N.am      21 UNK        -0.5000 
    115 CA        -3.2694  -19.5340  -55.5507 C.3       21 UNK         0.1400 
    116 CB        -3.3060  -21.0671  -55.6681 C.3       21 UNK        -0.1800 
    117 C         -1.8623  -18.9789  -55.8406 C.2       21 UNK         0.5000 
    118 O         -1.7000  -18.1942  -56.7763 O.2       21 UNK        -0.5000 
    119 N         -0.8768  -19.4106  -55.0416 N.am      22 UNK        -0.5000 
    120 CA         0.5654  -19.1055  -55.0881 C.3       22 UNK         0.1400 
    121 C          1.3093  -19.5052  -56.4014 C.2       22 UNK         0.5000 
    122 N          0.7227  -19.3350  -57.5770 N.am      22 UNK        -0.7600 
    123 O          2.4264  -20.0125  -56.3495 O.2       22 UNK        -0.5000 
    124 C124        0.8570  -17.6508  -54.6293 C.3       23 UNK        -0.0398 
    125 S125        2.6181  -17.1994  -54.4152 S.3       23 UNK        -0.2404 
    126 C126        3.2105  -18.3606  -53.1293 C.3       23 UNK        -0.0205 
    127 H127       -0.4692  -12.6887  -43.7223 H         1 UNK         0.0600 
    128 H128        1.0590  -13.2528  -44.4052 H         1 UNK         0.0600 
    129 H129       -0.3018  -14.3682  -44.2504 H         1 UNK         0.0600 
    130 H130        1.3538  -13.0193  -46.6232 H         1 UNK         0.3000 
    131 H131       -0.6062  -13.4309  -48.5463 H         1 UNK         0.0600 
    132 H132        2.0447  -11.9496  -48.9224 H         1 UNK         0.0800 
    133 H133        1.0800  -12.6339  -50.2048 H         1 UNK         0.0800 
    134 H134        0.4173  -15.0717  -50.4059 H         1 UNK         0.0800 
    135 H135        0.2317  -15.6766  -48.7749 H         1 UNK         0.0800 
    136 H136        2.0014  -16.1221  -51.9745 H         1 UNK         0.1150 
    137 H137        3.1723  -20.1638  -51.1226 H         1 UNK         0.1150 
    138 H138        1.3262  -17.7684  -48.0891 H         1 UNK         0.1150 
    139 H139        3.3868  -20.6760  -48.5978 H         1 UNK         0.0800 
    140 H140        2.2761  -19.9045  -47.4994 H         1 UNK         0.0800 
    141 H141       -0.8296  -21.2083  -47.6572 H         1 UNK         0.0800 
    142 H142        0.5584  -21.0530  -46.6037 H         1 UNK         0.0800 
    143 H143       -0.4280  -23.6735  -47.8187 H         1 UNK         0.0600 
    144 H144        1.8498  -23.1457  -46.0454 H         1 UNK         0.3000 
    145 H145        2.6135  -26.5983  -45.6835 H         1 UNK         0.0600 
    146 H146        4.8113  -25.8825  -46.5961 H         1 UNK         0.0600 
    147 H147        3.6402  -26.0400  -47.8955 H         1 UNK         0.0600 
    148 H148        4.0788  -24.4420  -47.3042 H         1 UNK         0.0600 
    149 H149        3.9594  -24.2325  -44.8312 H         1 UNK         0.3000 
    150 H150        2.0307  -23.4998  -41.9610 H         1 UNK         0.0600 
    151 H151        3.4008  -25.4325  -41.1617 H         1 UNK         0.0600 
    152 H152        4.1403  -23.8979  -40.7369 H         1 UNK         0.0600 
    153 H153        4.7809  -24.8440  -42.0812 H         1 UNK         0.0600 
    154 H154        4.5004  -22.4427  -42.7302 H         1 UNK         0.3000 
    155 H155        4.4682  -20.2209  -43.3342 H         1 UNK         0.0600 
    156 H156        4.1520  -21.1170  -46.2629 H         1 UNK         0.0600 
    157 H157        5.4391  -21.5969  -45.1658 H         1 UNK         0.0600 
    158 H158        5.3275  -19.9289  -45.7030 H         1 UNK         0.0600 
    159 H159        2.0725  -19.5974  -44.8896 H         1 UNK         0.3000 
    160 H160        1.9616  -16.4043  -43.7239 H         1 UNK         0.0600 
    161 H161        2.9289  -16.6522  -46.6221 H         1 UNK         0.0600 
    162 H162        3.5501  -15.5466  -45.4056 H         1 UNK         0.0600 
    163 H163        1.9098  -15.3540  -46.0024 H         1 UNK         0.0600 
    164 H164        0.6369  -17.4854  -46.0139 H         1 UNK         0.3000 
    165 H165       -0.9766  -19.0765  -45.9238 H         1 UNK         0.0600 
    166 H166       -2.5330  -20.5278  -44.7660 H         1 UNK         0.0600 
    167 H167       -0.9758  -20.6743  -43.9609 H         1 UNK         0.0600 
    168 H168       -2.2503  -19.7227  -43.2207 H         1 UNK         0.0600 
    169 H169       -3.1627  -17.9560  -44.4729 H         1 UNK         0.3000 
    170 H170       -4.4685  -16.4639  -45.8643 H         1 UNK         0.0600 
    171 H171       -3.7761  -15.8036  -43.5709 H         1 UNK         0.0600 
    172 H172       -2.8359  -14.4606  -44.2048 H         1 UNK         0.0600 
    173 H173       -4.5898  -14.4615  -44.3565 H         1 UNK         0.0600 
    174 H174       -3.0974  -13.9553  -46.5960 H         1 UNK         0.3000 
    175 H175       -2.9939  -13.8622  -49.4739 H         1 UNK         0.0600 
    176 H176       -6.0455  -13.7984  -49.7274 H         1 UNK         0.0600 
    177 H177       -4.9204  -12.9533  -50.7907 H         1 UNK         0.0600 
    178 H178       -4.9293  -14.7077  -50.7337 H         1 UNK         0.0600 
    179 H179       -3.1326  -11.9468  -48.3936 H         1 UNK         0.3000 
    180 H180       -5.2918   -9.9317  -47.0464 H         1 UNK         0.0600 
    181 H181       -4.6258  -10.0437  -44.6281 H         1 UNK         0.0600 
    182 H182       -4.2224  -11.7498  -44.8168 H         1 UNK         0.0600 
    183 H183       -5.8867  -11.2068  -45.0007 H         1 UNK         0.0600 
    184 H184       -2.5258  -10.9525  -46.5176 H         1 UNK         0.3000 
    185 H185       -1.1017   -8.5972  -48.7029 H         1 UNK         0.0600 
    186 H186        0.3381   -7.9137  -46.7989 H         1 UNK         0.0600 
    187 H187       -1.2366   -7.1475  -46.6690 H         1 UNK         0.0600 
    188 H188       -0.8494   -8.5261  -45.6464 H         1 UNK         0.0600 
    189 H189        0.0770  -10.4548  -46.8856 H         1 UNK         0.3000 
    190 H190        0.1953  -23.1349  -44.3709 H         1 UNK         0.3000 
    191 H191       -2.5238  -22.7744  -43.5726 H         1 UNK         0.0600 
    192 H192       -1.7125  -23.2251  -41.3227 H         1 UNK         0.0600 
    193 H193       -0.4885  -22.2653  -42.1403 H         1 UNK         0.0600 
    194 H194       -0.2578  -24.0004  -41.9205 H         1 UNK         0.0600 
    195 H195       -0.5059  -25.6981  -43.9734 H         1 UNK         0.3000 
    196 H196       -2.4393  -27.6464  -43.2583 H         1 UNK         0.0600 
    197 H197       -0.0854  -27.8117  -45.2177 H         1 UNK         0.0600 
    198 H198       -0.0077  -28.1118  -43.4829 H         1 UNK         0.0600 
    199 H199       -0.9309  -29.1889  -44.5204 H         1 UNK         0.0600 
    200 H200       -2.1246  -25.7200  -46.1592 H         1 UNK         0.3000 
    201 H201       -4.1031  -27.3014  -47.6977 H         1 UNK         0.0600 
    202 H202       -2.5036  -24.8082  -48.4747 H         1 UNK         0.0600 
    203 H203       -3.4578  -25.8210  -49.5486 H         1 UNK         0.0600 
    204 H204       -1.9983  -26.4616  -48.8121 H         1 UNK         0.0600 
    205 H205       -4.4108  -25.2522  -45.1945 H         1 UNK         0.3000 
    206 H206       -5.8969  -23.8532  -44.3722 H         1 UNK         0.0600 
    207 H207       -7.4719  -25.7084  -44.9612 H         1 UNK         0.0600 
    208 H208       -8.2654  -24.1432  -44.9938 H         1 UNK         0.0600 
    209 H209       -7.8195  -24.9273  -46.5032 H         1 UNK         0.0600 
    210 H210       -4.1036  -22.7648  -46.2581 H         1 UNK         0.3000 
    211 H211       -3.5159  -20.8820  -47.1714 H         1 UNK         0.0600 
    212 H212       -4.7391  -18.7897  -46.8802 H         1 UNK         0.0600 
    213 H213       -4.8334  -19.7110  -45.3869 H         1 UNK         0.0600 
    214 H214       -6.2199  -19.6377  -46.4734 H         1 UNK         0.0600 
    215 H215       -5.6406  -22.8848  -48.6252 H         1 UNK         0.3000 
    216 H216       -6.5031  -21.3855  -50.8998 H         1 UNK         0.0600 
    217 H217       -5.9392  -24.3904  -50.6737 H         1 UNK         0.0600 
    218 H218       -6.9112  -23.6012  -51.9075 H         1 UNK         0.0600 
    219 H219       -7.4571  -23.6071  -50.2365 H         1 UNK         0.0600 
    220 H220       -3.5249  -23.1811  -50.1832 H         1 UNK         0.3000 
    221 H221       -2.2803  -22.8706  -52.7489 H         1 UNK         0.0600 
    222 H222       -1.5692  -24.6209  -51.1588 H         1 UNK         0.0600 
    223 H223       -1.0810  -23.3983  -49.9856 H         1 UNK         0.0600 
    224 H224       -0.2169  -23.5545  -51.5070 H         1 UNK         0.0600 
    225 H225       -2.5226  -20.7559  -49.9197 H         1 UNK         0.3000 
    226 H226       -0.4289  -18.9138  -50.7674 H         1 UNK         0.0600 
    227 H227       -2.6070  -18.7066  -48.6129 H         1 UNK         0.0600 
    228 H228       -0.8952  -19.0644  -48.3749 H         1 UNK         0.0600 
    229 H229       -1.3956  -17.4810  -48.9224 H         1 UNK         0.0600 
    230 H230       -3.9955  -19.0685  -50.9378 H         1 UNK         0.3000 
    231 H231       -4.4012  -16.5733  -52.2411 H         1 UNK         0.0600 
    232 H232       -6.0975  -19.1273  -52.2785 H         1 UNK         0.0600 
    233 H233       -6.6450  -17.5275  -52.7670 H         1 UNK         0.0600 
    234 H234       -6.2067  -17.8293  -51.0912 H         1 UNK         0.0600 
    235 H235       -3.7896  -19.8567  -53.5203 H         1 UNK         0.3000 
    236 H236       -3.9490  -19.1277  -56.3029 H         1 UNK         0.0600 
    237 H237       -4.3245  -21.4425  -55.5668 H         1 UNK         0.0600 
    238 H238       -2.9337  -21.3941  -56.6398 H         1 UNK         0.0600 
    239 H239       -2.6989  -21.5506  -54.9023 H         1 UNK         0.0600 
    240 H240       -1.1206  -20.0337  -54.2764 H         1 UNK         0.3000 
    241 H241        0.9771  -19.7620  -54.3222 H         1 UNK         0.0600 
    242 H242        1.1930  -19.6026  -58.4270 H         1 UNK         0.3800 
    243 H243       -0.1950  -18.8991  -57.6069 H         1 UNK         0.3800 
    244 H244        0.3515  -17.4630  -53.6815 H         1 UNK         0.0800 
    245 H245        0.4208  -16.9475  -55.3399 H         1 UNK         0.0800 
    246 H246        3.0425  -19.3839  -53.4657 H         1 UNK         0.0800 
    247 H247        4.2929  -18.2475  -53.0592 H         1 UNK         0.0800 
@<TRIPOS>BOND
     1    1    2 1    
     2    1  127 1    
     3    1  128 1    
     4    1  129 1    
     5    2    3 2    
     6    2    4 am   BACKBONE|DICT|INTERRES
     7    4    5 1    
     8    4  130 1    
     9    5    6 1    
    10    5   65 1    
    11    5  131 1    
    12    6    7 1    
    13    6  132 1    
    14    6  133 1    
    15    7    8 1    
    16    8    9 1    
    17    8  134 1    
    18    8  135 1    
    19    9   10 ar   
    20    9   14 ar   
    21   10   11 ar   
    22   10  136 1    
    23   11   12 ar   
    24   11  126 1    
    25   12   13 ar   
    26   12  137 1    
    27   13   14 ar   
    28   13   15 1    
    29   14  138 1    
    30   15   16 1    
    31   15  139 1    
    32   15  140 1    
    33   16   17 1    
    34   17   18 1    
    35   17  141 1    
    36   17  142 1    
    37   18   19 1    
    38   18   67 1    
    39   18  143 1    
    40   19   20 am   BACKBONE|DICT|INTERRES
    41   19  144 1    
    42   20   21 2    
    43   20   22 1    
    44   22   23 1    
    45   22   24 1    
    46   22  145 1    
    47   23  146 1    
    48   23  147 1    
    49   23  148 1    
    50   24   25 am   BACKBONE|DICT|INTERRES
    51   24  149 1    
    52   25   26 2    
    53   25   27 1    
    54   27   28 1    
    55   27   29 1    
    56   27  150 1    
    57   28  151 1    
    58   28  152 1    
    59   28  153 1    
    60   29   30 am   BACKBONE|DICT|INTERRES
    61   29  154 1    
    62   30   31 2    
    63   30   32 1    
    64   32   33 1    
    65   32   34 1    
    66   32  155 1    
    67   33  156 1    
    68   33  157 1    
    69   33  158 1    
    70   34   35 am   BACKBONE|DICT|INTERRES
    71   34  159 1    
    72   35   36 2    
    73   35   37 1    
    74   37   38 1    
    75   37   39 1    
    76   37  160 1    
    77   38  161 1    
    78   38  162 1    
    79   38  163 1    
    80   39   40 am   BACKBONE|DICT|INTERRES
    81   39  164 1    
    82   40   41 2    
    83   40   42 1    
    84   42   43 1    
    85   42   44 1    
    86   42  165 1    
    87   43  166 1    
    88   43  167 1    
    89   43  168 1    
    90   44   45 am   BACKBONE|DICT|INTERRES
    91   44  169 1    
    92   45   46 2    
    93   45   47 1    
    94   47   48 1    
    95   47   49 1    
    96   47  170 1    
    97   48  171 1    
    98   48  172 1    
    99   48  173 1    
   100   49   50 am   BACKBONE|DICT|INTERRES
   101   49  174 1    
   102   50   51 2    
   103   50   52 1    
   104   52   53 1    
   105   52   54 1    
   106   52  175 1    
   107   53  176 1    
   108   53  177 1    
   109   53  178 1    
   110   54   55 am   BACKBONE|DICT|INTERRES
   111   54  179 1    
   112   55   56 2    
   113   55   57 1    
   114   57   58 1    
   115   57   59 1    
   116   57  180 1    
   117   58  181 1    
   118   58  182 1    
   119   58  183 1    
   120   59   60 am   BACKBONE|DICT|INTERRES
   121   59  184 1    
   122   60   61 2    
   123   60   62 1    
   124   62   63 1    
   125   62   64 1    
   126   62  185 1    
   127   63  186 1    
   128   63  187 1    
   129   63  188 1    
   130   64   65 am   BACKBONE|DICT|INTERRES
   131   64  189 1    
   132   65   66 2    
   133   67   68 2    
   134   67   69 am   BACKBONE|DICT|INTERRES
   135   69   70 1    
   136   69  190 1    
   137   70   71 1    
   138   70   72 1    
   139   70  191 1    
   140   71  192 1    
   141   71  193 1    
   142   71  194 1    
   143   72   73 2    
   144   72   74 am   BACKBONE|DICT|INTERRES
   145   74   75 1    
   146   74  195 1    
   147   75   76 1    
   148   75   77 1    
   149   75  196 1    
   150   76  197 1    
   151   76  198 1    
   152   76  199 1    
   153   77   78 2    
   154   77   79 am   BACKBONE|DICT|INTERRES
   155   79   80 1    
   156   79  200 1    
   157   80   81 1    
   158   80   82 1    
   159   80  201 1    
   160   81  202 1    
   161   81  203 1    
   162   81  204 1    
   163   82   83 2    
   164   82   84 am   BACKBONE|DICT|INTERRES
   165   84   85 1    
   166   84  205 1    
   167   85   86 1    
   168   85   87 1    
   169   85  206 1    
   170   86  207 1    
   171   86  208 1    
   172   86  209 1    
   173   87   88 2    
   174   87   89 am   BACKBONE|DICT|INTERRES
   175   89   90 1    
   176   89  210 1    
   177   90   91 1    
   178   90   92 1    
   179   90  211 1    
   180   91  212 1    
   181   91  213 1    
   182   91  214 1    
   183   92   93 2    
   184   92   94 am   BACKBONE|DICT|INTERRES
   185   94   95 1    
   186   94  215 1    
   187   95   96 1    
   188   95   97 1    
   189   95  216 1    
   190   96  217 1    
   191   96  218 1    
   192   96  219 1    
   193   97   98 2    
   194   97   99 am   BACKBONE|DICT|INTERRES
   195   99  100 1    
   196   99  220 1    
   197  100  101 1    
   198  100  102 1    
   199  100  221 1    
   200  101  222 1    
   201  101  223 1    
   202  101  224 1    
   203  102  103 2    
   204  102  104 am   BACKBONE|DICT|INTERRES
   205  104  105 1    
   206  104  225 1    
   207  105  106 1    
   208  105  107 1    
   209  105  226 1    
   210  106  227 1    
   211  106  228 1    
   212  106  229 1    
   213  107  108 2    
   214  107  109 am   BACKBONE|DICT|INTERRES
   215  109  110 1    
   216  109  230 1    
   217  110  111 1    
   218  110  112 1    
   219  110  231 1    
   220  111  232 1    
   221  111  233 1    
   222  111  234 1    
   223  112  113 2    
   224  112  114 am   BACKBONE|DICT|INTERRES
   225  114  115 1    
   226  114  235 1    
   227  115  116 1    
   228  115  117 1    
   229  115  236 1    
   230  116  237 1    
   231  116  238 1    
   232  116  239 1    
   233  117  118 2    
   234  117  119 am   BACKBONE|DICT|INTERRES
   235  119  120 1    
   236  119  240 1    
   237  120  121 1    
   238  120  124 1    
   239  120  241 1    
   240  121  122 am   BACKBONE|DICT|INTERRES
   241  121  123 2    
   242  122  242 1    
   243  122  243 1    
   244  124  125 1    
   245  124  244 1    
   246  124  245 1    
   247  125  126 1    
   248  126  246 1    
   249  126  247 1    
@<TRIPOS>SUBSTRUCTURE
     1 UNK         1 GROUP             0       ****    0 ROOT    
