@<TRIPOS>MOLECULE
3R540
247   249    1
SMALL
USER_CHARGES


@<TRIPOS>ATOM
      1 CA          6.5957  -15.4228  -46.6665 C.3       0 UNK        -0.1800 
      2 C           5.4077  -16.0742  -47.3605 C.2       0 UNK         0.5000 
      3 O           4.9238  -17.1076  -46.9008 O.2       0 UNK        -0.5000 
      4 N           4.9468  -15.4777  -48.4658 N.am      1 UNK        -0.5000 
      5 CA          3.7680  -15.9098  -49.2240 C.3       1 UNK         0.1400 
      6 C6          3.8054  -15.3923  -50.6842 C.3       23 UNK        -0.0398 
      7 S7          5.2022  -16.1063  -51.6176 S.3       23 UNK        -0.2404 
      8 C8          4.3484  -17.1172  -52.8795 C.3       23 UNK        -0.0205 
      9 C9          3.4480  -18.2268  -52.3339 C.ar      23 UNK        -0.0193 
     10 C10         2.3174  -18.6036  -53.0659 C.ar      23 UNK        -0.1150 
     11 C11         1.4900  -19.6387  -52.6217 C.ar      23 UNK        -0.0193 
     12 C12         1.7838  -20.2856  -51.4186 C.ar      23 UNK        -0.1150 
     13 C13         2.8980  -19.9105  -50.6645 C.ar      23 UNK        -0.0193 
     14 C14         3.7405  -18.9032  -51.1432 C.ar      23 UNK        -0.1150 
     15 C15         3.2079  -20.5989  -49.3434 C.3       23 UNK        -0.0205 
     16 S16         2.3429  -19.8089  -47.9456 S.3       23 UNK        -0.2404 
     17 C17         0.8019  -20.7825  -47.8704 C.3       23 UNK        -0.0398 
     18 CA          0.9337  -22.0070  -46.9342 C.3       11 UNK         0.1400 
     19 N           1.0474  -21.6336  -45.5180 N.am      11 UNK        -0.5000 
     20 C           1.3250  -22.4842  -44.5178 C.2       10 UNK         0.5000 
     21 O           1.5006  -23.6923  -44.6786 O.2       10 UNK        -0.5000 
     22 CA          1.3779  -21.8965  -43.0969 C.3       10 UNK         0.1400 
     23 CB          2.6808  -21.1164  -42.8605 C.3       10 UNK        -0.1800 
     24 N           0.2255  -21.0355  -42.8370 N.am      10 UNK        -0.5000 
     25 C          -0.9949  -21.4922  -42.5207 C.2       9 UNK         0.5000 
     26 O          -1.2471  -22.6810  -42.3227 O.2       9 UNK        -0.5000 
     27 CA         -2.1356  -20.4578  -42.4274 C.3       9 UNK         0.1400 
     28 CB         -2.2829  -19.9467  -40.9865 C.3       9 UNK        -0.1800 
     29 N          -1.9737  -19.3158  -43.3290 N.am      9 UNK        -0.5000 
     30 C          -1.9247  -19.4007  -44.6652 C.2       8 UNK         0.5000 
     31 O          -2.0415  -20.4534  -45.2878 O.2       8 UNK        -0.5000 
     32 CA         -1.6126  -18.1076  -45.4355 C.3       8 UNK         0.1400 
     33 CB         -2.8788  -17.2647  -45.6412 C.3       8 UNK        -0.1800 
     34 N          -0.5757  -17.3009  -44.7935 N.am      8 UNK        -0.5000 
     35 C           0.6761  -17.7170  -44.5525 C.2       7 UNK         0.5000 
     36 O           1.0945  -18.8287  -44.8698 O.2       7 UNK        -0.5000 
     37 CA          1.5889  -16.7575  -43.7736 C.3       7 UNK         0.1400 
     38 CB          2.1858  -15.6886  -44.6959 C.3       7 UNK        -0.1800 
     39 N           0.8682  -16.1119  -42.6796 N.am      7 UNK        -0.5000 
     40 C           0.5535  -16.7176  -41.5269 C.2       6 UNK         0.5000 
     41 O           0.8975  -17.8640  -41.2385 O.2       6 UNK        -0.5000 
     42 CA         -0.3175  -15.9124  -40.5446 C.3       6 UNK         0.1400 
     43 CB          0.5584  -15.0294  -39.6432 C.3       6 UNK        -0.1800 
     44 N          -1.3115  -15.0760  -41.2218 N.am      6 UNK        -0.5000 
     45 C          -2.3533  -15.5556  -41.9152 C.2       5 UNK         0.5000 
     46 O          -2.5907  -16.7558  -42.0477 O.2       5 UNK        -0.5000 
     47 CA         -3.2583  -14.5217  -42.6107 C.3       5 UNK         0.1400 
     48 CB         -4.3278  -14.0031  -41.6380 C.3       5 UNK        -0.1800 
     49 N          -2.5338  -13.3843  -43.1878 N.am      5 UNK        -0.5000 
     50 C          -1.5972  -13.4751  -44.1406 C.2       4 UNK         0.5000 
     51 O          -1.1665  -14.5438  -44.5814 O.2       4 UNK        -0.5000 
     52 CA         -1.0181  -12.1550  -44.6639 C.3       4 UNK         0.1400 
     53 CB          0.1762  -11.7189  -43.8009 C.3       4 UNK        -0.1800 
     54 N          -0.5605  -12.3636  -46.0333 N.am      4 UNK        -0.5000 
     55 C          -0.9226  -11.6500  -47.1059 C.2       3 UNK         0.5000 
     56 O          -1.6460  -10.6545  -47.0536 O.2       3 UNK        -0.5000 
     57 CA         -0.3863  -12.1233  -48.4722 C.3       3 UNK         0.1400 
     58 CB          0.7735  -11.2271  -48.9336 C.3       3 UNK        -0.1800 
     59 N           0.0832  -13.5085  -48.4358 N.am      3 UNK        -0.5000 
     60 C          -0.6813  -14.5960  -48.5692 C.2       2 UNK         0.5000 
     61 O          -1.8810  -14.5362  -48.8368 O.2       2 UNK        -0.5000 
     62 CA         -0.0029  -15.9740  -48.3553 C.3       2 UNK         0.1400 
     63 CB         -0.8533  -17.1270  -48.9200 C.3       2 UNK        -0.1800 
     64 N           1.3545  -16.1169  -48.8973 N.am      2 UNK        -0.5000 
     65 C           2.4686  -15.4744  -48.5206 C.2       1 UNK         0.5000 
     66 O           2.4890  -14.5627  -47.6899 O.2       1 UNK        -0.5000 
     67 C          -0.2009  -23.0153  -47.2036 C.2       11 UNK         0.5000 
     68 O          -0.0449  -23.8627  -48.0831 O.2       11 UNK        -0.5000 
     69 N          -1.2926  -22.9510  -46.4266 N.am      12 UNK        -0.5000 
     70 CA         -2.4487  -23.8535  -46.4770 C.3       12 UNK         0.1400 
     71 CB         -3.4621  -23.4429  -45.3974 C.3       12 UNK        -0.1800 
     72 C          -2.1122  -25.3514  -46.3368 C.2       12 UNK         0.5000 
     73 O          -2.8810  -26.1813  -46.8193 O.2       12 UNK        -0.5000 
     74 N          -0.9622  -25.6795  -45.7306 N.am      13 UNK        -0.5000 
     75 CA         -0.4329  -27.0417  -45.6410 C.3       13 UNK         0.1400 
     76 CB          0.7806  -27.0451  -44.6996 C.3       13 UNK        -0.1800 
     77 C          -0.0551  -27.6527  -47.0082 C.2       13 UNK         0.5000 
     78 O          -0.0437  -28.8785  -47.1294 O.2       13 UNK        -0.5000 
     79 N           0.2414  -26.8028  -48.0017 N.am      14 UNK        -0.5000 
     80 CA          0.5906  -27.1966  -49.3665 C.3       14 UNK         0.1400 
     81 CB          1.9916  -26.6575  -49.6979 C.3       14 UNK        -0.1800 
     82 C          -0.4366  -26.6768  -50.3859 C.2       14 UNK         0.5000 
     83 O          -0.8125  -27.4143  -51.2974 O.2       14 UNK        -0.5000 
     84 N          -0.8648  -25.4175  -50.2274 N.am      15 UNK        -0.5000 
     85 CA         -1.7312  -24.7059  -51.1684 C.3       15 UNK         0.1400 
     86 CB         -1.4753  -23.1979  -51.0209 C.3       15 UNK        -0.1800 
     87 C          -3.2302  -25.0080  -50.9923 C.2       15 UNK         0.5000 
     88 O          -4.0091  -24.6654  -51.8826 O.2       15 UNK        -0.5000 
     89 N          -3.6145  -25.6048  -49.8533 N.am      16 UNK        -0.5000 
     90 CA         -4.9750  -25.9422  -49.4125 C.3       16 UNK         0.1400 
     91 CB         -5.6455  -26.9570  -50.3608 C.3       16 UNK        -0.1800 
     92 C          -5.8608  -24.7053  -49.1654 C.2       16 UNK         0.5000 
     93 O          -6.2131  -24.4261  -48.0195 O.2       16 UNK        -0.5000 
     94 N          -6.1940  -23.9838  -50.2415 N.am      17 UNK        -0.5000 
     95 CA         -6.9991  -22.7620  -50.2295 C.3       17 UNK         0.1400 
     96 CB         -7.5617  -22.5357  -51.6405 C.3       17 UNK        -0.1800 
     97 C          -6.2079  -21.5248  -49.7646 C.2       17 UNK         0.5000 
     98 O          -6.8182  -20.5619  -49.2973 O.2       17 UNK        -0.5000 
     99 N          -4.8741  -21.5724  -49.9117 N.am      18 UNK        -0.5000 
    100 CA        -3.9101  -20.5179  -49.5863 C.3       18 UNK         0.1400 
    101 CB        -3.7471  -20.3810  -48.0601 C.3       18 UNK        -0.1800 
    102 C         -4.2423  -19.2002  -50.3100 C.2       18 UNK         0.5000 
    103 O         -4.3445  -19.2158  -51.5355 O.2       18 UNK        -0.5000 
    104 N         -4.4237  -18.1018  -49.5632 N.am      19 UNK        -0.5000 
    105 CA        -4.6488  -16.7350  -50.0494 C.3       19 UNK         0.1400 
    106 CB        -4.9532  -15.8304  -48.8459 C.3       19 UNK        -0.1800 
    107 C         -5.7576  -16.5868  -51.1106 C.2       19 UNK         0.5000 
    108 O         -5.6273  -15.7539  -52.0081 O.2       19 UNK        -0.5000 
    109 N         -6.8024  -17.4212  -51.0158 N.am      20 UNK        -0.5000 
    110 CA        -7.9139  -17.4797  -51.9666 C.3       20 UNK         0.1400 
    111 CB        -9.0222  -18.3664  -51.3798 C.3       20 UNK        -0.1800 
    112 C         -7.5119  -17.9693  -53.3744 C.2       20 UNK         0.5000 
    113 O         -8.1986  -17.6329  -54.3402 O.2       20 UNK        -0.5000 
    114 N         -6.4196  -18.7386  -53.4704 N.am      21 UNK        -0.5000 
    115 CA        -5.8399  -19.2185  -54.7241 C.3       21 UNK         0.1400 
    116 CB        -5.5682  -20.7269  -54.6079 C.3       21 UNK        -0.1800 
    117 C         -4.5432  -18.4637  -55.0613 C.2       21 UNK         0.5000 
    118 O         -4.3303  -18.1145  -56.2232 O.2       21 UNK        -0.5000 
    119 N         -3.6989  -18.2357  -54.0481 N.am      22 UNK        -0.5000 
    120 CA        -2.3799  -17.5971  -54.1721 C.3       22 UNK         0.1400 
    121 C         -2.4260  -16.0618  -54.4170 C.2       22 UNK         0.5000 
    122 N         -3.5015  -15.3604  -54.0789 N.am      22 UNK        -0.7600 
    123 O         -1.4648  -15.4963  -54.9303 O.2       22 UNK        -0.5000 
    124 C124       -1.4655  -17.9208  -52.9621 C.3       23 UNK        -0.0398 
    125 S125       -1.2854  -19.7115  -52.6490 S.3       23 UNK        -0.2404 
    126 C126        0.2991  -20.0872  -53.4553 C.3       23 UNK        -0.0205 
    127 H127        7.4320  -16.1203  -46.6198 H         1 UNK         0.0600 
    128 H128        6.9294  -14.5259  -47.1889 H         1 UNK         0.0600 
    129 H129        6.3261  -15.1427  -45.6481 H         1 UNK         0.0600 
    130 H130        5.3780  -14.6214  -48.7815 H         1 UNK         0.3000 
    131 H131        3.7589  -16.9995  -49.2360 H         1 UNK         0.0600 
    132 H132        3.8951  -14.3048  -50.7047 H         1 UNK         0.0800 
    133 H133        2.8775  -15.6258  -51.2093 H         1 UNK         0.0800 
    134 H134        3.7704  -16.4457  -53.5166 H         1 UNK         0.0800 
    135 H135        5.1021  -17.5747  -53.5213 H         1 UNK         0.0800 
    136 H136        2.0923  -18.1035  -53.9976 H         1 UNK         0.1150 
    137 H137        1.1430  -21.0845  -51.0764 H         1 UNK         0.1150 
    138 H138        4.6244  -18.6443  -50.5783 H         1 UNK         0.1150 
    139 H139        2.9533  -21.6585  -49.3976 H         1 UNK         0.0800 
    140 H140        4.2810  -20.5586  -49.1505 H         1 UNK         0.0800 
    141 H141        0.5307  -21.0831  -48.8827 H         1 UNK         0.0800 
    142 H142       -0.0038  -20.1345  -47.5252 H         1 UNK         0.0800 
    143 H143        1.8581  -22.5270  -47.1946 H         1 UNK         0.0600 
    144 H144        0.9615  -20.6420  -45.3052 H         1 UNK         0.3000 
    145 H145        1.3610  -22.7286  -42.3895 H         1 UNK         0.0600 
    146 H146        2.7192  -20.7124  -41.8486 H         1 UNK         0.0600 
    147 H147        3.5480  -21.7657  -42.9853 H         1 UNK         0.0600 
    148 H148        2.7955  -20.2850  -43.5554 H         1 UNK         0.0600 
    149 H149        0.3463  -20.0473  -43.0131 H         1 UNK         0.3000 
    150 H150       -3.0605  -20.9674  -42.7054 H         1 UNK         0.0600 
    151 H151       -2.4208  -20.7738  -40.2889 H         1 UNK         0.0600 
    152 H152       -3.1481  -19.2908  -40.8876 H         1 UNK         0.0600 
    153 H153       -1.4021  -19.3888  -40.6668 H         1 UNK         0.0600 
    154 H154       -1.9257  -18.3979  -42.8964 H         1 UNK         0.3000 
    155 H155       -1.2338  -18.3982  -46.4149 H         1 UNK         0.0600 
    156 H156       -3.3277  -16.9790  -44.6909 H         1 UNK         0.0600 
    157 H157       -3.6318  -17.8187  -46.2018 H         1 UNK         0.0600 
    158 H158       -2.6614  -16.3517  -46.1958 H         1 UNK         0.0600 
    159 H159       -0.8332  -16.3511  -44.5354 H         1 UNK         0.3000 
    160 H160        2.4129  -17.3414  -43.3575 H         1 UNK         0.0600 
    161 H161        2.8671  -15.0323  -44.1547 H         1 UNK         0.0600 
    162 H162        1.4165  -15.0685  -45.1560 H         1 UNK         0.0600 
    163 H163        2.7556  -16.1555  -45.4991 H         1 UNK         0.0600 
    164 H164        0.5007  -15.1892  -42.8586 H         1 UNK         0.3000 
    165 H165       -0.8490  -16.6265  -39.9117 H         1 UNK         0.0600 
    166 H166       -0.0416  -14.5141  -38.8930 H         1 UNK         0.0600 
    167 H167        1.2981  -15.6287  -39.1105 H         1 UNK         0.0600 
    168 H168        1.0984  -14.2758  -40.2179 H         1 UNK         0.0600 
    169 H169       -1.1881  -14.0759  -41.1641 H         1 UNK         0.3000 
    170 H170       -3.7691  -15.0316  -43.4292 H         1 UNK         0.0600 
    171 H171       -4.8972  -14.8281  -41.2075 H         1 UNK         0.0600 
    172 H172       -3.8857  -13.4434  -40.8128 H         1 UNK         0.0600 
    173 H173       -5.0388  -13.3501  -42.1445 H         1 UNK         0.0600 
    174 H174       -2.8154  -12.4688  -42.8675 H         1 UNK         0.3000 
    175 H175       -1.7959  -11.3897  -44.6248 H         1 UNK         0.0600 
    176 H176        0.9674  -12.4703  -43.7969 H         1 UNK         0.0600 
    177 H177        0.6047  -10.7863  -44.1683 H         1 UNK         0.0600 
    178 H178       -0.1257  -11.5519  -42.7663 H         1 UNK         0.0600 
    179 H179       -0.0283  -13.2098  -46.1791 H         1 UNK         0.3000 
    180 H180       -1.1977  -12.0359  -49.1978 H         1 UNK         0.0600 
    181 H181        1.6186  -11.2778  -48.2457 H         1 UNK         0.0600 
    182 H182        0.4617  -10.1837  -48.9962 H         1 UNK         0.0600 
    183 H183        1.1280  -11.5199  -49.9221 H         1 UNK         0.0600 
    184 H184        1.0599  -13.6578  -48.1875 H         1 UNK         0.3000 
    185 H185        0.0676  -16.1099  -47.2753 H         1 UNK         0.0600 
    186 H186       -1.8493  -17.1432  -48.4781 H         1 UNK         0.0600 
    187 H187       -0.9754  -17.0340  -49.9981 H         1 UNK         0.0600 
    188 H188       -0.3947  -18.0948  -48.7218 H         1 UNK         0.0600 
    189 H189        1.4487  -16.8353  -49.6007 H         1 UNK         0.3000 
    190 H190       -1.3724  -22.1689  -45.7814 H         1 UNK         0.3000 
    191 H191       -2.9185  -23.7236  -47.4537 H         1 UNK         0.0600 
    192 H192       -3.0262  -23.4955  -44.3992 H         1 UNK         0.0600 
    193 H193       -4.3359  -24.0959  -45.4115 H         1 UNK         0.0600 
    194 H194       -3.8231  -22.4267  -45.5512 H         1 UNK         0.0600 
    195 H195       -0.3721  -24.9397  -45.3709 H         1 UNK         0.3000 
    196 H196       -1.2078  -27.6734  -45.2019 H         1 UNK         0.0600 
    197 H197        1.5955  -26.4370  -45.0943 H         1 UNK         0.0600 
    198 H198        1.1640  -28.0565  -44.5595 H         1 UNK         0.0600 
    199 H199        0.5191  -26.6569  -43.7149 H         1 UNK         0.0600 
    200 H200        0.1909  -25.8062  -47.8189 H         1 UNK         0.3000 
    201 H201        0.6182  -28.2841  -49.4603 H         1 UNK         0.0600 
    202 H202        2.0372  -25.5708  -49.6133 H         1 UNK         0.0600 
    203 H203        2.2826  -26.9219  -50.7154 H         1 UNK         0.0600 
    204 H204        2.7412  -27.0760  -49.0262 H         1 UNK         0.0600 
    205 H205       -0.5026  -24.8639  -49.4531 H         1 UNK         0.3000 
    206 H206       -1.4598  -24.9952  -52.1859 H         1 UNK         0.0600 
    207 H207       -2.0791  -22.6242  -51.7255 H         1 UNK         0.0600 
    208 H208       -1.7150  -22.8483  -50.0168 H         1 UNK         0.0600 
    209 H209       -0.4316  -22.9553  -51.2192 H         1 UNK         0.0600 
    210 H210       -2.8908  -25.8351  -49.1858 H         1 UNK         0.3000 
    211 H211       -4.8670  -26.4417  -48.4496 H         1 UNK         0.0600 
    212 H212       -5.7906  -26.5592  -51.3651 H         1 UNK         0.0600 
    213 H213       -6.6262  -27.2494  -49.9835 H         1 UNK         0.0600 
    214 H214       -5.0478  -27.8644  -50.4465 H         1 UNK         0.0600 
    215 H215       -5.7826  -24.2577  -51.1286 H         1 UNK         0.3000 
    216 H216       -7.8364  -22.8990  -49.5420 H         1 UNK         0.0600 
    217 H217       -8.1839  -21.6417  -51.6800 H         1 UNK         0.0600 
    218 H218       -8.1811  -23.3750  -51.9571 H         1 UNK         0.0600 
    219 H219       -6.7628  -22.4143  -52.3722 H         1 UNK         0.0600 
    220 H220       -4.4936  -22.3943  -50.3563 H         1 UNK         0.3000 
    221 H221       -2.9494  -20.8357  -49.9908 H         1 UNK         0.0600 
    222 H222       -4.6678  -20.0660  -47.5680 H         1 UNK         0.0600 
    223 H223       -3.4509  -21.3316  -47.6222 H         1 UNK         0.0600 
    224 H224       -2.9641  -19.6645  -47.8118 H         1 UNK         0.0600 
    225 H225       -4.3768  -18.2074  -48.5614 H         1 UNK         0.3000 
    226 H226       -3.7153  -16.3975  -50.5041 H         1 UNK         0.0600 
    227 H227       -4.1444  -15.8542  -48.1166 H         1 UNK         0.0600 
    228 H228       -5.0719  -14.7920  -49.1584 H         1 UNK         0.0600 
    229 H229       -5.8710  -16.1297  -48.3384 H         1 UNK         0.0600 
    230 H230       -6.8084  -18.1015  -50.2677 H         1 UNK         0.3000 
    231 H231       -8.3116  -16.4688  -52.0779 H         1 UNK         0.0600 
    232 H232       -9.3923  -17.9624  -50.4374 H         1 UNK         0.0600 
    233 H233       -8.6671  -19.3794  -51.1921 H         1 UNK         0.0600 
    234 H234       -9.8726  -18.4353  -52.0596 H         1 UNK         0.0600 
    235 H235       -5.8830  -18.9313  -52.6299 H         1 UNK         0.3000 
    236 H236       -6.5346  -19.0671  -55.5527 H         1 UNK         0.0600 
    237 H237       -5.0866  -21.1089  -55.5088 H         1 UNK         0.0600 
    238 H238       -4.9177  -20.9585  -53.7631 H         1 UNK         0.0600 
    239 H239       -6.4980  -21.2803  -54.4792 H         1 UNK         0.0600 
    240 H240       -3.9283  -18.5958  -53.1238 H         1 UNK         0.3000 
    241 H241       -1.9020  -18.0260  -55.0550 H         1 UNK         0.0600 
    242 H242       -3.5131  -14.3683  -54.2526 H         1 UNK         0.3800 
    243 H243       -4.2851  -15.7860  -53.5986 H         1 UNK         0.3800 
    244 H244       -0.4764  -17.4786  -53.0920 H         1 UNK         0.0800 
    245 H245       -1.8834  -17.4715  -52.0612 H         1 UNK         0.0800 
    246 H246        0.3637  -21.1654  -53.6081 H         1 UNK         0.0800 
    247 H247        0.3188  -19.6370  -54.4490 H         1 UNK         0.0800 
@<TRIPOS>BOND
     1    1    2 1    
     2    1  127 1    
     3    1  128 1    
     4    1  129 1    
     5    2    3 2    
     6    2    4 am   BACKBONE|DICT|INTERRES
     7    4    5 1    
     8    4  130 1    
     9    5    6 1    
    10    5   65 1    
    11    5  131 1    
    12    6    7 1    
    13    6  132 1    
    14    6  133 1    
    15    7    8 1    
    16    8    9 1    
    17    8  134 1    
    18    8  135 1    
    19    9   10 ar   
    20    9   14 ar   
    21   10   11 ar   
    22   10  136 1    
    23   11   12 ar   
    24   11  126 1    
    25   12   13 ar   
    26   12  137 1    
    27   13   14 ar   
    28   13   15 1    
    29   14  138 1    
    30   15   16 1    
    31   15  139 1    
    32   15  140 1    
    33   16   17 1    
    34   17   18 1    
    35   17  141 1    
    36   17  142 1    
    37   18   19 1    
    38   18   67 1    
    39   18  143 1    
    40   19   20 am   BACKBONE|DICT|INTERRES
    41   19  144 1    
    42   20   21 2    
    43   20   22 1    
    44   22   23 1    
    45   22   24 1    
    46   22  145 1    
    47   23  146 1    
    48   23  147 1    
    49   23  148 1    
    50   24   25 am   BACKBONE|DICT|INTERRES
    51   24  149 1    
    52   25   26 2    
    53   25   27 1    
    54   27   28 1    
    55   27   29 1    
    56   27  150 1    
    57   28  151 1    
    58   28  152 1    
    59   28  153 1    
    60   29   30 am   BACKBONE|DICT|INTERRES
    61   29  154 1    
    62   30   31 2    
    63   30   32 1    
    64   32   33 1    
    65   32   34 1    
    66   32  155 1    
    67   33  156 1    
    68   33  157 1    
    69   33  158 1    
    70   34   35 am   BACKBONE|DICT|INTERRES
    71   34  159 1    
    72   35   36 2    
    73   35   37 1    
    74   37   38 1    
    75   37   39 1    
    76   37  160 1    
    77   38  161 1    
    78   38  162 1    
    79   38  163 1    
    80   39   40 am   BACKBONE|DICT|INTERRES
    81   39  164 1    
    82   40   41 2    
    83   40   42 1    
    84   42   43 1    
    85   42   44 1    
    86   42  165 1    
    87   43  166 1    
    88   43  167 1    
    89   43  168 1    
    90   44   45 am   BACKBONE|DICT|INTERRES
    91   44  169 1    
    92   45   46 2    
    93   45   47 1    
    94   47   48 1    
    95   47   49 1    
    96   47  170 1    
    97   48  171 1    
    98   48  172 1    
    99   48  173 1    
   100   49   50 am   BACKBONE|DICT|INTERRES
   101   49  174 1    
   102   50   51 2    
   103   50   52 1    
   104   52   53 1    
   105   52   54 1    
   106   52  175 1    
   107   53  176 1    
   108   53  177 1    
   109   53  178 1    
   110   54   55 am   BACKBONE|DICT|INTERRES
   111   54  179 1    
   112   55   56 2    
   113   55   57 1    
   114   57   58 1    
   115   57   59 1    
   116   57  180 1    
   117   58  181 1    
   118   58  182 1    
   119   58  183 1    
   120   59   60 am   BACKBONE|DICT|INTERRES
   121   59  184 1    
   122   60   61 2    
   123   60   62 1    
   124   62   63 1    
   125   62   64 1    
   126   62  185 1    
   127   63  186 1    
   128   63  187 1    
   129   63  188 1    
   130   64   65 am   BACKBONE|DICT|INTERRES
   131   64  189 1    
   132   65   66 2    
   133   67   68 2    
   134   67   69 am   BACKBONE|DICT|INTERRES
   135   69   70 1    
   136   69  190 1    
   137   70   71 1    
   138   70   72 1    
   139   70  191 1    
   140   71  192 1    
   141   71  193 1    
   142   71  194 1    
   143   72   73 2    
   144   72   74 am   BACKBONE|DICT|INTERRES
   145   74   75 1    
   146   74  195 1    
   147   75   76 1    
   148   75   77 1    
   149   75  196 1    
   150   76  197 1    
   151   76  198 1    
   152   76  199 1    
   153   77   78 2    
   154   77   79 am   BACKBONE|DICT|INTERRES
   155   79   80 1    
   156   79  200 1    
   157   80   81 1    
   158   80   82 1    
   159   80  201 1    
   160   81  202 1    
   161   81  203 1    
   162   81  204 1    
   163   82   83 2    
   164   82   84 am   BACKBONE|DICT|INTERRES
   165   84   85 1    
   166   84  205 1    
   167   85   86 1    
   168   85   87 1    
   169   85  206 1    
   170   86  207 1    
   171   86  208 1    
   172   86  209 1    
   173   87   88 2    
   174   87   89 am   BACKBONE|DICT|INTERRES
   175   89   90 1    
   176   89  210 1    
   177   90   91 1    
   178   90   92 1    
   179   90  211 1    
   180   91  212 1    
   181   91  213 1    
   182   91  214 1    
   183   92   93 2    
   184   92   94 am   BACKBONE|DICT|INTERRES
   185   94   95 1    
   186   94  215 1    
   187   95   96 1    
   188   95   97 1    
   189   95  216 1    
   190   96  217 1    
   191   96  218 1    
   192   96  219 1    
   193   97   98 2    
   194   97   99 am   BACKBONE|DICT|INTERRES
   195   99  100 1    
   196   99  220 1    
   197  100  101 1    
   198  100  102 1    
   199  100  221 1    
   200  101  222 1    
   201  101  223 1    
   202  101  224 1    
   203  102  103 2    
   204  102  104 am   BACKBONE|DICT|INTERRES
   205  104  105 1    
   206  104  225 1    
   207  105  106 1    
   208  105  107 1    
   209  105  226 1    
   210  106  227 1    
   211  106  228 1    
   212  106  229 1    
   213  107  108 2    
   214  107  109 am   BACKBONE|DICT|INTERRES
   215  109  110 1    
   216  109  230 1    
   217  110  111 1    
   218  110  112 1    
   219  110  231 1    
   220  111  232 1    
   221  111  233 1    
   222  111  234 1    
   223  112  113 2    
   224  112  114 am   BACKBONE|DICT|INTERRES
   225  114  115 1    
   226  114  235 1    
   227  115  116 1    
   228  115  117 1    
   229  115  236 1    
   230  116  237 1    
   231  116  238 1    
   232  116  239 1    
   233  117  118 2    
   234  117  119 am   BACKBONE|DICT|INTERRES
   235  119  120 1    
   236  119  240 1    
   237  120  121 1    
   238  120  124 1    
   239  120  241 1    
   240  121  122 am   BACKBONE|DICT|INTERRES
   241  121  123 2    
   242  122  242 1    
   243  122  243 1    
   244  124  125 1    
   245  124  244 1    
   246  124  245 1    
   247  125  126 1    
   248  126  246 1    
   249  126  247 1    
@<TRIPOS>SUBSTRUCTURE
     1 UNK         1 GROUP             0       ****    0 ROOT    
