@<TRIPOS>MOLECULE
3R540
247   249    1
SMALL
USER_CHARGES


@<TRIPOS>ATOM
      1 CA          3.8293  -16.1505  -44.4893 C.3       0 UNK        -0.1800 
      2 C           4.1361  -15.0055  -45.4422 C.2       0 UNK         0.5000 
      3 O           4.9482  -14.1391  -45.1185 O.2       0 UNK        -0.5000 
      4 N           3.4863  -14.9944  -46.6137 N.am      1 UNK        -0.5000 
      5 CA          3.6563  -14.0506  -47.7295 C.3       1 UNK         0.1400 
      6 C6          5.1222  -13.9585  -48.2436 C.3       23 UNK        -0.0398 
      7 S7          5.2185  -13.9128  -50.0641 S.3       23 UNK        -0.2404 
      8 C8          5.8191  -15.5923  -50.4374 C.3       23 UNK        -0.0205 
      9 C9          4.7849  -16.6594  -50.1074 C.ar      23 UNK        -0.0193 
     10 C10         3.7605  -16.9446  -51.0132 C.ar      23 UNK        -0.1150 
     11 C11         2.8136  -17.9325  -50.7294 C.ar      23 UNK        -0.0193 
     12 C12         2.8892  -18.6292  -49.5193 C.ar      23 UNK        -0.1150 
     13 C13         3.9185  -18.3636  -48.6079 C.ar      23 UNK        -0.0193 
     14 C14         4.8619  -17.3777  -48.9103 C.ar      23 UNK        -0.1150 
     15 C15         4.0279  -19.1338  -47.2968 C.3       23 UNK        -0.0205 
     16 S16         5.1746  -20.5410  -47.4226 S.3       23 UNK        -0.2404 
     17 C17         4.1575  -21.7516  -48.3347 C.3       23 UNK        -0.0398 
     18 CA          3.6592  -22.9220  -47.4532 C.3       11 UNK         0.1400 
     19 N           2.8930  -22.4772  -46.2865 N.am      11 UNK        -0.5000 
     20 C           2.9743  -23.0352  -45.0710 C.2       10 UNK         0.5000 
     21 O           3.7368  -23.9605  -44.7900 O.2       10 UNK        -0.5000 
     22 CA          2.0418  -22.4751  -43.9780 C.3       10 UNK         0.1400 
     23 CB          2.7553  -21.3699  -43.1847 C.3       10 UNK        -0.1800 
     24 N           0.7825  -21.9459  -44.5021 N.am      10 UNK        -0.5000 
     25 C          -0.1596  -22.6771  -45.1167 C.2       9 UNK         0.5000 
     26 O          -0.0909  -23.8961  -45.2644 O.2       9 UNK        -0.5000 
     27 CA         -1.3549  -21.9181  -45.7211 C.3       9 UNK         0.1400 
     28 CB         -2.5433  -21.9245  -44.7515 C.3       9 UNK        -0.1800 
     29 N          -1.0490  -20.5362  -46.0919 N.am      9 UNK        -0.5000 
     30 C          -0.0989  -20.1437  -46.9543 C.2       8 UNK         0.5000 
     31 O           0.6420  -20.9224  -47.5588 O.2       8 UNK        -0.5000 
     32 CA          0.0835  -18.6249  -47.1384 C.3       8 UNK         0.1400 
     33 CB         -0.6062  -18.1587  -48.4226 C.3       8 UNK        -0.1800 
     34 N          -0.3907  -17.8263  -46.0060 N.am      8 UNK        -0.5000 
     35 C           0.0958  -17.9039  -44.7583 C.2       7 UNK         0.5000 
     36 O           1.0294  -18.6407  -44.4399 O.2       7 UNK        -0.5000 
     37 CA         -0.5891  -17.0452  -43.6805 C.3       7 UNK         0.1400 
     38 CB          0.2925  -15.8435  -43.3122 C.3       7 UNK        -0.1800 
     39 N          -1.9249  -16.5718  -44.0602 N.am      7 UNK        -0.5000 
     40 C          -3.0103  -17.3564  -44.1312 C.2       6 UNK         0.5000 
     41 O          -2.9653  -18.5779  -43.9845 O.2       6 UNK        -0.5000 
     42 CA         -4.3624  -16.6839  -44.4167 C.3       6 UNK         0.1400 
     43 CB         -4.9831  -16.1360  -43.1208 C.3       6 UNK        -0.1800 
     44 N          -4.2614  -15.6109  -45.4077 N.am      6 UNK        -0.5000 
     45 C          -5.2045  -15.3433  -46.3244 C.2       5 UNK         0.5000 
     46 O          -6.2699  -15.9561  -46.4044 O.2       5 UNK        -0.5000 
     47 CA         -4.9325  -14.1992  -47.3268 C.3       5 UNK         0.1400 
     48 CB         -5.6630  -12.9202  -46.8898 C.3       5 UNK        -0.1800 
     49 N          -3.5144  -13.8897  -47.5086 N.am      5 UNK        -0.5000 
     50 C          -2.5954  -14.7343  -47.9932 C.2       4 UNK         0.5000 
     51 O          -2.8733  -15.8359  -48.4621 O.2       4 UNK        -0.5000 
     52 CA         -1.1146  -14.3082  -47.8996 C.3       4 UNK         0.1400 
     53 CB         -0.5649  -13.9842  -49.2969 C.3       4 UNK        -0.1800 
     54 N          -0.8174  -13.1912  -46.9912 N.am      4 UNK        -0.5000 
     55 C          -1.1159  -13.1213  -45.6846 C.2       3 UNK         0.5000 
     56 O          -1.7646  -13.9832  -45.0879 O.2       3 UNK        -0.5000 
     57 CA         -0.5768  -11.8955  -44.9324 C.3       3 UNK         0.1400 
     58 CB         -0.7958  -11.9706  -43.4104 C.3       3 UNK        -0.1800 
     59 N           0.8488  -11.7601  -45.2145 N.am      3 UNK        -0.5000 
     60 C           1.4778  -10.6235  -45.5321 C.2       2 UNK         0.5000 
     61 O           0.9248   -9.5243  -45.5840 O.2       2 UNK        -0.5000 
     62 CA          2.9809  -10.7325  -45.8558 C.3       2 UNK         0.1400 
     63 CB          3.8221  -10.3289  -44.6354 C.3       2 UNK        -0.1800 
     64 N           3.3986  -12.0675  -46.2944 N.am      2 UNK        -0.5000 
     65 C           3.0615  -12.6515  -47.4515 C.2       1 UNK         0.5000 
     66 O           2.3006  -12.1372  -48.2711 O.2       1 UNK        -0.5000 
     67 C           2.8108  -23.8854  -48.3015 C.2       11 UNK         0.5000 
     68 O           3.3318  -24.9010  -48.7639 O.2       11 UNK        -0.5000 
     69 N           1.5293  -23.5413  -48.5087 N.am      12 UNK        -0.5000 
     70 CA          0.6048  -24.2828  -49.3676 C.3       12 UNK         0.1400 
     71 CB         -0.6532  -23.4380  -49.6138 C.3       12 UNK        -0.1800 
     72 C           0.2313  -25.6698  -48.8147 C.2       12 UNK         0.5000 
     73 O           0.1106  -26.6115  -49.5983 O.2       12 UNK        -0.5000 
     74 N           0.0563  -25.7671  -47.4876 N.am      13 UNK        -0.5000 
     75 CA         -0.2021  -26.9557  -46.6598 C.3       13 UNK         0.1400 
     76 CB          0.9906  -27.9277  -46.7280 C.3       13 UNK        -0.1800 
     77 C          -1.5288  -27.7050  -46.9149 C.2       13 UNK         0.5000 
     78 O          -2.0915  -28.2588  -45.9696 O.2       13 UNK        -0.5000 
     79 N          -1.9961  -27.7365  -48.1677 N.am      14 UNK        -0.5000 
     80 CA         -3.1434  -28.5136  -48.6376 C.3       14 UNK         0.1400 
     81 CB         -3.1720  -28.4729  -50.1733 C.3       14 UNK        -0.1800 
     82 C          -4.5005  -28.0645  -48.0661 C.2       14 UNK         0.5000 
     83 O          -5.3818  -28.9065  -47.8856 O.2       14 UNK        -0.5000 
     84 N          -4.6543  -26.7626  -47.7982 N.am      15 UNK        -0.5000 
     85 CA         -5.8737  -26.1593  -47.2713 C.3       15 UNK         0.1400 
     86 CB         -6.9229  -26.0180  -48.3918 C.3       15 UNK        -0.1800 
     87 C          -5.5500  -24.7851  -46.6771 C.2       15 UNK         0.5000 
     88 O          -4.6009  -24.1325  -47.1202 O.2       15 UNK        -0.5000 
     89 N          -6.3933  -24.3411  -45.7354 N.am      16 UNK        -0.5000 
     90 CA         -6.3329  -23.0206  -45.0984 C.3       16 UNK         0.1400 
     91 CB         -7.3181  -22.9875  -43.9203 C.3       16 UNK        -0.1800 
     92 C          -6.6111  -21.8531  -46.0677 C.2       16 UNK         0.5000 
     93 O          -6.1721  -20.7328  -45.8100 O.2       16 UNK        -0.5000 
     94 N          -7.3114  -22.1424  -47.1749 N.am      17 UNK        -0.5000 
     95 CA         -7.5493  -21.2209  -48.2878 C.3       17 UNK         0.1400 
     96 CB         -8.6381  -21.8106  -49.1974 C.3       17 UNK        -0.1800 
     97 C          -6.2801  -20.9157  -49.1083 C.2       17 UNK         0.5000 
     98 O          -6.2605  -19.9157  -49.8261 O.2       17 UNK        -0.5000 
     99 N          -5.2580  -21.7806  -49.0005 N.am      18 UNK        -0.5000 
    100 CA        -3.9173  -21.6448  -49.5748 C.3       18 UNK         0.1400 
    101 CB        -3.1560  -20.5274  -48.8449 C.3       18 UNK        -0.1800 
    102 C         -3.9162  -21.4553  -51.1040 C.2       18 UNK         0.5000 
    103 O         -3.2488  -20.5539  -51.6158 O.2       18 UNK        -0.5000 
    104 N         -4.7059  -22.2924  -51.7939 N.am      19 UNK        -0.5000 
    105 CA        -4.9595  -22.2613  -53.2401 C.3       19 UNK         0.1400 
    106 CB        -3.6824  -22.6231  -54.0286 C.3       19 UNK        -0.1800 
    107 C         -5.5917  -20.9271  -53.6925 C.2       19 UNK         0.5000 
    108 O         -5.1884  -20.3624  -54.7092 O.2       19 UNK        -0.5000 
    109 N         -6.5551  -20.4388  -52.8969 N.am      20 UNK        -0.5000 
    110 CA        -7.2310  -19.1434  -53.0190 C.3       20 UNK         0.1400 
    111 CB        -8.0994  -19.0884  -54.2940 C.3       20 UNK        -0.1800 
    112 C         -6.2396  -17.9672  -52.8974 C.2       20 UNK         0.5000 
    113 O         -6.2038  -17.0924  -53.7643 O.2       20 UNK        -0.5000 
    114 N         -5.4515  -17.9929  -51.8125 N.am      21 UNK        -0.5000 
    115 CA        -4.4207  -17.0239  -51.4307 C.3       21 UNK         0.1400 
    116 CB        -5.0674  -15.6709  -51.0656 C.3       21 UNK        -0.1800 
    117 C         -3.3050  -16.8946  -52.4888 C.2       21 UNK         0.5000 
    118 O         -3.1259  -15.8238  -53.0737 O.2       21 UNK        -0.5000 
    119 N         -2.5804  -17.9993  -52.7107 N.am      22 UNK        -0.5000 
    120 CA        -1.4449  -18.1223  -53.6447 C.3       22 UNK         0.1400 
    121 C         -1.8498  -18.1427  -55.1518 C.2       22 UNK         0.5000 
    122 N         -3.0779  -18.4891  -55.5117 N.am      22 UNK        -0.7600 
    123 O         -1.0324  -17.8630  -56.0254 O.2       22 UNK        -0.5000 
    124 C124       -0.2816  -17.1191  -53.3723 C.3       23 UNK        -0.0398 
    125 S125        0.3395  -17.1044  -51.6552 S.3       23 UNK        -0.2404 
    126 C126        1.7387  -18.2630  -51.7542 C.3       23 UNK        -0.0205 
    127 H127        4.7131  -16.7748  -44.3587 H         1 UNK         0.0600 
    128 H128        3.0208  -16.7802  -44.8593 H         1 UNK         0.0600 
    129 H129        3.5416  -15.7597  -43.5137 H         1 UNK         0.0600 
    130 H130        2.8208  -15.7313  -46.7965 H         1 UNK         0.3000 
    131 H131        3.0446  -14.4854  -48.5224 H         1 UNK         0.0600 
    132 H132        5.6404  -13.0853  -47.8428 H         1 UNK         0.0800 
    133 H133        5.7079  -14.8077  -47.8925 H         1 UNK         0.0800 
    134 H134        6.0698  -15.6470  -51.4978 H         1 UNK         0.0800 
    135 H135        6.7497  -15.7779  -49.8988 H         1 UNK         0.0800 
    136 H136        3.7030  -16.3997  -51.9452 H         1 UNK         0.1150 
    137 H137        2.1530  -19.3884  -49.2996 H         1 UNK         0.1150 
    138 H138        5.6614  -17.1751  -48.2118 H         1 UNK         0.1150 
    139 H139        4.3808  -18.4657  -46.5102 H         1 UNK         0.0800 
    140 H140        3.0575  -19.5001  -46.9666 H         1 UNK         0.0800 
    141 H141        4.7685  -22.1349  -49.1539 H         1 UNK         0.0800 
    142 H142        3.3157  -21.2473  -48.8059 H         1 UNK         0.0800 
    143 H143        4.5424  -23.4724  -47.1214 H         1 UNK         0.0600 
    144 H144        2.2093  -21.7486  -46.4467 H         1 UNK         0.3000 
    145 H145        1.8036  -23.2922  -43.2938 H         1 UNK         0.0600 
    146 H146        2.1285  -20.9960  -42.3749 H         1 UNK         0.0600 
    147 H147        3.0188  -20.5246  -43.8221 H         1 UNK         0.0600 
    148 H148        3.6773  -21.7431  -42.7371 H         1 UNK         0.0600 
    149 H149        0.6577  -20.9431  -44.4429 H         1 UNK         0.3000 
    150 H150       -1.6581  -22.4451  -46.6258 H         1 UNK         0.0600 
    151 H151       -2.8356  -22.9448  -44.4999 H         1 UNK         0.0600 
    152 H152       -3.4113  -21.4349  -45.1933 H         1 UNK         0.0600 
    153 H153       -2.3064  -21.4078  -43.8205 H         1 UNK         0.0600 
    154 H154       -1.5930  -19.8229  -45.6249 H         1 UNK         0.3000 
    155 H155        1.1484  -18.4297  -47.2445 H         1 UNK         0.0600 
    156 H156       -0.3506  -18.8027  -49.2648 H         1 UNK         0.0600 
    157 H157       -0.2979  -17.1499  -48.6913 H         1 UNK         0.0600 
    158 H158       -1.6904  -18.1656  -48.3219 H         1 UNK         0.0600 
    159 H159       -1.1780  -17.2177  -46.1726 H         1 UNK         0.3000 
    160 H160       -0.6950  -17.6684  -42.7900 H         1 UNK         0.0600 
    161 H161        0.5212  -15.2256  -44.1807 H         1 UNK         0.0600 
    162 H162        1.2393  -16.1769  -42.8872 H         1 UNK         0.0600 
    163 H163       -0.1906  -15.2146  -42.5647 H         1 UNK         0.0600 
    164 H164       -2.0044  -15.5730  -44.2341 H         1 UNK         0.3000 
    165 H165       -5.0153  -17.4713  -44.8005 H         1 UNK         0.0600 
    166 H166       -5.9907  -15.7586  -43.2959 H         1 UNK         0.0600 
    167 H167       -5.0558  -16.9152  -42.3609 H         1 UNK         0.0600 
    168 H168       -4.3882  -15.3223  -42.7043 H         1 UNK         0.0600 
    169 H169       -3.4160  -15.0502  -45.4000 H         1 UNK         0.3000 
    170 H170       -5.3340  -14.5091  -48.2925 H         1 UNK         0.0600 
    171 H171       -5.2867  -12.5492  -45.9355 H         1 UNK         0.0600 
    172 H172       -5.5481  -12.1272  -47.6290 H         1 UNK         0.0600 
    173 H173       -6.7324  -13.1010  -46.7731 H         1 UNK         0.0600 
    174 H174       -3.1948  -13.0075  -47.1382 H         1 UNK         0.3000 
    175 H175       -0.5697  -15.1708  -47.5145 H         1 UNK         0.0600 
    176 H176       -0.9854  -13.0576  -49.6890 H         1 UNK         0.0600 
    177 H177        0.5198  -13.8843  -49.2827 H         1 UNK         0.0600 
    178 H178       -0.8013  -14.7769  -50.0081 H         1 UNK         0.0600 
    179 H179       -0.2732  -12.4380  -47.3895 H         1 UNK         0.3000 
    180 H180       -1.1257  -11.0332  -45.3160 H         1 UNK         0.0600 
    181 H181       -0.4466  -11.0621  -42.9197 H         1 UNK         0.0600 
    182 H182       -0.2638  -12.8130  -42.9685 H         1 UNK         0.0600 
    183 H183       -1.8537  -12.0830  -43.1695 H         1 UNK         0.0600 
    184 H184        1.3859  -12.6152  -45.2184 H         1 UNK         0.3000 
    185 H185        3.1920  -10.0306  -46.6653 H         1 UNK         0.0600 
    186 H186        4.8858  -10.3221  -44.8745 H         1 UNK         0.0600 
    187 H187        3.5607   -9.3268  -44.2927 H         1 UNK         0.0600 
    188 H188        3.6704  -11.0129  -43.7994 H         1 UNK         0.0600 
    189 H189        4.0248  -12.5821  -45.6801 H         1 UNK         0.3000 
    190 H190        1.1843  -22.6678  -48.1214 H         1 UNK         0.3000 
    191 H191        1.0977  -24.4357  -50.3301 H         1 UNK         0.0600 
    192 H192       -0.4030  -22.4702  -50.0495 H         1 UNK         0.0600 
    193 H193       -1.1985  -23.2580  -48.6892 H         1 UNK         0.0600 
    194 H194       -1.3320  -23.9404  -50.3042 H         1 UNK         0.0600 
    195 H195        0.1453  -24.9166  -46.9401 H         1 UNK         0.3000 
    196 H196       -0.2587  -26.5865  -45.6349 H         1 UNK         0.0600 
    197 H197        1.9206  -27.4279  -46.4565 H         1 UNK         0.0600 
    198 H198        1.1151  -28.3487  -47.7261 H         1 UNK         0.0600 
    199 H199        0.8556  -28.7609  -46.0372 H         1 UNK         0.0600 
    200 H200       -1.4167  -27.2986  -48.8795 H         1 UNK         0.3000 
    201 H201       -2.9876  -29.5493  -48.3289 H         1 UNK         0.0600 
    202 H202       -2.2526  -28.8790  -50.5958 H         1 UNK         0.0600 
    203 H203       -3.2906  -27.4545  -50.5456 H         1 UNK         0.0600 
    204 H204       -3.9992  -29.0657  -50.5662 H         1 UNK         0.0600 
    205 H205       -3.8809  -26.1232  -47.9287 H         1 UNK         0.3000 
    206 H206       -6.2690  -26.7941  -46.4751 H         1 UNK         0.0600 
    207 H207       -6.5521  -25.4024  -49.2125 H         1 UNK         0.0600 
    208 H208       -7.2012  -26.9881  -48.8033 H         1 UNK         0.0600 
    209 H209       -7.8382  -25.5555  -48.0205 H         1 UNK         0.0600 
    210 H210       -7.1502  -24.9409  -45.4387 H         1 UNK         0.3000 
    211 H211       -5.3256  -22.8857  -44.7022 H         1 UNK         0.0600 
    212 H212       -8.3466  -23.1386  -44.2508 H         1 UNK         0.0600 
    213 H213       -7.2770  -22.0277  -43.4035 H         1 UNK         0.0600 
    214 H214       -7.0830  -23.7592  -43.1870 H         1 UNK         0.0600 
    215 H215       -7.6570  -23.0836  -47.2857 H         1 UNK         0.3000 
    216 H216       -7.9125  -20.2750  -47.8807 H         1 UNK         0.0600 
    217 H217       -8.8649  -21.1365  -50.0247 H         1 UNK         0.0600 
    218 H218       -9.5663  -21.9704  -48.6485 H         1 UNK         0.0600 
    219 H219       -8.3324  -22.7660  -49.6260 H         1 UNK         0.0600 
    220 H220       -5.3686  -22.5689  -48.3742 H         1 UNK         0.3000 
    221 H221       -3.4067  -22.5866  -49.3756 H         1 UNK         0.0600 
    222 H222       -3.5621  -19.5422  -49.0768 H         1 UNK         0.0600 
    223 H223       -3.2086  -20.6601  -47.7655 H         1 UNK         0.0600 
    224 H224       -2.1054  -20.5325  -49.1333 H         1 UNK         0.0600 
    225 H225       -5.2230  -22.9865  -51.2733 H         1 UNK         0.3000 
    226 H226       -5.7015  -23.0349  -53.4427 H         1 UNK         0.0600 
    227 H227       -3.2620  -23.5686  -53.6862 H         1 UNK         0.0600 
    228 H228       -3.8988  -22.7306  -55.0920 H         1 UNK         0.0600 
    229 H229       -2.9117  -21.8579  -53.9301 H         1 UNK         0.0600 
    230 H230       -6.7659  -20.9529  -52.0539 H         1 UNK         0.3000 
    231 H231       -7.9035  -19.0658  -52.1632 H         1 UNK         0.0600 
    232 H232       -8.6880  -18.1708  -54.3231 H         1 UNK         0.0600 
    233 H233       -8.7988  -19.9235  -54.3303 H         1 UNK         0.0600 
    234 H234       -7.4963  -19.1164  -55.2019 H         1 UNK         0.0600 
    235 H235       -5.5871  -18.7599  -51.1575 H         1 UNK         0.3000 
    236 H236       -3.9492  -17.4150  -50.5276 H         1 UNK         0.0600 
    237 H237       -5.5566  -15.2058  -51.9217 H         1 UNK         0.0600 
    238 H238       -5.8126  -15.7943  -50.2803 H         1 UNK         0.0600 
    239 H239       -4.3180  -14.9690  -50.6986 H         1 UNK         0.0600 
    240 H240       -2.8317  -18.8577  -52.2235 H         1 UNK         0.3000 
    241 H241       -1.0438  -19.1194  -53.4613 H         1 UNK         0.0600 
    242 H242       -3.7627  -18.8124  -54.8400 H         1 UNK         0.3800 
    243 H243       -3.3133  -18.5031  -56.4907 H         1 UNK         0.3800 
    244 H244       -0.5967  -16.1037  -53.6150 H         1 UNK         0.0800 
    245 H245        0.5571  -17.3209  -54.0395 H         1 UNK         0.0800 
    246 H246        2.1851  -18.2371  -52.7490 H         1 UNK         0.0800 
    247 H247        1.3699  -19.2799  -51.6113 H         1 UNK         0.0800 
@<TRIPOS>BOND
     1    1    2 1    
     2    1  127 1    
     3    1  128 1    
     4    1  129 1    
     5    2    3 2    
     6    2    4 am   BACKBONE|DICT|INTERRES
     7    4    5 1    
     8    4  130 1    
     9    5    6 1    
    10    5   65 1    
    11    5  131 1    
    12    6    7 1    
    13    6  132 1    
    14    6  133 1    
    15    7    8 1    
    16    8    9 1    
    17    8  134 1    
    18    8  135 1    
    19    9   10 ar   
    20    9   14 ar   
    21   10   11 ar   
    22   10  136 1    
    23   11   12 ar   
    24   11  126 1    
    25   12   13 ar   
    26   12  137 1    
    27   13   14 ar   
    28   13   15 1    
    29   14  138 1    
    30   15   16 1    
    31   15  139 1    
    32   15  140 1    
    33   16   17 1    
    34   17   18 1    
    35   17  141 1    
    36   17  142 1    
    37   18   19 1    
    38   18   67 1    
    39   18  143 1    
    40   19   20 am   BACKBONE|DICT|INTERRES
    41   19  144 1    
    42   20   21 2    
    43   20   22 1    
    44   22   23 1    
    45   22   24 1    
    46   22  145 1    
    47   23  146 1    
    48   23  147 1    
    49   23  148 1    
    50   24   25 am   BACKBONE|DICT|INTERRES
    51   24  149 1    
    52   25   26 2    
    53   25   27 1    
    54   27   28 1    
    55   27   29 1    
    56   27  150 1    
    57   28  151 1    
    58   28  152 1    
    59   28  153 1    
    60   29   30 am   BACKBONE|DICT|INTERRES
    61   29  154 1    
    62   30   31 2    
    63   30   32 1    
    64   32   33 1    
    65   32   34 1    
    66   32  155 1    
    67   33  156 1    
    68   33  157 1    
    69   33  158 1    
    70   34   35 am   BACKBONE|DICT|INTERRES
    71   34  159 1    
    72   35   36 2    
    73   35   37 1    
    74   37   38 1    
    75   37   39 1    
    76   37  160 1    
    77   38  161 1    
    78   38  162 1    
    79   38  163 1    
    80   39   40 am   BACKBONE|DICT|INTERRES
    81   39  164 1    
    82   40   41 2    
    83   40   42 1    
    84   42   43 1    
    85   42   44 1    
    86   42  165 1    
    87   43  166 1    
    88   43  167 1    
    89   43  168 1    
    90   44   45 am   BACKBONE|DICT|INTERRES
    91   44  169 1    
    92   45   46 2    
    93   45   47 1    
    94   47   48 1    
    95   47   49 1    
    96   47  170 1    
    97   48  171 1    
    98   48  172 1    
    99   48  173 1    
   100   49   50 am   BACKBONE|DICT|INTERRES
   101   49  174 1    
   102   50   51 2    
   103   50   52 1    
   104   52   53 1    
   105   52   54 1    
   106   52  175 1    
   107   53  176 1    
   108   53  177 1    
   109   53  178 1    
   110   54   55 am   BACKBONE|DICT|INTERRES
   111   54  179 1    
   112   55   56 2    
   113   55   57 1    
   114   57   58 1    
   115   57   59 1    
   116   57  180 1    
   117   58  181 1    
   118   58  182 1    
   119   58  183 1    
   120   59   60 am   BACKBONE|DICT|INTERRES
   121   59  184 1    
   122   60   61 2    
   123   60   62 1    
   124   62   63 1    
   125   62   64 1    
   126   62  185 1    
   127   63  186 1    
   128   63  187 1    
   129   63  188 1    
   130   64   65 am   BACKBONE|DICT|INTERRES
   131   64  189 1    
   132   65   66 2    
   133   67   68 2    
   134   67   69 am   BACKBONE|DICT|INTERRES
   135   69   70 1    
   136   69  190 1    
   137   70   71 1    
   138   70   72 1    
   139   70  191 1    
   140   71  192 1    
   141   71  193 1    
   142   71  194 1    
   143   72   73 2    
   144   72   74 am   BACKBONE|DICT|INTERRES
   145   74   75 1    
   146   74  195 1    
   147   75   76 1    
   148   75   77 1    
   149   75  196 1    
   150   76  197 1    
   151   76  198 1    
   152   76  199 1    
   153   77   78 2    
   154   77   79 am   BACKBONE|DICT|INTERRES
   155   79   80 1    
   156   79  200 1    
   157   80   81 1    
   158   80   82 1    
   159   80  201 1    
   160   81  202 1    
   161   81  203 1    
   162   81  204 1    
   163   82   83 2    
   164   82   84 am   BACKBONE|DICT|INTERRES
   165   84   85 1    
   166   84  205 1    
   167   85   86 1    
   168   85   87 1    
   169   85  206 1    
   170   86  207 1    
   171   86  208 1    
   172   86  209 1    
   173   87   88 2    
   174   87   89 am   BACKBONE|DICT|INTERRES
   175   89   90 1    
   176   89  210 1    
   177   90   91 1    
   178   90   92 1    
   179   90  211 1    
   180   91  212 1    
   181   91  213 1    
   182   91  214 1    
   183   92   93 2    
   184   92   94 am   BACKBONE|DICT|INTERRES
   185   94   95 1    
   186   94  215 1    
   187   95   96 1    
   188   95   97 1    
   189   95  216 1    
   190   96  217 1    
   191   96  218 1    
   192   96  219 1    
   193   97   98 2    
   194   97   99 am   BACKBONE|DICT|INTERRES
   195   99  100 1    
   196   99  220 1    
   197  100  101 1    
   198  100  102 1    
   199  100  221 1    
   200  101  222 1    
   201  101  223 1    
   202  101  224 1    
   203  102  103 2    
   204  102  104 am   BACKBONE|DICT|INTERRES
   205  104  105 1    
   206  104  225 1    
   207  105  106 1    
   208  105  107 1    
   209  105  226 1    
   210  106  227 1    
   211  106  228 1    
   212  106  229 1    
   213  107  108 2    
   214  107  109 am   BACKBONE|DICT|INTERRES
   215  109  110 1    
   216  109  230 1    
   217  110  111 1    
   218  110  112 1    
   219  110  231 1    
   220  111  232 1    
   221  111  233 1    
   222  111  234 1    
   223  112  113 2    
   224  112  114 am   BACKBONE|DICT|INTERRES
   225  114  115 1    
   226  114  235 1    
   227  115  116 1    
   228  115  117 1    
   229  115  236 1    
   230  116  237 1    
   231  116  238 1    
   232  116  239 1    
   233  117  118 2    
   234  117  119 am   BACKBONE|DICT|INTERRES
   235  119  120 1    
   236  119  240 1    
   237  120  121 1    
   238  120  124 1    
   239  120  241 1    
   240  121  122 am   BACKBONE|DICT|INTERRES
   241  121  123 2    
   242  122  242 1    
   243  122  243 1    
   244  124  125 1    
   245  124  244 1    
   246  124  245 1    
   247  125  126 1    
   248  126  246 1    
   249  126  247 1    
@<TRIPOS>SUBSTRUCTURE
     1 UNK         1 GROUP             0       ****    0 ROOT    
