@<TRIPOS>MOLECULE
3R540
247   249    1
SMALL
USER_CHARGES


@<TRIPOS>ATOM
      1 CA          0.1891  -14.9661  -51.3498 C.3       0 UNK        -0.1800 
      2 C           1.1251  -15.1293  -50.1600 C.2       0 UNK         0.5000 
      3 O           0.7768  -15.8201  -49.2053 O.2       0 UNK        -0.5000 
      4 N           2.2983  -14.4802  -50.2131 N.am      1 UNK        -0.5000 
      5 CA          3.4154  -14.5802  -49.2561 C.3       1 UNK         0.1400 
      6 C6          4.1878  -15.9247  -49.3512 C.3       23 UNK        -0.0398 
      7 S7          4.7747  -16.3132  -51.0389 S.3       23 UNK        -0.2404 
      8 C8          4.4357  -18.1004  -51.1615 C.3       23 UNK        -0.0205 
      9 C9          2.9662  -18.3919  -51.4286 C.ar      23 UNK        -0.0193 
     10 C10         2.4807  -18.4235  -52.7385 C.ar      23 UNK        -0.1150 
     11 C11         1.1321  -18.6921  -52.9886 C.ar      23 UNK        -0.0193 
     12 C12         0.2690  -18.9147  -51.9136 C.ar      23 UNK        -0.1150 
     13 C13         0.7306  -18.8741  -50.5961 C.ar      23 UNK        -0.0193 
     14 C14         2.0913  -18.6347  -50.3670 C.ar      23 UNK        -0.1150 
     15 C15        -0.2905  -19.0445  -49.4692 C.3       23 UNK        -0.0205 
     16 S16         0.3804  -19.1583  -47.7770 S.3       23 UNK        -0.2404 
     17 C17         1.0990  -20.8308  -47.7951 C.3       23 UNK        -0.0398 
     18 CA          0.2682  -21.9028  -47.0538 C.3       11 UNK         0.1400 
     19 N           0.2457  -21.7071  -45.6004 N.am      11 UNK        -0.5000 
     20 C          -0.0125  -22.7009  -44.7385 C.2       10 UNK         0.5000 
     21 O          -0.2598  -23.8540  -45.0909 O.2       10 UNK        -0.5000 
     22 CA         -0.0331  -22.3557  -43.2404 C.3       10 UNK         0.1400 
     23 CB          1.3941  -22.2219  -42.6890 C.3       10 UNK        -0.1800 
     24 N          -0.8032  -21.1494  -42.9404 N.am      10 UNK        -0.5000 
     25 C          -2.1193  -21.0178  -43.1584 C.2       9 UNK         0.5000 
     26 O          -2.8228  -21.9035  -43.6434 O.2       9 UNK        -0.5000 
     27 CA         -2.7552  -19.6622  -42.8042 C.3       9 UNK         0.1400 
     28 CB         -3.0335  -19.5685  -41.2968 C.3       9 UNK        -0.1800 
     29 N          -1.9367  -18.5273  -43.2284 N.am      9 UNK        -0.5000 
     30 C          -1.6551  -18.2345  -44.5062 C.2       8 UNK         0.5000 
     31 O          -2.1021  -18.8671  -45.4621 O.2       8 UNK        -0.5000 
     32 CA         -0.6794  -17.0676  -44.7517 C.3       8 UNK         0.1400 
     33 CB         -1.3948  -15.7147  -44.6168 C.3       8 UNK        -0.1800 
     34 N           0.4751  -17.1024  -43.8535 N.am      8 UNK        -0.5000 
     35 C           1.3697  -18.1009  -43.7939 C.2       7 UNK         0.5000 
     36 O           1.3471  -19.0994  -44.5143 O.2       7 UNK        -0.5000 
     37 CA          2.4353  -17.9913  -42.6910 C.3       7 UNK         0.1400 
     38 CB          3.5523  -17.0140  -43.0921 C.3       7 UNK        -0.1800 
     39 N           1.8499  -17.5846  -41.4126 N.am      7 UNK        -0.5000 
     40 C           1.0166  -18.3463  -40.6880 C.2       6 UNK         0.5000 
     41 O           0.6821  -19.4869  -41.0046 O.2       6 UNK        -0.5000 
     42 CA          0.4259  -17.7118  -39.4162 C.3       6 UNK         0.1400 
     43 CB          1.4041  -17.8446  -38.2396 C.3       6 UNK        -0.1800 
     44 N           0.0785  -16.3030  -39.6019 N.am      6 UNK        -0.5000 
     45 C          -0.8864  -15.8595  -40.4204 C.2       5 UNK         0.5000 
     46 O          -1.6179  -16.5969  -41.0791 O.2       5 UNK        -0.5000 
     47 CA         -1.0158  -14.3322  -40.5663 C.3       5 UNK         0.1400 
     48 CB         -1.9308  -13.7589  -39.4742 C.3       5 UNK        -0.1800 
     49 N           0.2805  -13.6490  -40.5274 N.am      5 UNK        -0.5000 
     50 C           1.2436  -13.8147  -41.4420 C.2       4 UNK         0.5000 
     51 O           1.1349  -14.5521  -42.4275 O.2       4 UNK        -0.5000 
     52 CA          2.5623  -13.0745  -41.1900 C.3       4 UNK         0.1400 
     53 CB          3.4701  -13.8761  -40.2411 C.3       4 UNK        -0.1800 
     54 N           3.2216  -12.9026  -42.4745 N.am      4 UNK        -0.5000 
     55 C           4.0650  -11.9227  -42.8134 C.2       3 UNK         0.5000 
     56 O           4.4793  -11.0703  -42.0268 O.2       3 UNK        -0.5000 
     57 CA          4.5050  -11.8792  -44.2907 C.3       3 UNK         0.1400 
     58 CB          5.8727  -12.5567  -44.4656 C.3       3 UNK        -0.1800 
     59 N           3.5409  -12.5230  -45.1866 N.am      3 UNK        -0.5000 
     60 C           2.3259  -12.0500  -45.4892 C.2       2 UNK         0.5000 
     61 O           1.9133  -10.9512  -45.1141 O.2       2 UNK        -0.5000 
     62 CA          1.4336  -12.9711  -46.3478 C.3       2 UNK         0.1400 
     63 CB          0.0435  -12.3716  -46.6245 C.3       2 UNK        -0.1800 
     64 N           2.0514  -13.3338  -47.6244 N.am      2 UNK        -0.5000 
     65 C           3.0138  -14.2508  -47.7959 C.2       1 UNK         0.5000 
     66 O           3.5684  -14.8241  -46.8547 O.2       1 UNK        -0.5000 
     67 C          -1.1452  -22.1153  -47.6453 C.2       11 UNK         0.5000 
     68 O          -1.2857  -22.8434  -48.6300 O.2       11 UNK        -0.5000 
     69 N          -2.1760  -21.5244  -47.0214 N.am      12 UNK        -0.5000 
     70 CA         -3.5806  -21.7875  -47.3344 C.3       12 UNK         0.1400 
     71 CB         -4.4807  -20.7538  -46.6436 C.3       12 UNK        -0.1800 
     72 C          -3.9885  -23.2251  -46.9670 C.2       12 UNK         0.5000 
     73 O          -4.6012  -23.9029  -47.7899 O.2       12 UNK        -0.5000 
     74 N          -3.5872  -23.6925  -45.7755 N.am      13 UNK        -0.5000 
     75 CA         -3.7876  -25.0692  -45.3101 C.3       13 UNK         0.1400 
     76 CB         -3.3690  -25.1819  -43.8366 C.3       13 UNK        -0.1800 
     77 C          -3.0500  -26.1146  -46.1711 C.2       13 UNK         0.5000 
     78 O          -3.5751  -27.2080  -46.3824 O.2       13 UNK        -0.5000 
     79 N          -1.8722  -25.7429  -46.6915 N.am      14 UNK        -0.5000 
     80 CA         -1.0915  -26.5184  -47.6596 C.3       14 UNK         0.1400 
     81 CB          0.3559  -26.0020  -47.6569 C.3       14 UNK        -0.1800 
     82 C          -1.6700  -26.4901  -49.0925 C.2       14 UNK         0.5000 
     83 O          -1.1585  -27.2057  -49.9544 O.2       14 UNK        -0.5000 
     84 N          -2.7068  -25.6712  -49.3253 N.am      15 UNK        -0.5000 
     85 CA         -3.4208  -25.4611  -50.5868 C.3       15 UNK         0.1400 
     86 CB         -4.1275  -26.7511  -51.0530 C.3       15 UNK        -0.1800 
     87 C          -2.5607  -24.8031  -51.6848 C.2       15 UNK         0.5000 
     88 O          -2.7835  -25.0553  -52.8699 O.2       15 UNK        -0.5000 
     89 N          -1.6162  -23.9397  -51.2815 N.am      16 UNK        -0.5000 
     90 CA         -0.9393  -23.0065  -52.1864 C.3       16 UNK         0.1400 
     91 CB          0.3894  -22.5511  -51.5681 C.3       16 UNK        -0.1800 
     92 C          -1.8465  -21.7997  -52.4921 C.2       16 UNK         0.5000 
     93 O          -1.8290  -21.2902  -53.6116 O.2       16 UNK        -0.5000 
     94 N          -2.6508  -21.4017  -51.4974 N.am      17 UNK        -0.5000 
     95 CA         -3.8021  -20.5173  -51.6447 C.3       17 UNK         0.1400 
     96 CB         -3.6444  -19.2863  -50.7311 C.3       17 UNK        -0.1800 
     97 C          -5.0719  -21.3459  -51.3733 C.2       17 UNK         0.5000 
     98 O          -5.1501  -22.4866  -51.8347 O.2       17 UNK        -0.5000 
     99 N          -6.0521  -20.7728  -50.6592 N.am      18 UNK        -0.5000 
    100 CA        -7.3658  -21.3534  -50.3545 C.3       18 UNK         0.1400 
    101 CB        -7.2314  -22.5304  -49.3624 C.3       18 UNK        -0.1800 
    102 C         -8.1201  -21.7085  -51.6515 C.2       18 UNK         0.5000 
    103 O         -8.5060  -20.7963  -52.3828 O.2       18 UNK        -0.5000 
    104 N         -8.2610  -23.0072  -51.9484 N.am      19 UNK        -0.5000 
    105 CA        -8.8514  -23.5330  -53.1812 C.3       19 UNK         0.1400 
    106 CB        -8.9897  -25.0580  -53.0564 C.3       19 UNK        -0.1800 
    107 C         -8.0613  -23.1666  -54.4549 C.2       19 UNK         0.5000 
    108 O         -8.6666  -23.0321  -55.5188 O.2       19 UNK        -0.5000 
    109 N         -6.7374  -22.9928  -54.3278 N.am      20 UNK        -0.5000 
    110 CA        -5.8555  -22.5533  -55.4127 C.3       20 UNK         0.1400 
    111 CB        -4.4531  -23.1320  -55.1800 C.3       20 UNK        -0.1800 
    112 C         -5.7971  -21.0180  -55.5485 C.2       20 UNK         0.5000 
    113 O         -5.3029  -20.5251  -56.5631 O.2       20 UNK        -0.5000 
    114 N         -6.2999  -20.2961  -54.5348 N.am      21 UNK        -0.5000 
    115 CA        -6.4492  -18.8416  -54.3924 C.3       21 UNK         0.1400 
    116 CB        -7.4226  -18.2866  -55.4481 C.3       21 UNK        -0.1800 
    117 C         -5.1449  -18.0180  -54.3685 C.2       21 UNK         0.5000 
    118 O         -5.0241  -17.1189  -53.5359 O.2       21 UNK        -0.5000 
    119 N         -4.2105  -18.3068  -55.2804 N.am      22 UNK        -0.5000 
    120 CA        -2.9634  -17.5742  -55.5692 C.3       22 UNK         0.1400 
    121 C         -3.1885  -16.1542  -56.1711 C.2       22 UNK         0.5000 
    122 N         -4.0494  -15.3286  -55.5914 N.am      22 UNK        -0.7600 
    123 O         -2.5925  -15.8071  -57.1870 O.2       22 UNK        -0.5000 
    124 C124       -1.9813  -17.5464  -54.3657 C.3       23 UNK        -0.0398 
    125 S125       -0.2554  -17.2022  -54.8692 S.3       23 UNK        -0.2404 
    126 C126        0.6104  -18.7384  -54.4174 C.3       23 UNK        -0.0205 
    127 H127       -0.0212  -15.9390  -51.7942 H         1 UNK         0.0600 
    128 H128        0.6196  -14.3284  -52.1221 H         1 UNK         0.0600 
    129 H129       -0.7549  -14.5260  -51.0289 H         1 UNK         0.0600 
    130 H130        2.4972  -13.9202  -51.0300 H         1 UNK         0.3000 
    131 H131        4.1131  -13.7916  -49.5416 H         1 UNK         0.0600 
    132 H132        5.0688  -15.9025  -48.7074 H         1 UNK         0.0800 
    133 H133        3.5652  -16.7333  -48.9733 H         1 UNK         0.0800 
    134 H134        5.0402  -18.5148  -51.9697 H         1 UNK         0.0800 
    135 H135        4.7672  -18.6019  -50.2509 H         1 UNK         0.0800 
    136 H136        3.1544  -18.2366  -53.5629 H         1 UNK         0.1150 
    137 H137       -0.7748  -19.1063  -52.1028 H         1 UNK         0.1150 
    138 H138        2.4751  -18.6060  -49.3597 H         1 UNK         0.1150 
    139 H139       -0.9569  -18.1816  -49.4924 H         1 UNK         0.0800 
    140 H140       -0.9086  -19.9205  -49.6650 H         1 UNK         0.0800 
    141 H141        2.0881  -20.7649  -47.3401 H         1 UNK         0.0800 
    142 H142        1.2813  -21.1399  -48.8238 H         1 UNK         0.0800 
    143 H143        0.7999  -22.8402  -47.2270 H         1 UNK         0.0600 
    144 H144        0.4527  -20.7741  -45.2537 H         1 UNK         0.3000 
    145 H145       -0.5137  -23.1875  -42.7212 H         1 UNK         0.0600 
    146 H146        1.3869  -22.0943  -41.6065 H         1 UNK         0.0600 
    147 H147        1.9174  -21.3696  -43.1226 H         1 UNK         0.0600 
    148 H148        1.9825  -23.1142  -42.9060 H         1 UNK         0.0600 
    149 H149       -0.2977  -20.3874  -42.4997 H         1 UNK         0.3000 
    150 H150       -3.7109  -19.5978  -43.3284 H         1 UNK         0.0600 
    151 H151       -2.1118  -19.5866  -40.7147 H         1 UNK         0.0600 
    152 H152       -3.6518  -20.4018  -40.9608 H         1 UNK         0.0600 
    153 H153       -3.5656  -18.6493  -41.0514 H         1 UNK         0.0600 
    154 H154       -1.5809  -17.9222  -42.4940 H         1 UNK         0.3000 
    155 H155       -0.3049  -17.1485  -45.7731 H         1 UNK         0.0600 
    156 H156       -2.2243  -15.6423  -45.3211 H         1 UNK         0.0600 
    157 H157       -0.7182  -14.8865  -44.8246 H         1 UNK         0.0600 
    158 H158       -1.8004  -15.5696  -43.6156 H         1 UNK         0.0600 
    159 H159        0.5931  -16.3081  -43.2330 H         1 UNK         0.3000 
    160 H160        2.8827  -18.9787  -42.5590 H         1 UNK         0.0600 
    161 H161        3.1764  -16.0035  -43.2494 H         1 UNK         0.0600 
    162 H162        4.0274  -17.3303  -44.0216 H         1 UNK         0.0600 
    163 H163        4.3296  -16.9679  -42.3294 H         1 UNK         0.0600 
    164 H164        2.0338  -16.6417  -41.1069 H         1 UNK         0.3000 
    165 H165       -0.4870  -18.2561  -39.1653 H         1 UNK         0.0600 
    166 H166        0.9637  -17.4675  -37.3165 H         1 UNK         0.0600 
    167 H167        1.6688  -18.8891  -38.0690 H         1 UNK         0.0600 
    168 H168        2.3298  -17.2962  -38.4191 H         1 UNK         0.0600 
    169 H169        0.6286  -15.6257  -39.0953 H         1 UNK         0.3000 
    170 H170       -1.4744  -14.1302  -41.5366 H         1 UNK         0.0600 
    171 H171       -1.5128  -13.9068  -38.4777 H         1 UNK         0.0600 
    172 H172       -2.0922  -12.6901  -39.6160 H         1 UNK         0.0600 
    173 H173       -2.9099  -14.2395  -39.4942 H         1 UNK         0.0600 
    174 H174        0.4420  -13.0298  -39.7458 H         1 UNK         0.3000 
    175 H175        2.3393  -12.0969  -40.7574 H         1 UNK         0.0600 
    176 H176        3.7153  -14.8566  -40.6511 H         1 UNK         0.0600 
    177 H177        4.4067  -13.3501  -40.0552 H         1 UNK         0.0600 
    178 H178        2.9900  -14.0322  -39.2744 H         1 UNK         0.0600 
    179 H179        2.8925  -13.5368  -43.1909 H         1 UNK         0.3000 
    180 H180        4.5985  -10.8305  -44.5802 H         1 UNK         0.0600 
    181 H181        6.2226  -12.4787  -45.4951 H         1 UNK         0.0600 
    182 H182        5.8332  -13.6150  -44.2037 H         1 UNK         0.0600 
    183 H183        6.6254  -12.0882  -43.8302 H         1 UNK         0.0600 
    184 H184        3.7993  -13.4260  -45.5758 H         1 UNK         0.3000 
    185 H185        1.2835  -13.8858  -45.7701 H         1 UNK         0.0600 
    186 H186       -0.5854  -13.0746  -47.1715 H         1 UNK         0.0600 
    187 H187       -0.4735  -12.1350  -45.6936 H         1 UNK         0.0600 
    188 H188        0.1092  -11.4532  -47.2092 H         1 UNK         0.0600 
    189 H189        1.6625  -12.8998  -48.4486 H         1 UNK         0.3000 
    190 H190       -1.9897  -20.8821  -46.2592 H         1 UNK         0.3000 
    191 H191       -3.7136  -21.6764  -48.4120 H         1 UNK         0.0600 
    192 H192       -4.2523  -19.7448  -46.9871 H         1 UNK         0.0600 
    193 H193       -4.3613  -20.7722  -45.5606 H         1 UNK         0.0600 
    194 H194       -5.5328  -20.9388  -46.8595 H         1 UNK         0.0600 
    195 H195       -3.1250  -23.0592  -45.1276 H         1 UNK         0.3000 
    196 H196       -4.8556  -25.2867  -45.3754 H         1 UNK         0.0600 
    197 H197       -3.9487  -24.5041  -43.2098 H         1 UNK         0.0600 
    198 H198       -2.3142  -24.9449  -43.6975 H         1 UNK         0.0600 
    199 H199       -3.5315  -26.1925  -43.4599 H         1 UNK         0.0600 
    200 H200       -1.4720  -24.8610  -46.3893 H         1 UNK         0.3000 
    201 H201       -1.0803  -27.5603  -47.3336 H         1 UNK         0.0600 
    202 H202        0.7776  -26.0034  -46.6516 H         1 UNK         0.0600 
    203 H203        0.4181  -24.9875  -48.0490 H         1 UNK         0.0600 
    204 H204        0.9959  -26.6299  -48.2777 H         1 UNK         0.0600 
    205 H205       -3.0552  -25.1197  -48.5502 H         1 UNK         0.3000 
    206 H206       -4.2034  -24.7350  -50.3629 H         1 UNK         0.0600 
    207 H207       -4.7919  -26.5491  -51.8940 H         1 UNK         0.0600 
    208 H208       -3.4156  -27.5113  -51.3751 H         1 UNK         0.0600 
    209 H209       -4.7369  -27.1761  -50.2554 H         1 UNK         0.0600 
    210 H210       -1.4812  -23.7848  -50.2856 H         1 UNK         0.3000 
    211 H211       -0.7176  -23.5138  -53.1278 H         1 UNK         0.0600 
    212 H212        0.2284  -21.9757  -50.6589 H         1 UNK         0.0600 
    213 H213        0.9430  -21.9161  -52.2609 H         1 UNK         0.0600 
    214 H214        1.0254  -23.4013  -51.3219 H         1 UNK         0.0600 
    215 H215       -2.6063  -21.9252  -50.6349 H         1 UNK         0.3000 
    216 H216       -3.8806  -20.1652  -52.6744 H         1 UNK         0.0600 
    217 H217       -4.4878  -18.6021  -50.8300 H         1 UNK         0.0600 
    218 H218       -2.7605  -18.7139  -51.0057 H         1 UNK         0.0600 
    219 H219       -3.5524  -19.5623  -49.6801 H         1 UNK         0.0600 
    220 H220       -5.9159  -19.8245  -50.3391 H         1 UNK         0.3000 
    221 H221       -7.9504  -20.5738  -49.8639 H         1 UNK         0.0600 
    222 H222       -6.6025  -23.3344  -49.7459 H         1 UNK         0.0600 
    223 H223       -6.7928  -22.1957  -48.4238 H         1 UNK         0.0600 
    224 H224       -8.2063  -22.9559  -49.1214 H         1 UNK         0.0600 
    225 H225       -7.8780  -23.6862  -51.3068 H         1 UNK         0.3000 
    226 H226       -9.8511  -23.1052  -53.2812 H         1 UNK         0.0600 
    227 H227       -9.6171  -25.3296  -52.2072 H         1 UNK         0.0600 
    228 H228       -9.4512  -25.4830  -53.9487 H         1 UNK         0.0600 
    229 H229       -8.0199  -25.5404  -52.9266 H         1 UNK         0.0600 
    230 H230       -6.3073  -23.1026  -53.4144 H         1 UNK         0.3000 
    231 H231       -6.2241  -22.9482  -56.3617 H         1 UNK         0.0600 
    232 H232       -3.7653  -22.8343  -55.9724 H         1 UNK         0.0600 
    233 H233       -4.4740  -24.2216  -55.1591 H         1 UNK         0.0600 
    234 H234       -4.0308  -22.7911  -54.2361 H         1 UNK         0.0600 
    235 H235       -6.7231  -20.8239  -53.7830 H         1 UNK         0.3000 
    236 H236       -6.9166  -18.6968  -53.4170 H         1 UNK         0.0600 
    237 H237       -7.0354  -18.4021  -56.4609 H         1 UNK         0.0600 
    238 H238       -8.3865  -18.7933  -55.3977 H         1 UNK         0.0600 
    239 H239       -7.6060  -17.2232  -55.2890 H         1 UNK         0.0600 
    240 H240       -4.4331  -19.0624  -55.9252 H         1 UNK         0.3000 
    241 H241       -2.4903  -18.1654  -56.3547 H         1 UNK         0.0600 
    242 H242       -4.2105  -14.4107  -55.9749 H         1 UNK         0.3800 
    243 H243       -4.5363  -15.6302  -54.7545 H         1 UNK         0.3800 
    244 H244       -2.2868  -16.8068  -53.6239 H         1 UNK         0.0800 
    245 H245       -2.0181  -18.5089  -53.8574 H         1 UNK         0.0800 
    246 H246        1.4410  -18.8801  -55.1104 H         1 UNK         0.0800 
    247 H247       -0.0424  -19.6001  -54.5575 H         1 UNK         0.0800 
@<TRIPOS>BOND
     1    1    2 1    
     2    1  127 1    
     3    1  128 1    
     4    1  129 1    
     5    2    3 2    
     6    2    4 am   BACKBONE|DICT|INTERRES
     7    4    5 1    
     8    4  130 1    
     9    5    6 1    
    10    5   65 1    
    11    5  131 1    
    12    6    7 1    
    13    6  132 1    
    14    6  133 1    
    15    7    8 1    
    16    8    9 1    
    17    8  134 1    
    18    8  135 1    
    19    9   10 ar   
    20    9   14 ar   
    21   10   11 ar   
    22   10  136 1    
    23   11   12 ar   
    24   11  126 1    
    25   12   13 ar   
    26   12  137 1    
    27   13   14 ar   
    28   13   15 1    
    29   14  138 1    
    30   15   16 1    
    31   15  139 1    
    32   15  140 1    
    33   16   17 1    
    34   17   18 1    
    35   17  141 1    
    36   17  142 1    
    37   18   19 1    
    38   18   67 1    
    39   18  143 1    
    40   19   20 am   BACKBONE|DICT|INTERRES
    41   19  144 1    
    42   20   21 2    
    43   20   22 1    
    44   22   23 1    
    45   22   24 1    
    46   22  145 1    
    47   23  146 1    
    48   23  147 1    
    49   23  148 1    
    50   24   25 am   BACKBONE|DICT|INTERRES
    51   24  149 1    
    52   25   26 2    
    53   25   27 1    
    54   27   28 1    
    55   27   29 1    
    56   27  150 1    
    57   28  151 1    
    58   28  152 1    
    59   28  153 1    
    60   29   30 am   BACKBONE|DICT|INTERRES
    61   29  154 1    
    62   30   31 2    
    63   30   32 1    
    64   32   33 1    
    65   32   34 1    
    66   32  155 1    
    67   33  156 1    
    68   33  157 1    
    69   33  158 1    
    70   34   35 am   BACKBONE|DICT|INTERRES
    71   34  159 1    
    72   35   36 2    
    73   35   37 1    
    74   37   38 1    
    75   37   39 1    
    76   37  160 1    
    77   38  161 1    
    78   38  162 1    
    79   38  163 1    
    80   39   40 am   BACKBONE|DICT|INTERRES
    81   39  164 1    
    82   40   41 2    
    83   40   42 1    
    84   42   43 1    
    85   42   44 1    
    86   42  165 1    
    87   43  166 1    
    88   43  167 1    
    89   43  168 1    
    90   44   45 am   BACKBONE|DICT|INTERRES
    91   44  169 1    
    92   45   46 2    
    93   45   47 1    
    94   47   48 1    
    95   47   49 1    
    96   47  170 1    
    97   48  171 1    
    98   48  172 1    
    99   48  173 1    
   100   49   50 am   BACKBONE|DICT|INTERRES
   101   49  174 1    
   102   50   51 2    
   103   50   52 1    
   104   52   53 1    
   105   52   54 1    
   106   52  175 1    
   107   53  176 1    
   108   53  177 1    
   109   53  178 1    
   110   54   55 am   BACKBONE|DICT|INTERRES
   111   54  179 1    
   112   55   56 2    
   113   55   57 1    
   114   57   58 1    
   115   57   59 1    
   116   57  180 1    
   117   58  181 1    
   118   58  182 1    
   119   58  183 1    
   120   59   60 am   BACKBONE|DICT|INTERRES
   121   59  184 1    
   122   60   61 2    
   123   60   62 1    
   124   62   63 1    
   125   62   64 1    
   126   62  185 1    
   127   63  186 1    
   128   63  187 1    
   129   63  188 1    
   130   64   65 am   BACKBONE|DICT|INTERRES
   131   64  189 1    
   132   65   66 2    
   133   67   68 2    
   134   67   69 am   BACKBONE|DICT|INTERRES
   135   69   70 1    
   136   69  190 1    
   137   70   71 1    
   138   70   72 1    
   139   70  191 1    
   140   71  192 1    
   141   71  193 1    
   142   71  194 1    
   143   72   73 2    
   144   72   74 am   BACKBONE|DICT|INTERRES
   145   74   75 1    
   146   74  195 1    
   147   75   76 1    
   148   75   77 1    
   149   75  196 1    
   150   76  197 1    
   151   76  198 1    
   152   76  199 1    
   153   77   78 2    
   154   77   79 am   BACKBONE|DICT|INTERRES
   155   79   80 1    
   156   79  200 1    
   157   80   81 1    
   158   80   82 1    
   159   80  201 1    
   160   81  202 1    
   161   81  203 1    
   162   81  204 1    
   163   82   83 2    
   164   82   84 am   BACKBONE|DICT|INTERRES
   165   84   85 1    
   166   84  205 1    
   167   85   86 1    
   168   85   87 1    
   169   85  206 1    
   170   86  207 1    
   171   86  208 1    
   172   86  209 1    
   173   87   88 2    
   174   87   89 am   BACKBONE|DICT|INTERRES
   175   89   90 1    
   176   89  210 1    
   177   90   91 1    
   178   90   92 1    
   179   90  211 1    
   180   91  212 1    
   181   91  213 1    
   182   91  214 1    
   183   92   93 2    
   184   92   94 am   BACKBONE|DICT|INTERRES
   185   94   95 1    
   186   94  215 1    
   187   95   96 1    
   188   95   97 1    
   189   95  216 1    
   190   96  217 1    
   191   96  218 1    
   192   96  219 1    
   193   97   98 2    
   194   97   99 am   BACKBONE|DICT|INTERRES
   195   99  100 1    
   196   99  220 1    
   197  100  101 1    
   198  100  102 1    
   199  100  221 1    
   200  101  222 1    
   201  101  223 1    
   202  101  224 1    
   203  102  103 2    
   204  102  104 am   BACKBONE|DICT|INTERRES
   205  104  105 1    
   206  104  225 1    
   207  105  106 1    
   208  105  107 1    
   209  105  226 1    
   210  106  227 1    
   211  106  228 1    
   212  106  229 1    
   213  107  108 2    
   214  107  109 am   BACKBONE|DICT|INTERRES
   215  109  110 1    
   216  109  230 1    
   217  110  111 1    
   218  110  112 1    
   219  110  231 1    
   220  111  232 1    
   221  111  233 1    
   222  111  234 1    
   223  112  113 2    
   224  112  114 am   BACKBONE|DICT|INTERRES
   225  114  115 1    
   226  114  235 1    
   227  115  116 1    
   228  115  117 1    
   229  115  236 1    
   230  116  237 1    
   231  116  238 1    
   232  116  239 1    
   233  117  118 2    
   234  117  119 am   BACKBONE|DICT|INTERRES
   235  119  120 1    
   236  119  240 1    
   237  120  121 1    
   238  120  124 1    
   239  120  241 1    
   240  121  122 am   BACKBONE|DICT|INTERRES
   241  121  123 2    
   242  122  242 1    
   243  122  243 1    
   244  124  125 1    
   245  124  244 1    
   246  124  245 1    
   247  125  126 1    
   248  126  246 1    
   249  126  247 1    
@<TRIPOS>SUBSTRUCTURE
     1 UNK         1 GROUP             0       ****    0 ROOT    
