@<TRIPOS>MOLECULE
3R540
247   249    1
SMALL
USER_CHARGES


@<TRIPOS>ATOM
      1 CA          7.4696  -14.7125  -46.7981 C.3       0 UNK        -0.1800 
      2 C           6.4005  -13.6338  -46.7032 C.2       0 UNK         0.5000 
      3 O           6.5566  -12.5654  -47.2924 O.2       0 UNK        -0.5000 
      4 N           5.3242  -13.9102  -45.9530 N.am      1 UNK        -0.5000 
      5 CA          4.1383  -13.0605  -45.7446 C.3       1 UNK         0.1400 
      6 C6          3.3783  -12.7105  -47.0564 C.3       23 UNK        -0.0398 
      7 S7          2.3990  -14.1179  -47.6740 S.3       23 UNK        -0.2404 
      8 C8          3.5463  -14.8775  -48.8649 C.3       23 UNK        -0.0205 
      9 C9          2.8649  -15.9455  -49.7095 C.ar      23 UNK        -0.0193 
     10 C10         1.8662  -15.5767  -50.6142 C.ar      23 UNK        -0.1150 
     11 C11         1.2662  -16.5295  -51.4398 C.ar      23 UNK        -0.0193 
     12 C12         1.6706  -17.8646  -51.3592 C.ar      23 UNK        -0.1150 
     13 C13         2.6762  -18.2483  -50.4675 C.ar      23 UNK        -0.0193 
     14 C14         3.2621  -17.2859  -49.6356 C.ar      23 UNK        -0.1150 
     15 C15         3.1806  -19.6857  -50.4616 C.3       23 UNK        -0.0205 
     16 S16         2.5653  -20.6525  -49.0504 S.3       23 UNK        -0.2404 
     17 C17         0.8182  -20.9332  -49.4996 C.3       23 UNK        -0.0398 
     18 CA          0.1578  -21.9706  -48.5579 C.3       11 UNK         0.1400 
     19 N           0.0246  -21.4769  -47.1823 N.am      11 UNK        -0.5000 
     20 C          -0.2972  -22.2343  -46.1250 C.2       10 UNK         0.5000 
     21 O          -0.4803  -23.4477  -46.1922 O.2       10 UNK        -0.5000 
     22 CA         -0.5023  -21.5193  -44.7759 C.3       10 UNK         0.1400 
     23 CB          0.8390  -21.2711  -44.0712 C.3       10 UNK        -0.1800 
     24 N          -1.2426  -20.2638  -44.9117 N.am      10 UNK        -0.5000 
     25 C          -2.5134  -20.1821  -45.3323 C.2       9 UNK         0.5000 
     26 O          -3.2080  -21.1634  -45.5925 O.2       9 UNK        -0.5000 
     27 CA         -3.0912  -18.7731  -45.5529 C.3       9 UNK         0.1400 
     28 CB         -3.6215  -18.1780  -44.2402 C.3       9 UNK        -0.1800 
     29 N          -2.1134  -17.8651  -46.1496 N.am      9 UNK        -0.5000 
     30 C          -1.6247  -17.9902  -47.3922 C.2       8 UNK         0.5000 
     31 O          -1.9913  -18.8531  -48.1914 O.2       8 UNK        -0.5000 
     32 CA         -0.4934  -17.0193  -47.7738 C.3       8 UNK         0.1400 
     33 CB         -1.0710  -15.6578  -48.1894 C.3       8 UNK        -0.1800 
     34 N           0.4694  -16.8426  -46.6819 N.am      8 UNK        -0.5000 
     35 C           1.2527  -17.8261  -46.2137 C.2       7 UNK         0.5000 
     36 O           1.2427  -18.9656  -46.6674 O.2       7 UNK        -0.5000 
     37 CA          2.1444  -17.5274  -44.9939 C.3       7 UNK         0.1400 
     38 CB          3.5319  -17.0347  -45.4252 C.3       7 UNK        -0.1800 
     39 N           1.5410  -16.5788  -44.0587 N.am      7 UNK        -0.5000 
     40 C           0.4234  -16.8227  -43.3589 C.2       6 UNK         0.5000 
     41 O          -0.1898  -17.8894  -43.4095 O.2       6 UNK        -0.5000 
     42 CA         -0.1209  -15.6739  -42.4880 C.3       6 UNK         0.1400 
     43 CB          0.3663  -15.8270  -41.0403 C.3       6 UNK        -0.1800 
     44 N           0.2278  -14.3385  -42.9897 N.am      6 UNK        -0.5000 
     45 C          -0.1956  -13.8441  -44.1647 C.2       5 UNK         0.5000 
     46 O          -0.9045  -14.4888  -44.9382 O.2       5 UNK        -0.5000 
     47 CA          0.2824  -12.4343  -44.5781 C.3       5 UNK         0.1400 
     48 CB         -0.7552  -11.6820  -45.4362 C.3       5 UNK        -0.1800 
     49 N           0.7642  -11.5963  -43.4746 N.am      5 UNK        -0.5000 
     50 C           0.0562  -11.1464  -42.4280 C.2       4 UNK         0.5000 
     51 O          -1.1453  -11.3700  -42.2696 O.2       4 UNK        -0.5000 
     52 CA          0.8371  -10.3272  -41.3738 C.3       4 UNK         0.1400 
     53 CB          0.0788  -10.2126  -40.0351 C.3       4 UNK        -0.1800 
     54 N           2.2056  -10.8047  -41.1274 N.am      4 UNK        -0.5000 
     55 C           2.5880  -12.0442  -40.7874 C.2       3 UNK         0.5000 
     56 O           1.8205  -13.0061  -40.7479 O.2       3 UNK        -0.5000 
     57 CA          4.0881  -12.2395  -40.4811 C.3       3 UNK         0.1400 
     58 CB          4.4164  -13.6747  -40.0299 C.3       3 UNK        -0.1800 
     59 N           4.9115  -11.9183  -41.6449 N.am      3 UNK        -0.5000 
     60 C           5.2531  -10.6881  -42.0508 C.2       2 UNK         0.5000 
     61 O           4.9610   -9.6616  -41.4358 O.2       2 UNK        -0.5000 
     62 CA          5.9949  -10.5912  -43.3987 C.3       2 UNK         0.1400 
     63 CB          7.5153  -10.6255  -43.1839 C.3       2 UNK        -0.1800 
     64 N           5.6170  -11.6535  -44.3367 N.am      2 UNK        -0.5000 
     65 C           4.3923  -11.8186  -44.8581 C.2       1 UNK         0.5000 
     66 O           3.4496  -11.0684  -44.5992 O.2       1 UNK        -0.5000 
     67 C          -1.1852  -22.4821  -49.1234 C.2       11 UNK         0.5000 
     68 O          -1.1975  -23.5091  -49.8027 O.2       11 UNK        -0.5000 
     69 N          -2.2955  -21.8027  -48.7987 N.am      12 UNK        -0.5000 
     70 CA         -3.6519  -22.2540  -49.1205 C.3       12 UNK         0.1400 
     71 CB         -4.6544  -21.1240  -48.8471 C.3       12 UNK        -0.1800 
     72 C          -4.0409  -23.5342  -48.3550 C.2       12 UNK         0.5000 
     73 O          -4.5972  -24.4554  -48.9537 O.2       12 UNK        -0.5000 
     74 N          -3.7092  -23.5900  -47.0569 N.am      13 UNK        -0.5000 
     75 CA         -3.9307  -24.7474  -46.1869 C.3       13 UNK         0.1400 
     76 CB         -3.6478  -24.3635  -44.7274 C.3       13 UNK        -0.1800 
     77 C          -3.1028  -25.9783  -46.5992 C.2       13 UNK         0.5000 
     78 O          -3.6192  -27.0943  -46.5541 O.2       13 UNK        -0.5000 
     79 N          -1.8584  -25.7600  -47.0468 N.am      14 UNK        -0.5000 
     80 CA         -0.9746  -26.7858  -47.6100 C.3       14 UNK         0.1400 
     81 CB          0.4268  -26.1943  -47.8220 C.3       14 UNK        -0.1800 
     82 C          -1.5122  -27.3899  -48.9226 C.2       14 UNK         0.5000 
     83 O          -1.2662  -28.5644  -49.1972 O.2       14 UNK        -0.5000 
     84 N          -2.2763  -26.5923  -49.6802 N.am      15 UNK        -0.5000 
     85 CA         -3.0272  -27.0091  -50.8645 C.3       15 UNK         0.1400 
     86 CB         -3.1156  -25.8198  -51.8354 C.3       15 UNK        -0.1800 
     87 C          -4.4315  -27.5531  -50.5187 C.2       15 UNK         0.5000 
     88 O          -5.2405  -27.7432  -51.4276 O.2       15 UNK        -0.5000 
     89 N          -4.7225  -27.7598  -49.2234 N.am      16 UNK        -0.5000 
     90 CA         -5.9752  -28.2690  -48.6492 C.3       16 UNK         0.1400 
     91 CB         -6.1832  -29.7451  -49.0473 C.3       16 UNK        -0.1800 
     92 C          -7.2078  -27.3944  -48.9641 C.2       16 UNK         0.5000 
     93 O          -8.3315  -27.8995  -48.9601 O.2       16 UNK        -0.5000 
     94 N          -6.9709  -26.1081  -49.2657 N.am      17 UNK        -0.5000 
     95 CA         -7.9248  -25.1158  -49.7704 C.3       17 UNK         0.1400 
     96 CB         -8.9891  -24.7829  -48.7048 C.3       17 UNK        -0.1800 
     97 C          -8.5438  -25.4757  -51.1420 C.2       17 UNK         0.5000 
     98 O          -9.5453  -24.8709  -51.5293 O.2       17 UNK        -0.5000 
     99 N          -7.9402  -26.4298  -51.8701 N.am      18 UNK        -0.5000 
    100 CA        -8.3272  -26.7955  -53.2348 C.3       18 UNK         0.1400 
    101 CB        -7.8030  -28.2026  -53.5586 C.3       18 UNK        -0.1800 
    102 C         -7.8104  -25.7697  -54.2597 C.2       18 UNK         0.5000 
    103 O         -8.4417  -25.5744  -55.2991 O.2       18 UNK        -0.5000 
    104 N         -6.6930  -25.1142  -53.9245 N.am      19 UNK        -0.5000 
    105 CA        -6.1818  -23.9221  -54.5886 C.3       19 UNK         0.1400 
    106 CB        -4.6735  -24.0900  -54.8326 C.3       19 UNK        -0.1800 
    107 C         -6.4459  -22.7076  -53.6841 C.2       19 UNK         0.5000 
    108 O         -6.5953  -22.8618  -52.4688 O.2       19 UNK        -0.5000 
    109 N         -6.4699  -21.5223  -54.3031 N.am      20 UNK        -0.5000 
    110 CA        -6.6700  -20.2192  -53.6673 C.3       20 UNK         0.1400 
    111 CB        -6.6275  -19.1171  -54.7362 C.3       20 UNK        -0.1800 
    112 C         -5.7570  -19.8825  -52.4608 C.2       20 UNK         0.5000 
    113 O         -6.2906  -19.4134  -51.4579 O.2       20 UNK        -0.5000 
    114 N         -4.4299  -20.0974  -52.4774 N.am      21 UNK        -0.5000 
    115 CA        -3.5402  -20.4798  -53.5805 C.3       21 UNK         0.1400 
    116 CB        -2.3896  -21.3121  -52.9895 C.3       21 UNK        -0.1800 
    117 C         -2.9830  -19.2668  -54.3518 C.2       21 UNK         0.5000 
    118 O         -2.3647  -19.4543  -55.3996 O.2       21 UNK        -0.5000 
    119 N         -3.1990  -18.0545  -53.8277 N.am      22 UNK        -0.5000 
    120 CA        -2.6291  -16.7975  -54.3435 C.3       22 UNK         0.1400 
    121 C         -3.3731  -16.1759  -55.5617 C.2       22 UNK         0.5000 
    122 N         -4.5061  -16.7093  -55.9982 N.am      22 UNK        -0.7600 
    123 O         -2.9062  -15.1929  -56.1304 O.2       22 UNK        -0.5000 
    124 C124       -2.4467  -15.7533  -53.2126 C.3       23 UNK        -0.0398 
    125 S125       -1.4634  -16.3924  -51.8147 S.3       23 UNK        -0.2404 
    126 C126        0.2135  -16.1072  -52.4485 C.3       23 UNK        -0.0205 
    127 H127        7.1999  -15.6033  -46.2303 H         1 UNK         0.0600 
    128 H128        7.6143  -15.0046  -47.8382 H         1 UNK         0.0600 
    129 H129        8.4177  -14.3369  -46.4131 H         1 UNK         0.0600 
    130 H130        5.2943  -14.8011  -45.4784 H         1 UNK         0.3000 
    131 H131        3.4664  -13.6660  -45.1346 H         1 UNK         0.0600 
    132 H132        2.6662  -11.8989  -46.9006 H         1 UNK         0.0800 
    133 H133        4.0506  -12.3484  -47.8339 H         1 UNK         0.0800 
    134 H134        4.3950  -15.2996  -48.3261 H         1 UNK         0.0800 
    135 H135        3.9479  -14.1089  -49.5266 H         1 UNK         0.0800 
    136 H136        1.5639  -14.5409  -50.6809 H         1 UNK         0.1150 
    137 H137        1.2179  -18.5993  -52.0104 H         1 UNK         0.1150 
    138 H138        4.0461  -17.5795  -48.9518 H         1 UNK         0.1150 
    139 H139        2.9182  -20.1928  -51.3914 H         1 UNK         0.0800 
    140 H140        4.2708  -19.6769  -50.4240 H         1 UNK         0.0800 
    141 H141        0.7879  -21.2777  -50.5350 H         1 UNK         0.0800 
    142 H142        0.2825  -19.9828  -49.4692 H         1 UNK         0.0800 
    143 H143        0.8167  -22.8408  -48.5178 H         1 UNK         0.0600 
    144 H144        0.2531  -20.4966  -47.0315 H         1 UNK         0.3000 
    145 H145       -1.0947  -22.1776  -44.1375 H         1 UNK         0.0600 
    146 H146        0.7016  -20.7374  -43.1306 H         1 UNK         0.0600 
    147 H147        1.3337  -22.2156  -43.8419 H         1 UNK         0.0600 
    148 H148        1.5218  -20.6924  -44.6912 H         1 UNK         0.0600 
    149 H149       -0.7523  -19.4097  -44.6690 H         1 UNK         0.3000 
    150 H150       -3.9305  -18.8639  -46.2456 H         1 UNK         0.0600 
    151 H151       -4.3857  -18.8222  -43.8036 H         1 UNK         0.0600 
    152 H152       -4.0758  -17.2009  -44.4054 H         1 UNK         0.0600 
    153 H153       -2.8322  -18.0592  -43.4982 H         1 UNK         0.0600 
    154 H154       -1.7333  -17.1435  -45.5534 H         1 UNK         0.3000 
    155 H155        0.0365  -17.4413  -48.6306 H         1 UNK         0.0600 
    156 H156       -1.8228  -15.7761  -48.9694 H         1 UNK         0.0600 
    157 H157       -0.2963  -15.0027  -48.5855 H         1 UNK         0.0600 
    158 H158       -1.5532  -15.1471  -47.3570 H         1 UNK         0.0600 
    159 H159        0.4905  -15.9358  -46.2369 H         1 UNK         0.3000 
    160 H160        2.2852  -18.4670  -44.4568 H         1 UNK         0.0600 
    161 H161        3.4737  -16.0820  -45.9441 H         1 UNK         0.0600 
    162 H162        4.0032  -17.7469  -46.1040 H         1 UNK         0.0600 
    163 H163        4.1935  -16.9155  -44.5672 H         1 UNK         0.0600 
    164 H164        1.9845  -15.6795  -43.9566 H         1 UNK         0.3000 
    165 H165       -1.2099  -15.7545  -42.4888 H         1 UNK         0.0600 
    166 H166        1.4515  -15.7424  -40.9702 H         1 UNK         0.0600 
    167 H167       -0.0721  -15.0660  -40.3944 H         1 UNK         0.0600 
    168 H168        0.0853  -16.7992  -40.6333 H         1 UNK         0.0600 
    169 H169        0.7854  -13.7558  -42.3733 H         1 UNK         0.3000 
    170 H170        1.1498  -12.6070  -45.2115 H         1 UNK         0.0600 
    171 H171       -0.9839  -12.2349  -46.3482 H         1 UNK         0.0600 
    172 H172       -1.6935  -11.5336  -44.9014 H         1 UNK         0.0600 
    173 H173       -0.3811  -10.7041  -45.7389 H         1 UNK         0.0600 
    174 H174        1.7440  -11.3366  -43.5338 H         1 UNK         0.3000 
    175 H175        0.9333   -9.3220  -41.7864 H         1 UNK         0.0600 
    176 H176        0.6311   -9.6030  -39.3200 H         1 UNK         0.0600 
    177 H177       -0.8959   -9.7430  -40.1727 H         1 UNK         0.0600 
    178 H178       -0.0882  -11.1910  -39.5830 H         1 UNK         0.0600 
    179 H179        2.9358  -10.1030  -41.1898 H         1 UNK         0.3000 
    180 H180        4.3452  -11.5647  -39.6619 H         1 UNK         0.0600 
    181 H181        4.1894  -14.4055  -40.8072 H         1 UNK         0.0600 
    182 H182        3.8407  -13.9473  -39.1444 H         1 UNK         0.0600 
    183 H183        5.4711  -13.7752  -39.7728 H         1 UNK         0.0600 
    184 H184        5.1784  -12.6961  -42.2293 H         1 UNK         0.3000 
    185 H185        5.7329   -9.6328  -43.8518 H         1 UNK         0.0600 
    186 H186        7.8322   -9.8297  -42.5083 H         1 UNK         0.0600 
    187 H187        7.8404  -11.5726  -42.7512 H         1 UNK         0.0600 
    188 H188        8.0496  -10.4842  -44.1237 H         1 UNK         0.0600 
    189 H189        6.3393  -12.3066  -44.6025 H         1 UNK         0.3000 
    190 H190       -2.2083  -20.9378  -48.2760 H         1 UNK         0.3000 
    191 H191       -3.6876  -22.4821  -50.1878 H         1 UNK         0.0600 
    192 H192       -4.3830  -20.2153  -49.3839 H         1 UNK         0.0600 
    193 H193       -5.6559  -21.4077  -49.1735 H         1 UNK         0.0600 
    194 H194       -4.7117  -20.8775  -47.7871 H         1 UNK         0.0600 
    195 H195       -3.3071  -22.7651  -46.6193 H         1 UNK         0.3000 
    196 H196       -4.9852  -25.0204  -46.2649 H         1 UNK         0.0600 
    197 H197       -3.8487  -25.2006  -44.0578 H         1 UNK         0.0600 
    198 H198       -4.2782  -23.5333  -44.4087 H         1 UNK         0.0600 
    199 H199       -2.6086  -24.0697  -44.5823 H         1 UNK         0.0600 
    200 H200       -1.4708  -24.8227  -46.9648 H         1 UNK         0.3000 
    201 H201       -0.8967  -27.5955  -46.8817 H         1 UNK         0.0600 
    202 H202        0.8473  -25.8299  -46.8846 H         1 UNK         0.0600 
    203 H203        0.4093  -25.3630  -48.5271 H         1 UNK         0.0600 
    204 H204        1.1130  -26.9450  -48.2159 H         1 UNK         0.0600 
    205 H205       -2.4126  -25.6345  -49.3828 H         1 UNK         0.3000 
    206 H206       -2.4870  -27.8129  -51.3683 H         1 UNK         0.0600 
    207 H207       -2.1269  -25.4233  -52.0670 H         1 UNK         0.0600 
    208 H208       -3.5711  -26.1238  -52.7783 H         1 UNK         0.0600 
    209 H209       -3.7138  -25.0050  -51.4268 H         1 UNK         0.0600 
    210 H210       -4.0148  -27.5284  -48.5362 H         1 UNK         0.3000 
    211 H211       -5.8531  -28.2343  -47.5663 H         1 UNK         0.0600 
    212 H212       -6.3862  -29.8517  -50.1134 H         1 UNK         0.0600 
    213 H213       -7.0245  -30.1828  -48.5090 H         1 UNK         0.0600 
    214 H214       -5.3036  -30.3441  -48.8115 H         1 UNK         0.0600 
    215 H215       -6.0109  -25.7762  -49.2143 H         1 UNK         0.3000 
    216 H216       -7.3412  -24.2099  -49.9418 H         1 UNK         0.0600 
    217 H217       -8.5253  -24.5223  -47.7534 H         1 UNK         0.0600 
    218 H218       -9.6663  -25.6195  -48.5315 H         1 UNK         0.0600 
    219 H219       -9.5965  -23.9307  -49.0114 H         1 UNK         0.0600 
    220 H220       -7.1147  -26.8885  -51.4985 H         1 UNK         0.3000 
    221 H221       -9.4172  -26.8174  -53.2978 H         1 UNK         0.0600 
    222 H222       -6.7134  -28.2333  -53.5822 H         1 UNK         0.0600 
    223 H223       -8.1438  -28.9309  -52.8224 H         1 UNK         0.0600 
    224 H224       -8.1592  -28.5335  -54.5348 H         1 UNK         0.0600 
    225 H225       -6.2979  -25.3050  -53.0150 H         1 UNK         0.3000 
    226 H226       -6.6820  -23.7715  -55.5476 H         1 UNK         0.0600 
    227 H227       -4.4558  -25.0296  -55.3407 H         1 UNK         0.0600 
    228 H228       -4.2890  -23.2867  -55.4616 H         1 UNK         0.0600 
    229 H229       -4.1079  -24.0716  -53.9011 H         1 UNK         0.0600 
    230 H230       -6.3476  -21.5056  -55.3052 H         1 UNK         0.3000 
    231 H231       -7.6879  -20.2354  -53.2720 H         1 UNK         0.0600 
    232 H232       -6.6629  -18.1243  -54.2850 H         1 UNK         0.0600 
    233 H233       -7.4834  -19.1946  -55.4072 H         1 UNK         0.0600 
    234 H234       -5.7279  -19.1826  -55.3459 H         1 UNK         0.0600 
    235 H235       -3.9398  -19.8853  -51.6218 H         1 UNK         0.3000 
    236 H236       -4.0435  -21.1035  -54.3118 H         1 UNK         0.0600 
    237 H237       -1.6951  -21.6329  -53.7670 H         1 UNK         0.0600 
    238 H238       -1.8183  -20.7470  -52.2515 H         1 UNK         0.0600 
    239 H239       -2.7644  -22.2132  -52.5034 H         1 UNK         0.0600 
    240 H240       -3.7157  -17.9853  -52.9637 H         1 UNK         0.3000 
    241 H241       -1.6317  -17.0294  -54.7213 H         1 UNK         0.0600 
    242 H242       -4.8956  -17.5199  -55.5493 H         1 UNK         0.3800 
    243 H243       -4.9728  -16.2981  -56.7917 H         1 UNK         0.3800 
    244 H244       -1.9695  -14.8471  -53.5900 H         1 UNK         0.0800 
    245 H245       -3.4191  -15.4431  -52.8268 H         1 UNK         0.0800 
    246 H246        0.3543  -16.6629  -53.3765 H         1 UNK         0.0800 
    247 H247        0.3337  -15.0520  -52.6988 H         1 UNK         0.0800 
@<TRIPOS>BOND
     1    1    2 1    
     2    1  127 1    
     3    1  128 1    
     4    1  129 1    
     5    2    3 2    
     6    2    4 am   BACKBONE|DICT|INTERRES
     7    4    5 1    
     8    4  130 1    
     9    5    6 1    
    10    5   65 1    
    11    5  131 1    
    12    6    7 1    
    13    6  132 1    
    14    6  133 1    
    15    7    8 1    
    16    8    9 1    
    17    8  134 1    
    18    8  135 1    
    19    9   10 ar   
    20    9   14 ar   
    21   10   11 ar   
    22   10  136 1    
    23   11   12 ar   
    24   11  126 1    
    25   12   13 ar   
    26   12  137 1    
    27   13   14 ar   
    28   13   15 1    
    29   14  138 1    
    30   15   16 1    
    31   15  139 1    
    32   15  140 1    
    33   16   17 1    
    34   17   18 1    
    35   17  141 1    
    36   17  142 1    
    37   18   19 1    
    38   18   67 1    
    39   18  143 1    
    40   19   20 am   BACKBONE|DICT|INTERRES
    41   19  144 1    
    42   20   21 2    
    43   20   22 1    
    44   22   23 1    
    45   22   24 1    
    46   22  145 1    
    47   23  146 1    
    48   23  147 1    
    49   23  148 1    
    50   24   25 am   BACKBONE|DICT|INTERRES
    51   24  149 1    
    52   25   26 2    
    53   25   27 1    
    54   27   28 1    
    55   27   29 1    
    56   27  150 1    
    57   28  151 1    
    58   28  152 1    
    59   28  153 1    
    60   29   30 am   BACKBONE|DICT|INTERRES
    61   29  154 1    
    62   30   31 2    
    63   30   32 1    
    64   32   33 1    
    65   32   34 1    
    66   32  155 1    
    67   33  156 1    
    68   33  157 1    
    69   33  158 1    
    70   34   35 am   BACKBONE|DICT|INTERRES
    71   34  159 1    
    72   35   36 2    
    73   35   37 1    
    74   37   38 1    
    75   37   39 1    
    76   37  160 1    
    77   38  161 1    
    78   38  162 1    
    79   38  163 1    
    80   39   40 am   BACKBONE|DICT|INTERRES
    81   39  164 1    
    82   40   41 2    
    83   40   42 1    
    84   42   43 1    
    85   42   44 1    
    86   42  165 1    
    87   43  166 1    
    88   43  167 1    
    89   43  168 1    
    90   44   45 am   BACKBONE|DICT|INTERRES
    91   44  169 1    
    92   45   46 2    
    93   45   47 1    
    94   47   48 1    
    95   47   49 1    
    96   47  170 1    
    97   48  171 1    
    98   48  172 1    
    99   48  173 1    
   100   49   50 am   BACKBONE|DICT|INTERRES
   101   49  174 1    
   102   50   51 2    
   103   50   52 1    
   104   52   53 1    
   105   52   54 1    
   106   52  175 1    
   107   53  176 1    
   108   53  177 1    
   109   53  178 1    
   110   54   55 am   BACKBONE|DICT|INTERRES
   111   54  179 1    
   112   55   56 2    
   113   55   57 1    
   114   57   58 1    
   115   57   59 1    
   116   57  180 1    
   117   58  181 1    
   118   58  182 1    
   119   58  183 1    
   120   59   60 am   BACKBONE|DICT|INTERRES
   121   59  184 1    
   122   60   61 2    
   123   60   62 1    
   124   62   63 1    
   125   62   64 1    
   126   62  185 1    
   127   63  186 1    
   128   63  187 1    
   129   63  188 1    
   130   64   65 am   BACKBONE|DICT|INTERRES
   131   64  189 1    
   132   65   66 2    
   133   67   68 2    
   134   67   69 am   BACKBONE|DICT|INTERRES
   135   69   70 1    
   136   69  190 1    
   137   70   71 1    
   138   70   72 1    
   139   70  191 1    
   140   71  192 1    
   141   71  193 1    
   142   71  194 1    
   143   72   73 2    
   144   72   74 am   BACKBONE|DICT|INTERRES
   145   74   75 1    
   146   74  195 1    
   147   75   76 1    
   148   75   77 1    
   149   75  196 1    
   150   76  197 1    
   151   76  198 1    
   152   76  199 1    
   153   77   78 2    
   154   77   79 am   BACKBONE|DICT|INTERRES
   155   79   80 1    
   156   79  200 1    
   157   80   81 1    
   158   80   82 1    
   159   80  201 1    
   160   81  202 1    
   161   81  203 1    
   162   81  204 1    
   163   82   83 2    
   164   82   84 am   BACKBONE|DICT|INTERRES
   165   84   85 1    
   166   84  205 1    
   167   85   86 1    
   168   85   87 1    
   169   85  206 1    
   170   86  207 1    
   171   86  208 1    
   172   86  209 1    
   173   87   88 2    
   174   87   89 am   BACKBONE|DICT|INTERRES
   175   89   90 1    
   176   89  210 1    
   177   90   91 1    
   178   90   92 1    
   179   90  211 1    
   180   91  212 1    
   181   91  213 1    
   182   91  214 1    
   183   92   93 2    
   184   92   94 am   BACKBONE|DICT|INTERRES
   185   94   95 1    
   186   94  215 1    
   187   95   96 1    
   188   95   97 1    
   189   95  216 1    
   190   96  217 1    
   191   96  218 1    
   192   96  219 1    
   193   97   98 2    
   194   97   99 am   BACKBONE|DICT|INTERRES
   195   99  100 1    
   196   99  220 1    
   197  100  101 1    
   198  100  102 1    
   199  100  221 1    
   200  101  222 1    
   201  101  223 1    
   202  101  224 1    
   203  102  103 2    
   204  102  104 am   BACKBONE|DICT|INTERRES
   205  104  105 1    
   206  104  225 1    
   207  105  106 1    
   208  105  107 1    
   209  105  226 1    
   210  106  227 1    
   211  106  228 1    
   212  106  229 1    
   213  107  108 2    
   214  107  109 am   BACKBONE|DICT|INTERRES
   215  109  110 1    
   216  109  230 1    
   217  110  111 1    
   218  110  112 1    
   219  110  231 1    
   220  111  232 1    
   221  111  233 1    
   222  111  234 1    
   223  112  113 2    
   224  112  114 am   BACKBONE|DICT|INTERRES
   225  114  115 1    
   226  114  235 1    
   227  115  116 1    
   228  115  117 1    
   229  115  236 1    
   230  116  237 1    
   231  116  238 1    
   232  116  239 1    
   233  117  118 2    
   234  117  119 am   BACKBONE|DICT|INTERRES
   235  119  120 1    
   236  119  240 1    
   237  120  121 1    
   238  120  124 1    
   239  120  241 1    
   240  121  122 am   BACKBONE|DICT|INTERRES
   241  121  123 2    
   242  122  242 1    
   243  122  243 1    
   244  124  125 1    
   245  124  244 1    
   246  124  245 1    
   247  125  126 1    
   248  126  246 1    
   249  126  247 1    
@<TRIPOS>SUBSTRUCTURE
     1 UNK         1 GROUP             0       ****    0 ROOT    
