@<TRIPOS>MOLECULE
3R540
247   249    1
SMALL
USER_CHARGES


@<TRIPOS>ATOM
      1 CA          0.5785  -10.8826  -52.2864 C.3       0 UNK        -0.1800 
      2 C           0.8287  -11.7984  -51.0965 C.2       0 UNK         0.5000 
      3 O           1.8660  -12.4585  -51.0391 O.2       0 UNK        -0.5000 
      4 N          -0.1141  -11.8413  -50.1504 N.am      1 UNK        -0.5000 
      5 CA         -0.0521  -12.6548  -48.9407 C.3       1 UNK         0.1400 
      6 C6         -0.5060  -14.1142  -49.2045 C.3       23 UNK        -0.0398 
      7 S7         -0.0950  -15.2618  -47.8470 S.3       23 UNK        -0.2404 
      8 C8          1.5777  -15.8327  -48.2862 C.3       23 UNK        -0.0205 
      9 C9          1.5922  -16.7043  -49.5342 C.ar      23 UNK        -0.0193 
     10 C10         2.0138  -16.1743  -50.7568 C.ar      23 UNK        -0.1150 
     11 C11         2.0408  -16.9659  -51.9087 C.ar      23 UNK        -0.0193 
     12 C12         1.6617  -18.3097  -51.8219 C.ar      23 UNK        -0.1150 
     13 C13         1.2212  -18.8483  -50.6102 C.ar      23 UNK        -0.0193 
     14 C14         1.1951  -18.0425  -49.4680 C.ar      23 UNK        -0.1150 
     15 C15         0.7304  -20.2849  -50.5495 C.3       23 UNK        -0.0205 
     16 S16         1.9102  -21.3823  -49.7030 S.3       23 UNK        -0.2404 
     17 C17         1.0885  -23.0045  -49.9176 C.3       23 UNK        -0.0398 
     18 CA          0.2229  -23.4586  -48.7148 C.3       11 UNK         0.1400 
     19 N           1.0077  -23.5416  -47.4812 N.am      11 UNK        -0.5000 
     20 C           0.6136  -24.1348  -46.3469 C.2       10 UNK         0.5000 
     21 O          -0.4708  -24.6989  -46.2081 O.2       10 UNK        -0.5000 
     22 CA          1.5741  -24.0227  -45.1473 C.3       10 UNK         0.1400 
     23 CB          2.5654  -25.1955  -45.1419 C.3       10 UNK        -0.1800 
     24 N           2.3184  -22.7592  -45.0994 N.am      10 UNK        -0.5000 
     25 C           1.7631  -21.5405  -45.0594 C.2       9 UNK         0.5000 
     26 O           0.5482  -21.3434  -45.1155 O.2       9 UNK        -0.5000 
     27 CA          2.7258  -20.3456  -44.9879 C.3       9 UNK         0.1400 
     28 CB          2.5207  -19.4059  -46.1871 C.3       9 UNK        -0.1800 
     29 N           2.5462  -19.5911  -43.7513 N.am      9 UNK        -0.5000 
     30 C           2.9126  -20.0076  -42.5329 C.2       8 UNK         0.5000 
     31 O           3.4385  -21.0997  -42.3130 O.2       8 UNK        -0.5000 
     32 CA          2.6795  -19.0308  -41.3668 C.3       8 UNK         0.1400 
     33 CB          3.7448  -17.9228  -41.3627 C.3       8 UNK        -0.1800 
     34 N           1.3525  -18.4196  -41.4016 N.am      8 UNK        -0.5000 
     35 C           0.2330  -19.0088  -40.9604 C.2       7 UNK         0.5000 
     36 O           0.2002  -20.1414  -40.4778 O.2       7 UNK        -0.5000 
     37 CA         -1.0695  -18.1903  -41.0576 C.3       7 UNK         0.1400 
     38 CB         -1.2614  -17.3249  -39.8029 C.3       7 UNK        -0.1800 
     39 N          -1.1060  -17.3325  -42.2401 N.am      7 UNK        -0.5000 
     40 C          -1.2569  -17.7868  -43.4910 C.2       6 UNK         0.5000 
     41 O          -1.4806  -18.9638  -43.7656 O.2       6 UNK        -0.5000 
     42 CA         -1.1191  -16.7563  -44.6247 C.3       6 UNK         0.1400 
     43 CB         -2.4840  -16.1345  -44.9567 C.3       6 UNK        -0.1800 
     44 N          -0.1586  -15.6952  -44.3280 N.am      6 UNK        -0.5000 
     45 C           1.1571  -15.8715  -44.1522 C.2       5 UNK         0.5000 
     46 O           1.7147  -16.9643  -44.2073 O.2       5 UNK        -0.5000 
     47 CA          1.9824  -14.6247  -43.7989 C.3       5 UNK         0.1400 
     48 CB          2.3386  -13.8225  -45.0599 C.3       5 UNK        -0.1800 
     49 N           1.2810  -13.7703  -42.8417 N.am      5 UNK        -0.5000 
     50 C           1.0734  -14.0914  -41.5566 C.2       4 UNK         0.5000 
     51 O           1.4977  -15.1214  -41.0322 O.2       4 UNK        -0.5000 
     52 CA          0.2191  -13.1119  -40.7308 C.3       4 UNK         0.1400 
     53 CB          1.0880  -11.9769  -40.1688 C.3       4 UNK        -0.1800 
     54 N          -0.8838  -12.5395  -41.5056 N.am      4 UNK        -0.5000 
     55 C          -1.9523  -13.2335  -41.9228 C.2       3 UNK         0.5000 
     56 O          -2.1387  -14.4223  -41.6618 O.2       3 UNK        -0.5000 
     57 CA         -2.9550  -12.4813  -42.8224 C.3       3 UNK         0.1400 
     58 CB         -3.9680  -11.7034  -41.9693 C.3       3 UNK        -0.1800 
     59 N          -2.3215  -11.5671  -43.7823 N.am      3 UNK        -0.5000 
     60 C          -1.4467  -11.9497  -44.7219 C.2       2 UNK         0.5000 
     61 O          -1.0544  -13.1099  -44.8408 O.2       2 UNK        -0.5000 
     62 CA         -0.8680  -10.8552  -45.6370 C.3       2 UNK         0.1400 
     63 CB          0.1879  -10.0339  -44.8793 C.3       2 UNK        -0.1800 
     64 N          -0.2354  -11.4411  -46.8209 N.am      2 UNK        -0.5000 
     65 C          -0.8964  -11.9367  -47.8743 C.2       1 UNK         0.5000 
     66 O          -2.1116  -11.8119  -48.0437 O.2       1 UNK        -0.5000 
     67 C          -1.0515  -22.5943  -48.5891 C.2       11 UNK         0.5000 
     68 O          -1.9563  -22.7611  -49.4044 O.2       11 UNK        -0.5000 
     69 N          -1.0855  -21.6751  -47.6148 N.am      12 UNK        -0.5000 
     70 CA         -2.2193  -20.7929  -47.3419 C.3       12 UNK         0.1400 
     71 CB         -1.7133  -19.3506  -47.2253 C.3       12 UNK        -0.1800 
     72 C          -2.9827  -21.2187  -46.0774 C.2       12 UNK         0.5000 
     73 O          -4.1770  -20.9365  -45.9736 O.2       12 UNK        -0.5000 
     74 N          -2.3036  -21.9087  -45.1495 N.am      13 UNK        -0.5000 
     75 CA         -2.9171  -22.5538  -43.9902 C.3       13 UNK         0.1400 
     76 CB         -1.8209  -23.0012  -43.0124 C.3       13 UNK        -0.1800 
     77 C          -3.8072  -23.7406  -44.4084 C.2       13 UNK         0.5000 
     78 O          -4.8940  -23.9122  -43.8541 O.2       13 UNK        -0.5000 
     79 N          -3.3459  -24.5152  -45.4002 N.am      14 UNK        -0.5000 
     80 CA         -4.1335  -25.5297  -46.0954 C.3       14 UNK         0.1400 
     81 CB         -3.1778  -26.4986  -46.8098 C.3       14 UNK        -0.1800 
     82 C          -5.0888  -24.8823  -47.1151 C.2       14 UNK         0.5000 
     83 O          -4.7791  -23.8276  -47.6707 O.2       14 UNK        -0.5000 
     84 N          -6.2140  -25.5565  -47.3816 N.am      15 UNK        -0.5000 
     85 CA         -7.2082  -25.1468  -48.3802 C.3       15 UNK         0.1400 
     86 CB         -8.5544  -25.8002  -48.0293 C.3       15 UNK        -0.1800 
     87 C          -6.8020  -25.4928  -49.8290 C.2       15 UNK         0.5000 
     88 O          -7.4555  -25.0289  -50.7655 O.2       15 UNK        -0.5000 
     89 N          -5.7540  -26.3150  -49.9881 N.am      16 UNK        -0.5000 
     90 CA         -5.1899  -26.7661  -51.2608 C.3       16 UNK         0.1400 
     91 CB         -3.9994  -27.6931  -50.9720 C.3       16 UNK        -0.1800 
     92 C          -4.7529  -25.5998  -52.1662 C.2       16 UNK         0.5000 
     93 O          -4.2364  -24.5981  -51.6671 O.2       16 UNK        -0.5000 
     94 N          -4.9859  -25.7512  -53.4786 N.am      17 UNK        -0.5000 
     95 CA         -4.7133  -24.7674  -54.5368 C.3       17 UNK         0.1400 
     96 CB         -3.1958  -24.6436  -54.7748 C.3       17 UNK        -0.1800 
     97 C          -5.3942  -23.4045  -54.2771 C.2       17 UNK         0.5000 
     98 O          -4.7912  -22.3522  -54.4963 O.2       17 UNK        -0.5000 
     99 N          -6.6272  -23.4642  -53.7490 N.am      18 UNK        -0.5000 
    100 CA        -7.4716  -22.3433  -53.3177 C.3       18 UNK         0.1400 
    101 CB        -7.9299  -21.5160  -54.5371 C.3       18 UNK        -0.1800 
    102 C         -6.8349  -21.4664  -52.2150 C.2       18 UNK         0.5000 
    103 O         -7.2042  -20.2987  -52.0815 O.2       18 UNK        -0.5000 
    104 N         -5.8839  -22.0384  -51.4586 N.am      19 UNK        -0.5000 
    105 CA        -5.0554  -21.3977  -50.4328 C.3       19 UNK         0.1400 
    106 CB        -5.9229  -20.9245  -49.2470 C.3       19 UNK        -0.1800 
    107 C         -4.1418  -20.2812  -50.9926 C.2       19 UNK         0.5000 
    108 O         -3.7704  -19.3679  -50.2542 O.2       19 UNK        -0.5000 
    109 N         -3.8024  -20.3558  -52.2871 N.am      20 UNK        -0.5000 
    110 CA        -3.0466  -19.3393  -53.0143 C.3       20 UNK         0.1400 
    111 CB        -4.0048  -18.2441  -53.5209 C.3       20 UNK        -0.1800 
    112 C         -2.2454  -20.0110  -54.1389 C.2       20 UNK         0.5000 
    113 O         -2.4006  -19.6661  -55.3122 O.2       20 UNK        -0.5000 
    114 N         -1.4031  -20.9790  -53.7516 N.am      21 UNK        -0.5000 
    115 CA        -0.6302  -21.8553  -54.6400 C.3       21 UNK         0.1400 
    116 CB         0.1562  -22.8632  -53.7874 C.3       21 UNK        -0.1800 
    117 C          0.3119  -21.1493  -55.6374 C.2       21 UNK         0.5000 
    118 O          0.6581  -21.7525  -56.6542 O.2       21 UNK        -0.5000 
    119 N          0.7011  -19.8997  -55.3511 N.am      22 UNK        -0.5000 
    120 CA         1.4570  -19.0421  -56.2775 C.3       22 UNK         0.1400 
    121 C          0.6096  -18.4188  -57.4292 C.2       22 UNK         0.5000 
    122 N         -0.7151  -18.5225  -57.4234 N.am      22 UNK        -0.7600 
    123 O          1.1696  -17.8437  -58.3588 O.2       22 UNK        -0.5000 
    124 C124        2.3118  -17.9874  -55.5295 C.3       23 UNK        -0.0398 
    125 S125        1.3510  -16.7312  -54.6107 S.3       23 UNK        -0.2404 
    126 C126        2.4863  -16.3540  -53.2319 C.3       23 UNK        -0.0205 
    127 H127        0.5756  -11.4611  -53.2102 H         1 UNK         0.0600 
    128 H128        1.3666  -10.1327  -52.3548 H         1 UNK         0.0600 
    129 H129       -0.3778  -10.3650  -52.2062 H         1 UNK         0.0600 
    130 H130       -0.9437  -11.2673  -50.2306 H         1 UNK         0.3000 
    131 H131        0.9845  -12.6756  -48.5963 H         1 UNK         0.0600 
    132 H132       -1.5826  -14.1579  -49.3772 H         1 UNK         0.0800 
    133 H133       -0.0554  -14.4876  -50.1228 H         1 UNK         0.0800 
    134 H134        2.2335  -14.9696  -48.4101 H         1 UNK         0.0800 
    135 H135        1.9806  -16.4022  -47.4471 H         1 UNK         0.0800 
    136 H136        2.3161  -15.1376  -50.8112 H         1 UNK         0.1150 
    137 H137        1.6893  -18.9321  -52.7040 H         1 UNK         0.1150 
    138 H138        0.8624  -18.4555  -48.5271 H         1 UNK         0.1150 
    139 H139       -0.2330  -20.3032  -50.0404 H         1 UNK         0.0800 
    140 H140        0.5524  -20.6613  -51.5562 H         1 UNK         0.0800 
    141 H141        0.4955  -23.0002  -50.8326 H         1 UNK         0.0800 
    142 H142        1.8714  -23.7440  -50.0906 H         1 UNK         0.0800 
    143 H143       -0.1238  -24.4712  -48.9332 H         1 UNK         0.0600 
    144 H144        1.9052  -23.0794  -47.4961 H         1 UNK         0.3000 
    145 H145        0.9750  -24.0825  -44.2377 H         1 UNK         0.0600 
    146 H146        3.1882  -25.1820  -44.2473 H         1 UNK         0.0600 
    147 H147        2.0395  -26.1512  -45.1551 H         1 UNK         0.0600 
    148 H148        3.2239  -25.1708  -46.0111 H         1 UNK         0.0600 
    149 H149        3.3236  -22.8361  -45.0405 H         1 UNK         0.3000 
    150 H150        3.7542  -20.7113  -45.0198 H         1 UNK         0.0600 
    151 H151        2.6518  -19.9368  -47.1300 H         1 UNK         0.0600 
    152 H152        3.2388  -18.5860  -46.1730 H         1 UNK         0.0600 
    153 H153        1.5213  -18.9697  -46.1892 H         1 UNK         0.0600 
    154 H154        2.1282  -18.6673  -43.8502 H         1 UNK         0.3000 
    155 H155        2.7819  -19.5925  -40.4357 H         1 UNK         0.0600 
    156 H156        4.7487  -18.3462  -41.3129 H         1 UNK         0.0600 
    157 H157        3.6250  -17.2654  -40.5012 H         1 UNK         0.0600 
    158 H158        3.6920  -17.3064  -42.2607 H         1 UNK         0.0600 
    159 H159        1.2911  -17.4872  -41.7877 H         1 UNK         0.3000 
    160 H160       -1.9027  -18.8939  -41.1161 H         1 UNK         0.0600 
    161 H161       -0.4637  -16.5892  -39.6947 H         1 UNK         0.0600 
    162 H162       -1.2672  -17.9392  -38.9017 H         1 UNK         0.0600 
    163 H163       -2.2090  -16.7867  -39.8368 H         1 UNK         0.0600 
    164 H164       -0.9948  -16.3369  -42.0941 H         1 UNK         0.3000 
    165 H165       -0.7530  -17.2764  -45.5093 H         1 UNK         0.0600 
    166 H166       -3.2113  -16.9040  -45.2175 H         1 UNK         0.0600 
    167 H167       -2.8855  -15.5758  -44.1112 H         1 UNK         0.0600 
    168 H168       -2.4128  -15.4527  -45.8041 H         1 UNK         0.0600 
    169 H169       -0.5206  -14.7433  -44.3432 H         1 UNK         0.3000 
    170 H170        2.9144  -14.9588  -43.3377 H         1 UNK         0.0600 
    171 H171        2.9303  -14.4279  -45.7475 H         1 UNK         0.0600 
    172 H172        1.4498  -13.4969  -45.5988 H         1 UNK         0.0600 
    173 H173        2.9279  -12.9390  -44.8145 H         1 UNK         0.0600 
    174 H174        0.8439  -12.9394  -43.2098 H         1 UNK         0.3000 
    175 H175       -0.2038  -13.6666  -39.8903 H         1 UNK         0.0600 
    176 H176        1.5231  -11.3692  -40.9632 H         1 UNK         0.0600 
    177 H177        0.5070  -11.3190  -39.5223 H         1 UNK         0.0600 
    178 H178        1.9099  -12.3745  -39.5718 H         1 UNK         0.0600 
    179 H179       -0.8097  -11.5662  -41.7618 H         1 UNK         0.3000 
    180 H180       -3.5023  -13.2316  -43.3967 H         1 UNK         0.0600 
    181 H181       -3.4878  -10.9083  -41.3975 H         1 UNK         0.0600 
    182 H182       -4.4679  -12.3631  -41.2587 H         1 UNK         0.0600 
    183 H183       -4.7418  -11.2513  -42.5899 H         1 UNK         0.0600 
    184 H184       -2.5919  -10.5957  -43.7266 H         1 UNK         0.3000 
    185 H185       -1.6788  -10.1945  -45.9510 H         1 UNK         0.0600 
    186 H186        1.0128  -10.6578  -44.5321 H         1 UNK         0.0600 
    187 H187        0.6051   -9.2506  -45.5124 H         1 UNK         0.0600 
    188 H188       -0.2438   -9.5442  -44.0055 H         1 UNK         0.0600 
    189 H189        0.7610  -11.5866  -46.7615 H         1 UNK         0.3000 
    190 H190       -0.3046  -21.6068  -46.9726 H         1 UNK         0.3000 
    191 H191       -2.9337  -20.8289  -48.1642 H         1 UNK         0.0600 
    192 H192       -0.8790  -19.2840  -46.5282 H         1 UNK         0.0600 
    193 H193       -2.5005  -18.6824  -46.8749 H         1 UNK         0.0600 
    194 H194       -1.3824  -18.9751  -48.1926 H         1 UNK         0.0600 
    195 H195       -1.2957  -21.9794  -45.2337 H         1 UNK         0.3000 
    196 H196       -3.5444  -21.8164  -43.4851 H         1 UNK         0.0600 
    197 H197       -2.2575  -23.4038  -42.0978 H         1 UNK         0.0600 
    198 H198       -1.1790  -22.1660  -42.7287 H         1 UNK         0.0600 
    199 H199       -1.1919  -23.7789  -43.4444 H         1 UNK         0.0600 
    200 H200       -2.4320  -24.3155  -45.7922 H         1 UNK         0.3000 
    201 H201       -4.7173  -26.0896  -45.3617 H         1 UNK         0.0600 
    202 H202       -2.4790  -26.9529  -46.1070 H         1 UNK         0.0600 
    203 H203       -2.5935  -25.9911  -47.5792 H         1 UNK         0.0600 
    204 H204       -3.7253  -27.3085  -47.2930 H         1 UNK         0.0600 
    205 H205       -6.4025  -26.4180  -46.8888 H         1 UNK         0.3000 
    206 H206       -7.3345  -24.0634  -48.3290 H         1 UNK         0.0600 
    207 H207       -8.8832  -25.5141  -47.0300 H         1 UNK         0.0600 
    208 H208       -9.3341  -25.4900  -48.7263 H         1 UNK         0.0600 
    209 H209       -8.4957  -26.8887  -48.0661 H         1 UNK         0.0600 
    210 H210       -5.2731  -26.6188  -49.1563 H         1 UNK         0.3000 
    211 H211       -5.9633  -27.3396  -51.7755 H         1 UNK         0.0600 
    212 H212       -3.5629  -28.0703  -51.8978 H         1 UNK         0.0600 
    213 H213       -4.3044  -28.5577  -50.3821 H         1 UNK         0.0600 
    214 H214       -3.2108  -27.1739  -50.4251 H         1 UNK         0.0600 
    215 H215       -5.4186  -26.6098  -53.7909 H         1 UNK         0.3000 
    216 H216       -5.1599  -25.1617  -55.4506 H         1 UNK         0.0600 
    217 H217       -2.9922  -24.0364  -55.6570 H         1 UNK         0.0600 
    218 H218       -2.7399  -25.6193  -54.9419 H         1 UNK         0.0600 
    219 H219       -2.6931  -24.1788  -53.9265 H         1 UNK         0.0600 
    220 H220       -7.0064  -24.3814  -53.5576 H         1 UNK         0.3000 
    221 H221       -8.3593  -22.7899  -52.8676 H         1 UNK         0.0600 
    222 H222       -8.6792  -20.7769  -54.2514 H         1 UNK         0.0600 
    223 H223       -8.3798  -22.1521  -55.2993 H         1 UNK         0.0600 
    224 H224       -7.0994  -20.9782  -54.9956 H         1 UNK         0.0600 
    225 H225       -5.6306  -23.0000  -51.6591 H         1 UNK         0.3000 
    226 H226       -4.3933  -22.1786  -50.0597 H         1 UNK         0.0600 
    227 H227       -6.5436  -21.7350  -48.8659 H         1 UNK         0.0600 
    228 H228       -5.3027  -20.5819  -48.4197 H         1 UNK         0.0600 
    229 H229       -6.5772  -20.0975  -49.5223 H         1 UNK         0.0600 
    230 H230       -4.1426  -21.1320  -52.8465 H         1 UNK         0.3000 
    231 H231       -2.3164  -18.8761  -52.3469 H         1 UNK         0.0600 
    232 H232       -3.4644  -17.4744  -54.0732 H         1 UNK         0.0600 
    233 H233       -4.5145  -17.7512  -52.6930 H         1 UNK         0.0600 
    234 H234       -4.7667  -18.6563  -54.1838 H         1 UNK         0.0600 
    235 H235       -1.3757  -21.2085  -52.7696 H         1 UNK         0.3000 
    236 H236       -1.3539  -22.4079  -55.2398 H         1 UNK         0.0600 
    237 H237       -0.4981  -23.4069  -53.1059 H         1 UNK         0.0600 
    238 H238        0.6499  -23.6036  -54.4181 H         1 UNK         0.0600 
    239 H239        0.9307  -22.3723  -53.1978 H         1 UNK         0.0600 
    240 H240        0.3439  -19.4547  -54.5198 H         1 UNK         0.3000 
    241 H241        2.1748  -19.6875  -56.7878 H         1 UNK         0.0600 
    242 H242       -1.2434  -18.1189  -58.1801 H         1 UNK         0.3800 
    243 H243       -1.2078  -18.9821  -56.6624 H         1 UNK         0.3800 
    244 H244        2.9790  -18.5050  -54.8392 H         1 UNK         0.0800 
    245 H245        2.9660  -17.4668  -56.2309 H         1 UNK         0.0800 
    246 H246        3.4994  -16.6864  -53.4601 H         1 UNK         0.0800 
    247 H247        2.5408  -15.2678  -53.1412 H         1 UNK         0.0800 
@<TRIPOS>BOND
     1    1    2 1    
     2    1  127 1    
     3    1  128 1    
     4    1  129 1    
     5    2    3 2    
     6    2    4 am   BACKBONE|DICT|INTERRES
     7    4    5 1    
     8    4  130 1    
     9    5    6 1    
    10    5   65 1    
    11    5  131 1    
    12    6    7 1    
    13    6  132 1    
    14    6  133 1    
    15    7    8 1    
    16    8    9 1    
    17    8  134 1    
    18    8  135 1    
    19    9   10 ar   
    20    9   14 ar   
    21   10   11 ar   
    22   10  136 1    
    23   11   12 ar   
    24   11  126 1    
    25   12   13 ar   
    26   12  137 1    
    27   13   14 ar   
    28   13   15 1    
    29   14  138 1    
    30   15   16 1    
    31   15  139 1    
    32   15  140 1    
    33   16   17 1    
    34   17   18 1    
    35   17  141 1    
    36   17  142 1    
    37   18   19 1    
    38   18   67 1    
    39   18  143 1    
    40   19   20 am   BACKBONE|DICT|INTERRES
    41   19  144 1    
    42   20   21 2    
    43   20   22 1    
    44   22   23 1    
    45   22   24 1    
    46   22  145 1    
    47   23  146 1    
    48   23  147 1    
    49   23  148 1    
    50   24   25 am   BACKBONE|DICT|INTERRES
    51   24  149 1    
    52   25   26 2    
    53   25   27 1    
    54   27   28 1    
    55   27   29 1    
    56   27  150 1    
    57   28  151 1    
    58   28  152 1    
    59   28  153 1    
    60   29   30 am   BACKBONE|DICT|INTERRES
    61   29  154 1    
    62   30   31 2    
    63   30   32 1    
    64   32   33 1    
    65   32   34 1    
    66   32  155 1    
    67   33  156 1    
    68   33  157 1    
    69   33  158 1    
    70   34   35 am   BACKBONE|DICT|INTERRES
    71   34  159 1    
    72   35   36 2    
    73   35   37 1    
    74   37   38 1    
    75   37   39 1    
    76   37  160 1    
    77   38  161 1    
    78   38  162 1    
    79   38  163 1    
    80   39   40 am   BACKBONE|DICT|INTERRES
    81   39  164 1    
    82   40   41 2    
    83   40   42 1    
    84   42   43 1    
    85   42   44 1    
    86   42  165 1    
    87   43  166 1    
    88   43  167 1    
    89   43  168 1    
    90   44   45 am   BACKBONE|DICT|INTERRES
    91   44  169 1    
    92   45   46 2    
    93   45   47 1    
    94   47   48 1    
    95   47   49 1    
    96   47  170 1    
    97   48  171 1    
    98   48  172 1    
    99   48  173 1    
   100   49   50 am   BACKBONE|DICT|INTERRES
   101   49  174 1    
   102   50   51 2    
   103   50   52 1    
   104   52   53 1    
   105   52   54 1    
   106   52  175 1    
   107   53  176 1    
   108   53  177 1    
   109   53  178 1    
   110   54   55 am   BACKBONE|DICT|INTERRES
   111   54  179 1    
   112   55   56 2    
   113   55   57 1    
   114   57   58 1    
   115   57   59 1    
   116   57  180 1    
   117   58  181 1    
   118   58  182 1    
   119   58  183 1    
   120   59   60 am   BACKBONE|DICT|INTERRES
   121   59  184 1    
   122   60   61 2    
   123   60   62 1    
   124   62   63 1    
   125   62   64 1    
   126   62  185 1    
   127   63  186 1    
   128   63  187 1    
   129   63  188 1    
   130   64   65 am   BACKBONE|DICT|INTERRES
   131   64  189 1    
   132   65   66 2    
   133   67   68 2    
   134   67   69 am   BACKBONE|DICT|INTERRES
   135   69   70 1    
   136   69  190 1    
   137   70   71 1    
   138   70   72 1    
   139   70  191 1    
   140   71  192 1    
   141   71  193 1    
   142   71  194 1    
   143   72   73 2    
   144   72   74 am   BACKBONE|DICT|INTERRES
   145   74   75 1    
   146   74  195 1    
   147   75   76 1    
   148   75   77 1    
   149   75  196 1    
   150   76  197 1    
   151   76  198 1    
   152   76  199 1    
   153   77   78 2    
   154   77   79 am   BACKBONE|DICT|INTERRES
   155   79   80 1    
   156   79  200 1    
   157   80   81 1    
   158   80   82 1    
   159   80  201 1    
   160   81  202 1    
   161   81  203 1    
   162   81  204 1    
   163   82   83 2    
   164   82   84 am   BACKBONE|DICT|INTERRES
   165   84   85 1    
   166   84  205 1    
   167   85   86 1    
   168   85   87 1    
   169   85  206 1    
   170   86  207 1    
   171   86  208 1    
   172   86  209 1    
   173   87   88 2    
   174   87   89 am   BACKBONE|DICT|INTERRES
   175   89   90 1    
   176   89  210 1    
   177   90   91 1    
   178   90   92 1    
   179   90  211 1    
   180   91  212 1    
   181   91  213 1    
   182   91  214 1    
   183   92   93 2    
   184   92   94 am   BACKBONE|DICT|INTERRES
   185   94   95 1    
   186   94  215 1    
   187   95   96 1    
   188   95   97 1    
   189   95  216 1    
   190   96  217 1    
   191   96  218 1    
   192   96  219 1    
   193   97   98 2    
   194   97   99 am   BACKBONE|DICT|INTERRES
   195   99  100 1    
   196   99  220 1    
   197  100  101 1    
   198  100  102 1    
   199  100  221 1    
   200  101  222 1    
   201  101  223 1    
   202  101  224 1    
   203  102  103 2    
   204  102  104 am   BACKBONE|DICT|INTERRES
   205  104  105 1    
   206  104  225 1    
   207  105  106 1    
   208  105  107 1    
   209  105  226 1    
   210  106  227 1    
   211  106  228 1    
   212  106  229 1    
   213  107  108 2    
   214  107  109 am   BACKBONE|DICT|INTERRES
   215  109  110 1    
   216  109  230 1    
   217  110  111 1    
   218  110  112 1    
   219  110  231 1    
   220  111  232 1    
   221  111  233 1    
   222  111  234 1    
   223  112  113 2    
   224  112  114 am   BACKBONE|DICT|INTERRES
   225  114  115 1    
   226  114  235 1    
   227  115  116 1    
   228  115  117 1    
   229  115  236 1    
   230  116  237 1    
   231  116  238 1    
   232  116  239 1    
   233  117  118 2    
   234  117  119 am   BACKBONE|DICT|INTERRES
   235  119  120 1    
   236  119  240 1    
   237  120  121 1    
   238  120  124 1    
   239  120  241 1    
   240  121  122 am   BACKBONE|DICT|INTERRES
   241  121  123 2    
   242  122  242 1    
   243  122  243 1    
   244  124  125 1    
   245  124  244 1    
   246  124  245 1    
   247  125  126 1    
   248  126  246 1    
   249  126  247 1    
@<TRIPOS>SUBSTRUCTURE
     1 UNK         1 GROUP             0       ****    0 ROOT    
