@<TRIPOS>MOLECULE
3R540
247   249    1
SMALL
USER_CHARGES


@<TRIPOS>ATOM
      1 CA          2.2716  -17.0672  -49.9118 C.3       0 UNK        -0.1800 
      2 C           1.1342  -16.1625  -49.4623 C.2       0 UNK         0.5000 
      3 O           0.3720  -16.5326  -48.5726 O.2       0 UNK        -0.5000 
      4 N           1.0110  -14.9786  -50.0752 N.am      1 UNK        -0.5000 
      5 CA         -0.0655  -14.0162  -49.7986 C.3       1 UNK         0.1400 
      6 C6         -0.4142  -13.1482  -51.0377 C.3       23 UNK        -0.0398 
      7 S7         -0.6704  -14.0062  -52.6386 S.3       23 UNK        -0.2404 
      8 C8         -1.4797  -15.5939  -52.2493 C.3       23 UNK        -0.0205 
      9 C9         -2.9118  -15.4405  -51.7670 C.ar      23 UNK        -0.0193 
     10 C10        -3.9075  -15.0092  -52.6440 C.ar      23 UNK        -0.1150 
     11 C11        -5.2408  -14.9420  -52.2275 C.ar      23 UNK        -0.0193 
     12 C12        -5.5625  -15.2717  -50.9065 C.ar      23 UNK        -0.1150 
     13 C13        -4.5736  -15.6911  -50.0103 C.ar      23 UNK        -0.0193 
     14 C14        -3.2536  -15.7902  -50.4602 C.ar      23 UNK        -0.1150 
     15 C15        -4.9427  -15.9932  -48.5591 C.3       23 UNK        -0.0205 
     16 S16        -4.3834  -17.6276  -47.9727 S.3       23 UNK        -0.2404 
     17 C17        -2.8070  -17.1917  -47.1534 C.3       23 UNK        -0.0398 
     18 CA         -1.7991  -18.3340  -46.8301 C.3       11 UNK         0.1400 
     19 N          -2.0697  -19.0390  -45.5714 N.am      11 UNK        -0.5000 
     20 C          -3.0474  -19.9185  -45.3188 C.2       10 UNK         0.5000 
     21 O          -3.8958  -20.2567  -46.1406 O.2       10 UNK        -0.5000 
     22 CA         -3.0159  -20.5708  -43.9188 C.3       10 UNK         0.1400 
     23 CB         -3.9301  -21.8101  -43.8171 C.3       10 UNK        -0.1800 
     24 N          -1.6519  -20.8994  -43.4811 N.am      10 UNK        -0.5000 
     25 C          -0.7793  -21.6885  -44.1255 C.2       9 UNK         0.5000 
     26 O          -1.0374  -22.2623  -45.1852 O.2       9 UNK        -0.5000 
     27 CA          0.6219  -21.8503  -43.5152 C.3       9 UNK         0.1400 
     28 CB          1.7158  -21.7910  -44.5981 C.3       9 UNK        -0.1800 
     29 N           0.9184  -20.8421  -42.4928 N.am      9 UNK        -0.5000 
     30 C           1.4635  -21.1223  -41.3023 C.2       8 UNK         0.5000 
     31 O           1.6137  -22.2671  -40.8725 O.2       8 UNK        -0.5000 
     32 CA          1.9797  -19.9442  -40.4593 C.3       8 UNK         0.1400 
     33 CB          3.4357  -19.6323  -40.8390 C.3       8 UNK        -0.1800 
     34 N           1.1842  -18.7197  -40.5620 N.am      8 UNK        -0.5000 
     35 C           0.0381  -18.5191  -39.8974 C.2       7 UNK         0.5000 
     36 O          -0.5545  -19.4022  -39.2766 O.2       7 UNK        -0.5000 
     37 CA         -0.5228  -17.0843  -39.8940 C.3       7 UNK         0.1400 
     38 CB          0.3360  -16.1597  -39.0165 C.3       7 UNK        -0.1800 
     39 N          -0.6206  -16.5195  -41.2357 N.am      7 UNK        -0.5000 
     40 C          -1.5553  -16.8644  -42.1294 C.2       6 UNK         0.5000 
     41 O          -2.4663  -17.6604  -41.9027 O.2       6 UNK        -0.5000 
     42 CA         -1.4181  -16.2540  -43.5345 C.3       6 UNK         0.1400 
     43 CB         -2.0264  -14.8463  -43.5978 C.3       6 UNK        -0.1800 
     44 N          -0.0316  -16.2318  -44.0056 N.am      6 UNK        -0.5000 
     45 C           0.7436  -17.3149  -44.1605 C.2       5 UNK         0.5000 
     46 O           0.3349  -18.4679  -44.0181 O.2       5 UNK        -0.5000 
     47 CA          2.2257  -17.0792  -44.4950 C.3       5 UNK         0.1400 
     48 CB          2.4397  -16.9991  -46.0115 C.3       5 UNK        -0.1800 
     49 N           2.7562  -15.8728  -43.8606 N.am      5 UNK        -0.5000 
     50 C           2.9722  -15.7429  -42.5444 C.2       4 UNK         0.5000 
     51 O           2.7639  -16.6371  -41.7263 O.2       4 UNK        -0.5000 
     52 CA          3.4460  -14.3622  -42.0583 C.3       4 UNK         0.1400 
     53 CB          4.9427  -14.1660  -42.3424 C.3       4 UNK        -0.1800 
     54 N           2.6839  -13.2750  -42.6728 N.am      4 UNK        -0.5000 
     55 C           1.3774  -13.0588  -42.4640 C.2       3 UNK         0.5000 
     56 O           0.6961  -13.7147  -41.6752 O.2       3 UNK        -0.5000 
     57 CA          0.7134  -11.9536  -43.3097 C.3       3 UNK         0.1400 
     58 CB          0.7834  -10.6044  -42.5794 C.3       3 UNK        -0.1800 
     59 N           1.2894  -11.8082  -44.6518 N.am      3 UNK        -0.5000 
     60 C           1.2866  -12.7605  -45.5947 C.2       2 UNK         0.5000 
     61 O           0.8292  -13.8911  -45.4194 O.2       2 UNK        -0.5000 
     62 CA          1.9785  -12.4057  -46.9239 C.3       2 UNK         0.1400 
     63 CB          3.4927  -12.6415  -46.8040 C.3       2 UNK        -0.1800 
     64 N           1.4793  -13.1847  -48.0580 N.am      2 UNK        -0.5000 
     65 C           0.2448  -13.1159  -48.5777 C.2       1 UNK         0.5000 
     66 O          -0.6267  -12.3553  -48.1537 O.2       1 UNK        -0.5000 
     67 C          -1.4168  -19.3089  -47.9702 C.2       11 UNK         0.5000 
     68 O          -1.8195  -19.1489  -49.1214 O.2       11 UNK        -0.5000 
     69 N          -0.6298  -20.3226  -47.5765 N.am      12 UNK        -0.5000 
     70 CA         -0.1166  -21.4680  -48.3313 C.3       12 UNK         0.1400 
     71 CB          0.4988  -21.0637  -49.6844 C.3       12 UNK        -0.1800 
     72 C          -1.1238  -22.6190  -48.4873 C.2       12 UNK         0.5000 
     73 O          -0.7085  -23.7037  -48.8945 O.2       12 UNK        -0.5000 
     74 N          -2.3979  -22.4193  -48.1205 N.am      13 UNK        -0.5000 
     75 CA         -3.4562  -23.4223  -48.2584 C.3       13 UNK         0.1400 
     76 CB         -4.8233  -22.7757  -47.9984 C.3       13 UNK        -0.1800 
     77 C          -3.2648  -24.6745  -47.3801 C.2       13 UNK         0.5000 
     78 O          -3.8012  -25.7266  -47.7229 O.2       13 UNK        -0.5000 
     79 N          -2.4893  -24.5757  -46.2907 N.am      14 UNK        -0.5000 
     80 CA         -2.1343  -25.7267  -45.4556 C.3       14 UNK         0.1400 
     81 CB         -1.7043  -25.2403  -44.0633 C.3       14 UNK        -0.1800 
     82 C          -1.0245  -26.5979  -46.0784 C.2       14 UNK         0.5000 
     83 O          -0.8946  -27.7614  -45.6957 O.2       14 UNK        -0.5000 
     84 N          -0.2357  -26.0256  -46.9985 N.am      15 UNK        -0.5000 
     85 CA          0.9306  -26.6628  -47.6083 C.3       15 UNK         0.1400 
     86 CB          2.1166  -25.6856  -47.5454 C.3       15 UNK        -0.1800 
     87 C           0.6589  -27.0842  -49.0608 C.2       15 UNK         0.5000 
     88 O           0.9797  -28.2121  -49.4367 O.2       15 UNK        -0.5000 
     89 N           0.0861  -26.1700  -49.8520 N.am      16 UNK        -0.5000 
     90 CA         -0.1178  -26.3093  -51.2943 C.3       16 UNK         0.1400 
     91 CB          0.2949  -24.9860  -51.9630 C.3       16 UNK        -0.1800 
     92 C          -1.5675  -26.6717  -51.6648 C.2       16 UNK         0.5000 
     93 O          -1.8690  -26.7689  -52.8554 O.2       16 UNK        -0.5000 
     94 N          -2.4463  -26.8312  -50.6627 N.am      17 UNK        -0.5000 
     95 CA         -3.8982  -27.0623  -50.7369 C.3       17 UNK         0.1400 
     96 CB         -4.2471  -28.3276  -51.5451 C.3       17 UNK        -0.1800 
     97 C          -4.6827  -25.8323  -51.2365 C.2       17 UNK         0.5000 
     98 O          -5.6467  -25.4178  -50.5925 O.2       17 UNK        -0.5000 
     99 N          -4.2404  -25.2551  -52.3567 N.am      18 UNK        -0.5000 
    100 CA        -4.6935  -23.9757  -52.8876 C.3       18 UNK         0.1400 
    101 CB        -4.4097  -23.9564  -54.3967 C.3       18 UNK        -0.1800 
    102 C         -3.9589  -22.8186  -52.1881 C.2       18 UNK         0.5000 
    103 O         -2.8068  -22.9791  -51.7778 O.2       18 UNK        -0.5000 
    104 N         -4.6131  -21.6545  -52.1097 N.am      19 UNK        -0.5000 
    105 CA        -4.0840  -20.4149  -51.5319 C.3       19 UNK         0.1400 
    106 CB        -5.2728  -19.5130  -51.1548 C.3       19 UNK        -0.1800 
    107 C         -3.0848  -19.7087  -52.4759 C.2       19 UNK         0.5000 
    108 O         -3.3077  -18.5609  -52.8659 O.2       19 UNK        -0.5000 
    109 N         -2.0257  -20.4339  -52.8675 N.am      20 UNK        -0.5000 
    110 CA        -0.9615  -20.0466  -53.7983 C.3       20 UNK         0.1400 
    111 CB         0.0502  -19.1164  -53.0940 C.3       20 UNK        -0.1800 
    112 C         -1.5297  -19.4825  -55.1185 C.2       20 UNK         0.5000 
    113 O         -2.1201  -20.2409  -55.8898 O.2       20 UNK        -0.5000 
    114 N         -1.3908  -18.1665  -55.3316 N.am      21 UNK        -0.5000 
    115 CA        -1.9142  -17.4193  -56.4785 C.3       21 UNK         0.1400 
    116 CB        -1.4583  -15.9559  -56.3673 C.3       21 UNK        -0.1800 
    117 C         -3.4469  -17.4902  -56.6463 C.2       21 UNK         0.5000 
    118 O         -3.9270  -17.3764  -57.7751 O.2       21 UNK        -0.5000 
    119 N         -4.1772  -17.6955  -55.5430 N.am      22 UNK        -0.5000 
    120 CA        -5.6308  -17.9279  -55.5235 C.3       22 UNK         0.1400 
    121 C         -6.0013  -19.4354  -55.3990 C.2       22 UNK         0.5000 
    122 N         -5.0688  -20.3721  -55.5259 N.am      22 UNK        -0.7600 
    123 O         -7.1666  -19.7738  -55.2119 O.2       22 UNK        -0.5000 
    124 C124       -6.3389  -17.0579  -54.4526 C.3       23 UNK        -0.0398 
    125 S125       -6.2149  -15.2770  -54.8424 S.3       23 UNK        -0.2404 
    126 C126       -6.3415  -14.5109  -53.1906 C.3       23 UNK        -0.0205 
    127 H127        1.8684  -17.9676  -50.3748 H         1 UNK         0.0600 
    128 H128        2.8780  -17.3637  -49.0562 H         1 UNK         0.0600 
    129 H129        2.9207  -16.5735  -50.6351 H         1 UNK         0.0600 
    130 H130        1.6540  -14.7214  -50.8110 H         1 UNK         0.3000 
    131 H131       -0.9631  -14.5682  -49.5262 H         1 UNK         0.0600 
    132 H132       -1.3206  -12.5742  -50.8367 H         1 UNK         0.0800 
    133 H133        0.3710  -12.4088  -51.2056 H         1 UNK         0.0800 
    134 H134       -1.5000  -16.1917  -53.1593 H         1 UNK         0.0800 
    135 H135       -0.8882  -16.1662  -51.5373 H         1 UNK         0.0800 
    136 H136       -3.6450  -14.7525  -53.6604 H         1 UNK         0.1150 
    137 H137       -6.5886  -15.1993  -50.5743 H         1 UNK         0.1150 
    138 H138       -2.4834  -16.1605  -49.8062 H         1 UNK         0.1150 
    139 H139       -4.5401  -15.2085  -47.9174 H         1 UNK         0.0800 
    140 H140       -6.0257  -15.9552  -48.4343 H         1 UNK         0.0800 
    141 H141       -2.2901  -16.4435  -47.7493 H         1 UNK         0.0800 
    142 H142       -3.0651  -16.6665  -46.2345 H         1 UNK         0.0800 
    143 H143       -0.8611  -17.8189  -46.6212 H         1 UNK         0.0600 
    144 H144       -1.3748  -18.8952  -44.8446 H         1 UNK         0.3000 
    145 H145       -3.3963  -19.8230  -43.2225 H         1 UNK         0.0600 
    146 H146       -3.8802  -22.2580  -42.8248 H         1 UNK         0.0600 
    147 H147       -4.9711  -21.5421  -44.0004 H         1 UNK         0.0600 
    148 H148       -3.6598  -22.5749  -44.5449 H         1 UNK         0.0600 
    149 H149       -1.3445  -20.4583  -42.6256 H         1 UNK         0.3000 
    150 H150        0.6339  -22.8508  -43.0795 H         1 UNK         0.0600 
    151 H151        1.5755  -22.5707  -45.3480 H         1 UNK         0.0600 
    152 H152        2.7053  -21.9384  -44.1654 H         1 UNK         0.0600 
    153 H153        1.7167  -20.8299  -45.1139 H         1 UNK         0.0600 
    154 H154        0.8111  -19.8743  -42.7843 H         1 UNK         0.3000 
    155 H155        1.9755  -20.2655  -39.4153 H         1 UNK         0.0600 
    156 H156        4.0686  -20.5131  -40.7237 H         1 UNK         0.0600 
    157 H157        3.8503  -18.8494  -40.2036 H         1 UNK         0.0600 
    158 H158        3.5188  -19.3020  -41.8752 H         1 UNK         0.0600 
    159 H159        1.6289  -17.9337  -41.0313 H         1 UNK         0.3000 
    160 H160       -1.5244  -17.1187  -39.4596 H         1 UNK         0.0600 
    161 H161        1.3462  -16.0472  -39.4116 H         1 UNK         0.0600 
    162 H162        0.4207  -16.5509  -38.0019 H         1 UNK         0.0600 
    163 H163       -0.1047  -15.1649  -38.9466 H         1 UNK         0.0600 
    164 H164        0.0754  -15.8313  -41.4973 H         1 UNK         0.3000 
    165 H165       -1.9922  -16.8771  -44.2129 H         1 UNK         0.0600 
    166 H166       -1.9020  -14.4037  -44.5865 H         1 UNK         0.0600 
    167 H167       -3.0960  -14.8793  -43.3879 H         1 UNK         0.0600 
    168 H168       -1.5761  -14.1765  -42.8677 H         1 UNK         0.0600 
    169 H169        0.3571  -15.3241  -44.2468 H         1 UNK         0.3000 
    170 H170        2.7854  -17.9387  -44.1196 H         1 UNK         0.0600 
    171 H171        2.0292  -17.8766  -46.5134 H         1 UNK         0.0600 
    172 H172        1.9551  -16.1205  -46.4370 H         1 UNK         0.0600 
    173 H173        3.5000  -16.9484  -46.2585 H         1 UNK         0.0600 
    174 H174        2.8890  -15.0698  -44.4564 H         1 UNK         0.3000 
    175 H175        3.2939  -14.3180  -40.9777 H         1 UNK         0.0600 
    176 H176        5.5331  -14.9621  -41.8868 H         1 UNK         0.0600 
    177 H177        5.1568  -14.1689  -43.4119 H         1 UNK         0.0600 
    178 H178        5.3006  -13.2219  -41.9313 H         1 UNK         0.0600 
    179 H179        3.1713  -12.6843  -43.3296 H         1 UNK         0.3000 
    180 H180       -0.3383  -12.2184  -43.4307 H         1 UNK         0.0600 
    181 H181        0.3398  -10.6752  -41.5852 H         1 UNK         0.0600 
    182 H182        1.8127  -10.2653  -42.4562 H         1 UNK         0.0600 
    183 H183        0.2373   -9.8327  -43.1223 H         1 UNK         0.0600 
    184 H184        1.7002  -10.9107  -44.8656 H         1 UNK         0.3000 
    185 H185        1.8002  -11.3496  -47.1361 H         1 UNK         0.0600 
    186 H186        3.9218  -12.0536  -45.9916 H         1 UNK         0.0600 
    187 H187        3.7225  -13.6899  -46.6078 H         1 UNK         0.0600 
    188 H188        4.0106  -12.3510  -47.7183 H         1 UNK         0.0600 
    189 H189        2.1142  -13.8610  -48.4540 H         1 UNK         0.3000 
    190 H190       -0.4369  -20.3750  -46.5862 H         1 UNK         0.3000 
    191 H191        0.6926  -21.8684  -47.7191 H         1 UNK         0.0600 
    192 H192       -0.2682  -20.7729  -50.4018 H         1 UNK         0.0600 
    193 H193        1.0483  -21.8966  -50.1247 H         1 UNK         0.0600 
    194 H194        1.1959  -20.2337  -49.5730 H         1 UNK         0.0600 
    195 H195       -2.6651  -21.5236  -47.7335 H         1 UNK         0.3000 
    196 H196       -3.4425  -23.7613  -49.2950 H         1 UNK         0.0600 
    197 H197       -5.6299  -23.4645  -48.2525 H         1 UNK         0.0600 
    198 H198       -4.9604  -21.8776  -48.6013 H         1 UNK         0.0600 
    199 H199       -4.9461  -22.5035  -46.9502 H         1 UNK         0.0600 
    200 H200       -2.0645  -23.6834  -46.0510 H         1 UNK         0.3000 
    201 H201       -3.0190  -26.3544  -45.3290 H         1 UNK         0.0600 
    202 H202       -1.5738  -26.0825  -43.3828 H         1 UNK         0.0600 
    203 H203       -0.7548  -24.7070  -44.1013 H         1 UNK         0.0600 
    204 H204       -2.4497  -24.5790  -43.6220 H         1 UNK         0.0600 
    205 H205       -0.4478  -25.0833  -47.3019 H         1 UNK         0.3000 
    206 H206        1.2116  -27.5589  -47.0510 H         1 UNK         0.0600 
    207 H207        2.3638  -25.4353  -46.5136 H         1 UNK         0.0600 
    208 H208        3.0083  -26.1230  -47.9963 H         1 UNK         0.0600 
    209 H209        1.9047  -24.7539  -48.0720 H         1 UNK         0.0600 
    210 H210       -0.1642  -25.2608  -49.4629 H         1 UNK         0.3000 
    211 H211        0.5220  -27.1004  -51.6902 H         1 UNK         0.0600 
    212 H212        0.2104  -25.0470  -53.0486 H         1 UNK         0.0600 
    213 H213        1.3303  -24.7346  -51.7328 H         1 UNK         0.0600 
    214 H214       -0.3308  -24.1565  -51.6314 H         1 UNK         0.0600 
    215 H215       -2.0881  -26.6983  -49.7274 H         1 UNK         0.3000 
    216 H216       -4.2226  -27.2515  -49.7141 H         1 UNK         0.0600 
    217 H217       -5.3115  -28.5519  -51.4669 H         1 UNK         0.0600 
    218 H218       -3.7039  -29.1957  -51.1719 H         1 UNK         0.0600 
    219 H219       -4.0194  -28.2188  -52.6055 H         1 UNK         0.0600 
    220 H220       -3.4063  -25.6523  -52.7796 H         1 UNK         0.3000 
    221 H221       -5.7686  -23.8736  -52.7253 H         1 UNK         0.0600 
    222 H222       -3.3413  -24.0271  -54.6064 H         1 UNK         0.0600 
    223 H223       -4.9053  -24.7857  -54.9018 H         1 UNK         0.0600 
    224 H224       -4.7735  -23.0373  -54.8523 H         1 UNK         0.0600 
    225 H225       -5.5369  -21.5884  -52.5114 H         1 UNK         0.3000 
    226 H226       -3.5436  -20.6557  -50.6140 H         1 UNK         0.0600 
    227 H227       -5.8963  -19.9799  -50.3925 H         1 UNK         0.0600 
    228 H228       -4.9271  -18.5614  -50.7505 H         1 UNK         0.0600 
    229 H229       -5.9009  -19.2917  -52.0181 H         1 UNK         0.0600 
    230 H230       -1.9860  -21.3887  -52.5223 H         1 UNK         0.3000 
    231 H231       -0.4334  -20.9627  -54.0664 H         1 UNK         0.0600 
    232 H232        0.5754  -19.6473  -52.3013 H         1 UNK         0.0600 
    233 H233       -0.4340  -18.2546  -52.6387 H         1 UNK         0.0600 
    234 H234        0.8123  -18.7543  -53.7852 H         1 UNK         0.0600 
    235 H235       -0.9165  -17.6242  -54.6263 H         1 UNK         0.3000 
    236 H236       -1.4683  -17.8497  -57.3773 H         1 UNK         0.0600 
    237 H237       -0.3724  -15.8806  -56.3087 H         1 UNK         0.0600 
    238 H238       -1.7761  -15.3818  -57.2387 H         1 UNK         0.0600 
    239 H239       -1.8783  -15.4691  -55.4864 H         1 UNK         0.0600 
    240 H240       -3.7072  -17.8208  -54.6503 H         1 UNK         0.3000 
    241 H241       -6.0507  -17.6341  -56.4869 H         1 UNK         0.0600 
    242 H242       -4.0991  -20.1363  -55.7080 H         1 UNK         0.3800 
    243 H243       -5.3479  -21.3373  -55.4961 H         1 UNK         0.3800 
    244 H244       -7.4007  -17.2998  -54.3854 H         1 UNK         0.0800 
    245 H245       -5.9136  -17.2611  -53.4690 H         1 UNK         0.0800 
    246 H246       -7.3251  -14.7426  -52.7789 H         1 UNK         0.0800 
    247 H247       -6.3000  -13.4270  -53.3025 H         1 UNK         0.0800 
@<TRIPOS>BOND
     1    1    2 1    
     2    1  127 1    
     3    1  128 1    
     4    1  129 1    
     5    2    3 2    
     6    2    4 am   BACKBONE|DICT|INTERRES
     7    4    5 1    
     8    4  130 1    
     9    5    6 1    
    10    5   65 1    
    11    5  131 1    
    12    6    7 1    
    13    6  132 1    
    14    6  133 1    
    15    7    8 1    
    16    8    9 1    
    17    8  134 1    
    18    8  135 1    
    19    9   10 ar   
    20    9   14 ar   
    21   10   11 ar   
    22   10  136 1    
    23   11   12 ar   
    24   11  126 1    
    25   12   13 ar   
    26   12  137 1    
    27   13   14 ar   
    28   13   15 1    
    29   14  138 1    
    30   15   16 1    
    31   15  139 1    
    32   15  140 1    
    33   16   17 1    
    34   17   18 1    
    35   17  141 1    
    36   17  142 1    
    37   18   19 1    
    38   18   67 1    
    39   18  143 1    
    40   19   20 am   BACKBONE|DICT|INTERRES
    41   19  144 1    
    42   20   21 2    
    43   20   22 1    
    44   22   23 1    
    45   22   24 1    
    46   22  145 1    
    47   23  146 1    
    48   23  147 1    
    49   23  148 1    
    50   24   25 am   BACKBONE|DICT|INTERRES
    51   24  149 1    
    52   25   26 2    
    53   25   27 1    
    54   27   28 1    
    55   27   29 1    
    56   27  150 1    
    57   28  151 1    
    58   28  152 1    
    59   28  153 1    
    60   29   30 am   BACKBONE|DICT|INTERRES
    61   29  154 1    
    62   30   31 2    
    63   30   32 1    
    64   32   33 1    
    65   32   34 1    
    66   32  155 1    
    67   33  156 1    
    68   33  157 1    
    69   33  158 1    
    70   34   35 am   BACKBONE|DICT|INTERRES
    71   34  159 1    
    72   35   36 2    
    73   35   37 1    
    74   37   38 1    
    75   37   39 1    
    76   37  160 1    
    77   38  161 1    
    78   38  162 1    
    79   38  163 1    
    80   39   40 am   BACKBONE|DICT|INTERRES
    81   39  164 1    
    82   40   41 2    
    83   40   42 1    
    84   42   43 1    
    85   42   44 1    
    86   42  165 1    
    87   43  166 1    
    88   43  167 1    
    89   43  168 1    
    90   44   45 am   BACKBONE|DICT|INTERRES
    91   44  169 1    
    92   45   46 2    
    93   45   47 1    
    94   47   48 1    
    95   47   49 1    
    96   47  170 1    
    97   48  171 1    
    98   48  172 1    
    99   48  173 1    
   100   49   50 am   BACKBONE|DICT|INTERRES
   101   49  174 1    
   102   50   51 2    
   103   50   52 1    
   104   52   53 1    
   105   52   54 1    
   106   52  175 1    
   107   53  176 1    
   108   53  177 1    
   109   53  178 1    
   110   54   55 am   BACKBONE|DICT|INTERRES
   111   54  179 1    
   112   55   56 2    
   113   55   57 1    
   114   57   58 1    
   115   57   59 1    
   116   57  180 1    
   117   58  181 1    
   118   58  182 1    
   119   58  183 1    
   120   59   60 am   BACKBONE|DICT|INTERRES
   121   59  184 1    
   122   60   61 2    
   123   60   62 1    
   124   62   63 1    
   125   62   64 1    
   126   62  185 1    
   127   63  186 1    
   128   63  187 1    
   129   63  188 1    
   130   64   65 am   BACKBONE|DICT|INTERRES
   131   64  189 1    
   132   65   66 2    
   133   67   68 2    
   134   67   69 am   BACKBONE|DICT|INTERRES
   135   69   70 1    
   136   69  190 1    
   137   70   71 1    
   138   70   72 1    
   139   70  191 1    
   140   71  192 1    
   141   71  193 1    
   142   71  194 1    
   143   72   73 2    
   144   72   74 am   BACKBONE|DICT|INTERRES
   145   74   75 1    
   146   74  195 1    
   147   75   76 1    
   148   75   77 1    
   149   75  196 1    
   150   76  197 1    
   151   76  198 1    
   152   76  199 1    
   153   77   78 2    
   154   77   79 am   BACKBONE|DICT|INTERRES
   155   79   80 1    
   156   79  200 1    
   157   80   81 1    
   158   80   82 1    
   159   80  201 1    
   160   81  202 1    
   161   81  203 1    
   162   81  204 1    
   163   82   83 2    
   164   82   84 am   BACKBONE|DICT|INTERRES
   165   84   85 1    
   166   84  205 1    
   167   85   86 1    
   168   85   87 1    
   169   85  206 1    
   170   86  207 1    
   171   86  208 1    
   172   86  209 1    
   173   87   88 2    
   174   87   89 am   BACKBONE|DICT|INTERRES
   175   89   90 1    
   176   89  210 1    
   177   90   91 1    
   178   90   92 1    
   179   90  211 1    
   180   91  212 1    
   181   91  213 1    
   182   91  214 1    
   183   92   93 2    
   184   92   94 am   BACKBONE|DICT|INTERRES
   185   94   95 1    
   186   94  215 1    
   187   95   96 1    
   188   95   97 1    
   189   95  216 1    
   190   96  217 1    
   191   96  218 1    
   192   96  219 1    
   193   97   98 2    
   194   97   99 am   BACKBONE|DICT|INTERRES
   195   99  100 1    
   196   99  220 1    
   197  100  101 1    
   198  100  102 1    
   199  100  221 1    
   200  101  222 1    
   201  101  223 1    
   202  101  224 1    
   203  102  103 2    
   204  102  104 am   BACKBONE|DICT|INTERRES
   205  104  105 1    
   206  104  225 1    
   207  105  106 1    
   208  105  107 1    
   209  105  226 1    
   210  106  227 1    
   211  106  228 1    
   212  106  229 1    
   213  107  108 2    
   214  107  109 am   BACKBONE|DICT|INTERRES
   215  109  110 1    
   216  109  230 1    
   217  110  111 1    
   218  110  112 1    
   219  110  231 1    
   220  111  232 1    
   221  111  233 1    
   222  111  234 1    
   223  112  113 2    
   224  112  114 am   BACKBONE|DICT|INTERRES
   225  114  115 1    
   226  114  235 1    
   227  115  116 1    
   228  115  117 1    
   229  115  236 1    
   230  116  237 1    
   231  116  238 1    
   232  116  239 1    
   233  117  118 2    
   234  117  119 am   BACKBONE|DICT|INTERRES
   235  119  120 1    
   236  119  240 1    
   237  120  121 1    
   238  120  124 1    
   239  120  241 1    
   240  121  122 am   BACKBONE|DICT|INTERRES
   241  121  123 2    
   242  122  242 1    
   243  122  243 1    
   244  124  125 1    
   245  124  244 1    
   246  124  245 1    
   247  125  126 1    
   248  126  246 1    
   249  126  247 1    
@<TRIPOS>SUBSTRUCTURE
     1 UNK         1 GROUP             0       ****    0 ROOT    
