@<TRIPOS>MOLECULE
3R540
247   249    1
SMALL
USER_CHARGES


@<TRIPOS>ATOM
      1 CA         -3.3958  -14.6151  -53.6779 C.3       0 UNK        -0.1800 
      2 C          -2.7554  -14.1548  -52.3760 C.2       0 UNK         0.5000 
      3 O          -3.0883  -13.0783  -51.8791 O.2       0 UNK        -0.5000 
      4 N          -1.8312  -14.9559  -51.8324 N.am      1 UNK        -0.5000 
      5 CA         -1.1454  -14.7182  -50.5588 C.3       1 UNK         0.1400 
      6 C6          0.0389  -15.6980  -50.3763 C.3       23 UNK        -0.0398 
      7 S7          1.4326  -14.9627  -49.4561 S.3       23 UNK        -0.2404 
      8 C8          2.1167  -16.4196  -48.5904 C.3       23 UNK        -0.0205 
      9 C9          2.5446  -17.5943  -49.4762 C.ar      23 UNK        -0.0193 
     10 C10         2.7820  -17.4757  -50.8520 C.ar      23 UNK        -0.1150 
     11 C11         3.1144  -18.5895  -51.6300 C.ar      23 UNK        -0.0193 
     12 C12         3.2487  -19.8366  -51.0052 C.ar      23 UNK        -0.1150 
     13 C13         3.0392  -19.9707  -49.6301 C.ar      23 UNK        -0.0193 
     14 C14         2.7035  -18.8444  -48.8777 C.ar      23 UNK        -0.1150 
     15 C15         3.1761  -21.3275  -48.9543 C.3       23 UNK        -0.0205 
     16 S16         1.6128  -21.8641  -48.1876 S.3       23 UNK        -0.2404 
     17 C17         1.9899  -23.6213  -47.8633 C.3       23 UNK        -0.0398 
     18 CA          1.3216  -24.2289  -46.6029 C.3       11 UNK         0.1400 
     19 N           1.8558  -23.6707  -45.3585 N.am      11 UNK        -0.5000 
     20 C           2.7428  -24.2893  -44.5692 C.2       10 UNK         0.5000 
     21 O           3.2675  -25.3701  -44.8471 O.2       10 UNK        -0.5000 
     22 CA          3.0930  -23.5774  -43.2483 C.3       10 UNK         0.1400 
     23 CB          4.0064  -24.4065  -42.3211 C.3       10 UNK        -0.1800 
     24 N           3.6462  -22.2434  -43.4732 N.am      10 UNK        -0.5000 
     25 C           4.7897  -21.8981  -44.0800 C.2       9 UNK         0.5000 
     26 O           5.6063  -22.7004  -44.5335 O.2       9 UNK        -0.5000 
     27 CA          5.0721  -20.3854  -44.1983 C.3       9 UNK         0.1400 
     28 CB          4.7040  -19.8868  -45.6038 C.3       9 UNK        -0.1800 
     29 N           4.3549  -19.5817  -43.2029 N.am      9 UNK        -0.5000 
     30 C           4.6350  -19.5557  -41.8916 C.2       8 UNK         0.5000 
     31 O           5.5837  -20.1544  -41.3833 O.2       8 UNK        -0.5000 
     32 CA          3.6724  -18.7559  -40.9918 C.3       8 UNK         0.1400 
     33 CB          4.0111  -17.2574  -41.0084 C.3       8 UNK        -0.1800 
     34 N           2.2700  -18.9486  -41.3662 N.am      8 UNK        -0.5000 
     35 C           1.5944  -20.0964  -41.2061 C.2       7 UNK         0.5000 
     36 O           2.0633  -21.0975  -40.6650 O.2       7 UNK        -0.5000 
     37 CA          0.1710  -20.1527  -41.7878 C.3       7 UNK         0.1400 
     38 CB         -0.8514  -19.5707  -40.8007 C.3       7 UNK        -0.1800 
     39 N           0.0763  -19.4584  -43.0718 N.am      7 UNK        -0.5000 
     40 C           0.6508  -19.8887  -44.2023 C.2       6 UNK         0.5000 
     41 O           1.2323  -20.9676  -44.2970 O.2       6 UNK        -0.5000 
     42 CA          0.6090  -18.9577  -45.4239 C.3       6 UNK         0.1400 
     43 CB         -0.6083  -19.2460  -46.2960 C.3       6 UNK        -0.1800 
     44 N           0.6354  -17.5385  -45.0876 N.am      6 UNK        -0.5000 
     45 C           1.6848  -16.9130  -44.5422 C.2       5 UNK         0.5000 
     46 O           2.7575  -17.4643  -44.3026 O.2       5 UNK        -0.5000 
     47 CA          1.4754  -15.4426  -44.1478 C.3       5 UNK         0.1400 
     48 CB          1.6496  -14.5151  -45.3604 C.3       5 UNK        -0.1800 
     49 N           0.1578  -15.2337  -43.5458 N.am      5 UNK        -0.5000 
     50 C          -0.2014  -15.7046  -42.3427 C.2       4 UNK         0.5000 
     51 O           0.5615  -16.3174  -41.5950 O.2       4 UNK        -0.5000 
     52 CA         -1.6693  -15.4909  -41.9276 C.3       4 UNK         0.1400 
     53 CB         -1.8665  -14.0869  -41.3371 C.3       4 UNK        -0.1800 
     54 N          -2.6025  -15.6853  -43.0398 N.am      4 UNK        -0.5000 
     55 C          -2.8448  -16.8670  -43.6259 C.2       3 UNK         0.5000 
     56 O          -2.3381  -17.9235  -43.2577 O.2       3 UNK        -0.5000 
     57 CA         -3.7651  -16.8631  -44.8613 C.3       3 UNK         0.1400 
     58 CB         -5.2306  -17.0680  -44.4529 C.3       3 UNK        -0.1800 
     59 N          -3.6446  -15.6457  -45.6662 N.am      3 UNK        -0.5000 
     60 C          -2.5256  -15.2703  -46.2985 C.2       2 UNK         0.5000 
     61 O          -1.4618  -15.8914  -46.2368 O.2       2 UNK        -0.5000 
     62 CA         -2.5921  -13.9455  -47.0765 C.3       2 UNK         0.1400 
     63 CB         -2.0588  -12.7952  -46.2085 C.3       2 UNK        -0.1800 
     64 N          -1.8219  -14.0006  -48.3172 N.am      2 UNK        -0.5000 
     65 C          -2.1183  -14.7837  -49.3618 C.2       1 UNK         0.5000 
     66 O          -3.0976  -15.5338  -49.4002 O.2       1 UNK        -0.5000 
     67 C          -0.2191  -24.1477  -46.6195 C.2       11 UNK         0.5000 
     68 O          -0.8198  -23.4410  -45.8047 O.2       11 UNK        -0.5000 
     69 N          -0.8316  -24.8872  -47.5576 N.am      12 UNK        -0.5000 
     70 CA         -2.2786  -25.0982  -47.6960 C.3       12 UNK         0.1400 
     71 CB         -2.5313  -26.0815  -48.8483 C.3       12 UNK        -0.1800 
     72 C          -3.1197  -23.8239  -47.8961 C.2       12 UNK         0.5000 
     73 O          -4.3122  -23.8347  -47.5832 O.2       12 UNK        -0.5000 
     74 N          -2.4917  -22.7327  -48.3588 N.am      13 UNK        -0.5000 
     75 CA         -3.0975  -21.4040  -48.4774 C.3       13 UNK         0.1400 
     76 CB         -2.1294  -20.4487  -49.1920 C.3       13 UNK        -0.1800 
     77 C          -3.6046  -20.8144  -47.1448 C.2       13 UNK         0.5000 
     78 O          -4.4523  -19.9246  -47.1774 O.2       13 UNK        -0.5000 
     79 N          -3.1392  -21.3515  -46.0063 N.am      14 UNK        -0.5000 
     80 CA         -3.6510  -21.0489  -44.6688 C.3       14 UNK         0.1400 
     81 CB         -2.7799  -21.7685  -43.6300 C.3       14 UNK        -0.1800 
     82 C          -5.1294  -21.4453  -44.4828 C.2       14 UNK         0.5000 
     83 O          -5.8385  -20.7892  -43.7198 O.2       14 UNK        -0.5000 
     84 N          -5.5617  -22.5008  -45.1862 N.am      15 UNK        -0.5000 
     85 CA         -6.9382  -22.9888  -45.1999 C.3       15 UNK         0.1400 
     86 CB         -6.9286  -24.5170  -45.0359 C.3       15 UNK        -0.1800 
     87 C          -7.6526  -22.5941  -46.5023 C.2       15 UNK         0.5000 
     88 O          -8.8149  -22.1903  -46.4563 O.2       15 UNK        -0.5000 
     89 N          -6.9560  -22.7263  -47.6406 N.am      16 UNK        -0.5000 
     90 CA         -7.5168  -22.5219  -48.9780 C.3       16 UNK         0.1400 
     91 CB         -6.6346  -23.2539  -50.0031 C.3       16 UNK        -0.1800 
     92 C          -7.6926  -21.0438  -49.3779 C.2       16 UNK         0.5000 
     93 O          -8.4431  -20.7741  -50.3154 O.2       16 UNK        -0.5000 
     94 N          -6.9911  -20.1258  -48.6928 N.am      17 UNK        -0.5000 
     95 CA         -6.9118  -18.6835  -48.9728 C.3       17 UNK         0.1400 
     96 CB         -8.2812  -17.9992  -48.7770 C.3       17 UNK        -0.1800 
     97 C          -6.2581  -18.3726  -50.3396 C.2       17 UNK         0.5000 
     98 O          -6.6280  -17.3942  -50.9908 O.2       17 UNK        -0.5000 
     99 N          -5.2906  -19.2238  -50.7172 N.am      18 UNK        -0.5000 
    100 CA        -4.5206  -19.2748  -51.9656 C.3       18 UNK         0.1400 
    101 CB        -3.7876  -17.9502  -52.2392 C.3       18 UNK        -0.1800 
    102 C         -5.3428  -19.7270  -53.1886 C.2       18 UNK         0.5000 
    103 O         -6.5474  -19.4830  -53.2747 O.2       18 UNK        -0.5000 
    104 N         -4.6574  -20.3911  -54.1262 N.am      19 UNK        -0.5000 
    105 CA        -5.2307  -20.8907  -55.3759 C.3       19 UNK         0.1400 
    106 CB        -4.4576  -22.1453  -55.8112 C.3       19 UNK        -0.1800 
    107 C         -5.1996  -19.8297  -56.4897 C.2       19 UNK         0.5000 
    108 O         -6.0955  -19.8148  -57.3347 O.2       19 UNK        -0.5000 
    109 N         -4.1779  -18.9643  -56.4679 N.am      20 UNK        -0.5000 
    110 CA        -3.9634  -17.8755  -57.4239 C.3       20 UNK         0.1400 
    111 CB        -3.5678  -18.4207  -58.8107 C.3       20 UNK        -0.1800 
    112 C         -2.8907  -16.9087  -56.9043 C.2       20 UNK         0.5000 
    113 O         -3.0620  -15.6943  -57.0095 O.2       20 UNK        -0.5000 
    114 N         -1.8169  -17.4677  -56.3349 N.am      21 UNK        -0.5000 
    115 CA        -0.7298  -16.7415  -55.6876 C.3       21 UNK         0.1400 
    116 CB         0.4455  -16.5465  -56.6633 C.3       21 UNK        -0.1800 
    117 C         -0.3494  -17.5361  -54.4372 C.2       21 UNK         0.5000 
    118 O         -0.7009  -17.1296  -53.3309 O.2       21 UNK        -0.5000 
    119 N          0.2872  -18.6933  -54.6465 N.am      22 UNK        -0.5000 
    120 CA         0.4734  -19.7330  -53.6255 C.3       22 UNK         0.1400 
    121 C         -0.8283  -20.5605  -53.3954 C.2       22 UNK         0.5000 
    122 N         -0.8216  -21.4928  -52.4529 N.am      22 UNK        -0.7600 
    123 O         -1.8441  -20.3843  -54.0684 O.2       22 UNK        -0.5000 
    124 C124        1.6702  -20.6597  -53.9758 C.3       23 UNK        -0.0398 
    125 S125        3.3180  -19.8819  -54.1815 S.3       23 UNK        -0.2404 
    126 C126        3.3152  -18.3803  -53.1333 C.3       23 UNK        -0.0205 
    127 H127       -3.0753  -15.6190  -53.9539 H         1 UNK         0.0600 
    128 H128       -3.1300  -13.9385  -54.4901 H         1 UNK         0.0600 
    129 H129       -4.4814  -14.6244  -53.5804 H         1 UNK         0.0600 
    130 H130       -1.5796  -15.8206  -52.3057 H         1 UNK         0.3000 
    131 H131       -0.7517  -13.7009  -50.6174 H         1 UNK         0.0600 
    132 H132       -0.2778  -16.6360  -49.9148 H         1 UNK         0.0800 
    133 H133        0.4414  -15.9722  -51.3504 H         1 UNK         0.0800 
    134 H134        1.3672  -16.7626  -47.8748 H         1 UNK         0.0800 
    135 H135        2.9780  -16.0989  -48.0035 H         1 UNK         0.0800 
    136 H136        2.6990  -16.5136  -51.3352 H         1 UNK         0.1150 
    137 H137        3.5206  -20.7090  -51.5802 H         1 UNK         0.1150 
    138 H138        2.5554  -18.9484  -47.8166 H         1 UNK         0.1150 
    139 H139        3.4946  -22.0798  -49.6777 H         1 UNK         0.0800 
    140 H140        3.9553  -21.2787  -48.1936 H         1 UNK         0.0800 
    141 H141        3.0709  -23.7406  -47.7763 H         1 UNK         0.0800 
    142 H142        1.7082  -24.1902  -48.7505 H         1 UNK         0.0800 
    143 H143        1.5368  -25.2994  -46.6212 H         1 UNK         0.0600 
    144 H144        1.4527  -22.7847  -45.0624 H         1 UNK         0.3000 
    145 H145        2.1491  -23.4265  -42.7220 H         1 UNK         0.0600 
    146 H146        4.1970  -23.8795  -41.3861 H         1 UNK         0.0600 
    147 H147        3.5401  -25.3592  -42.0680 H         1 UNK         0.0600 
    148 H148        4.9686  -24.6275  -42.7836 H         1 UNK         0.0600 
    149 H149        3.0173  -21.4873  -43.2348 H         1 UNK         0.3000 
    150 H150        6.1431  -20.2331  -44.0503 H         1 UNK         0.0600 
    151 H151        5.3068  -20.3874  -46.3621 H         1 UNK         0.0600 
    152 H152        4.8775  -18.8154  -45.7062 H         1 UNK         0.0600 
    153 H153        3.6571  -20.0830  -45.8344 H         1 UNK         0.0600 
    154 H154        3.6108  -18.9830  -43.5519 H         1 UNK         0.3000 
    155 H155        3.7991  -19.1159  -39.9686 H         1 UNK         0.0600 
    156 H156        5.0385  -17.0874  -40.6842 H         1 UNK         0.0600 
    157 H157        3.3601  -16.6994  -40.3350 H         1 UNK         0.0600 
    158 H158        3.9071  -16.8272  -42.0041 H         1 UNK         0.0600 
    159 H159        1.7965  -18.1594  -41.7892 H         1 UNK         0.3000 
    160 H160       -0.0785  -21.2035  -41.9494 H         1 UNK         0.0600 
    161 H161       -0.6742  -18.5123  -40.6112 H         1 UNK         0.0600 
    162 H162       -0.8059  -20.0883  -39.8418 H         1 UNK         0.0600 
    163 H163       -1.8681  -19.6770  -41.1787 H         1 UNK         0.0600 
    164 H164       -0.4887  -18.6161  -43.0967 H         1 UNK         0.3000 
    165 H165        1.4988  -19.1806  -46.0066 H         1 UNK         0.0600 
    166 H166       -0.5775  -18.6704  -47.2213 H         1 UNK         0.0600 
    167 H167       -0.6357  -20.3033  -46.5583 H         1 UNK         0.0600 
    168 H168       -1.5343  -19.0033  -45.7775 H         1 UNK         0.0600 
    169 H169       -0.1963  -16.9974  -45.3090 H         1 UNK         0.3000 
    170 H170        2.2361  -15.1823  -43.4086 H         1 UNK         0.0600 
    171 H171        2.6422  -14.6303  -45.7973 H         1 UNK         0.0600 
    172 H172        0.9228  -14.7264  -46.1449 H         1 UNK         0.0600 
    173 H173        1.5403  -13.4688  -45.0755 H         1 UNK         0.0600 
    174 H174       -0.5404  -14.7904  -44.1233 H         1 UNK         0.3000 
    175 H175       -1.9057  -16.2232  -41.1525 H         1 UNK         0.0600 
    176 H176       -1.1934  -13.9203  -40.4950 H         1 UNK         0.0600 
    177 H177       -1.6705  -13.3067  -42.0737 H         1 UNK         0.0600 
    178 H178       -2.8840  -13.9536  -40.9692 H         1 UNK         0.0600 
    179 H179       -3.0653  -14.8642  -43.3999 H         1 UNK         0.3000 
    180 H180       -3.4740  -17.7041  -45.4931 H         1 UNK         0.0600 
    181 H181       -5.3457  -17.9738  -43.8561 H         1 UNK         0.0600 
    182 H182       -5.6059  -16.2334  -43.8596 H         1 UNK         0.0600 
    183 H183       -5.8713  -17.1768  -45.3284 H         1 UNK         0.0600 
    184 H184       -4.4757  -15.0789  -45.7543 H         1 UNK         0.3000 
    185 H185       -3.6327  -13.7370  -47.3339 H         1 UNK         0.0600 
    186 H186       -2.6227  -12.7100  -45.2788 H         1 UNK         0.0600 
    187 H187       -1.0105  -12.9406  -45.9449 H         1 UNK         0.0600 
    188 H188       -2.1438  -11.8393  -46.7258 H         1 UNK         0.0600 
    189 H189       -0.9749  -13.4521  -48.3433 H         1 UNK         0.3000 
    190 H190       -0.2585  -25.4260  -48.1907 H         1 UNK         0.3000 
    191 H191       -2.6270  -25.5615  -46.7708 H         1 UNK         0.0600 
    192 H192       -2.1671  -25.6889  -49.7985 H         1 UNK         0.0600 
    193 H193       -3.5970  -26.2849  -48.9642 H         1 UNK         0.0600 
    194 H194       -2.0393  -27.0375  -48.6678 H         1 UNK         0.0600 
    195 H195       -1.5072  -22.8047  -48.5696 H         1 UNK         0.3000 
    196 H196       -3.9784  -21.5064  -49.1110 H         1 UNK         0.0600 
    197 H197       -2.4647  -19.4119  -49.1296 H         1 UNK         0.0600 
    198 H198       -2.0584  -20.6954  -50.2481 H         1 UNK         0.0600 
    199 H199       -1.1224  -20.4984  -48.7821 H         1 UNK         0.0600 
    200 H200       -2.4250  -22.0702  -46.0598 H         1 UNK         0.3000 
    201 H201       -3.5669  -19.9735  -44.5100 H         1 UNK         0.0600 
    202 H202       -3.0586  -21.4778  -42.6166 H         1 UNK         0.0600 
    203 H203       -2.8775  -22.8524  -43.7040 H         1 UNK         0.0600 
    204 H204       -1.7277  -21.5260  -43.7635 H         1 UNK         0.0600 
    205 H205       -4.9147  -22.9645  -45.8130 H         1 UNK         0.3000 
    206 H206       -7.5035  -22.5655  -44.3669 H         1 UNK         0.0600 
    207 H207       -6.4750  -24.8065  -44.0878 H         1 UNK         0.0600 
    208 H208       -7.9430  -24.9177  -45.0467 H         1 UNK         0.0600 
    209 H209       -6.3720  -25.0075  -45.8357 H         1 UNK         0.0600 
    210 H210       -6.0136  -23.1061  -47.6006 H         1 UNK         0.3000 
    211 H211       -8.5074  -22.9810  -49.0056 H         1 UNK         0.0600 
    212 H212       -7.0508  -23.1713  -51.0080 H         1 UNK         0.0600 
    213 H213       -6.5597  -24.3164  -49.7704 H         1 UNK         0.0600 
    214 H214       -5.6242  -22.8486  -50.0344 H         1 UNK         0.0600 
    215 H215       -6.3958  -20.4413  -47.9363 H         1 UNK         0.3000 
    216 H216       -6.2392  -18.2655  -48.2227 H         1 UNK         0.0600 
    217 H217       -8.1838  -16.9140  -48.8223 H         1 UNK         0.0600 
    218 H218       -8.7092  -18.2453  -47.8052 H         1 UNK         0.0600 
    219 H219       -8.9974  -18.2931  -49.5446 H         1 UNK         0.0600 
    220 H220       -5.1190  -19.9882  -50.0841 H         1 UNK         0.3000 
    221 H221       -3.7592  -20.0380  -51.8015 H         1 UNK         0.0600 
    222 H222       -4.4784  -17.1252  -52.4096 H         1 UNK         0.0600 
    223 H223       -3.1360  -17.6794  -51.4082 H         1 UNK         0.0600 
    224 H224       -3.1642  -18.0340  -53.1285 H         1 UNK         0.0600 
    225 H225       -3.6522  -20.5171  -54.0129 H         1 UNK         0.3000 
    226 H226       -6.2720  -21.1766  -55.2120 H         1 UNK         0.0600 
    227 H227       -4.8671  -22.5559  -56.7351 H         1 UNK         0.0600 
    228 H228       -3.4028  -21.9290  -55.9861 H         1 UNK         0.0600 
    229 H229       -4.5175  -22.9267  -55.0535 H         1 UNK         0.0600 
    230 H230       -3.5266  -19.0217  -55.6980 H         1 UNK         0.3000 
    231 H231       -4.8944  -17.3127  -57.5189 H         1 UNK         0.0600 
    232 H232       -4.3720  -19.0046  -59.2577 H         1 UNK         0.0600 
    233 H233       -2.6841  -19.0574  -58.7552 H         1 UNK         0.0600 
    234 H234       -3.3435  -17.6063  -59.5009 H         1 UNK         0.0600 
    235 H235       -1.7537  -18.4750  -56.2896 H         1 UNK         0.3000 
    236 H236       -1.0704  -15.7579  -55.3578 H         1 UNK         0.0600 
    237 H237        0.1618  -15.8865  -57.4831 H         1 UNK         0.0600 
    238 H238        1.2991  -16.0906  -56.1600 H         1 UNK         0.0600 
    239 H239        0.7811  -17.4873  -57.1004 H         1 UNK         0.0600 
    240 H240        0.5356  -18.9533  -55.5888 H         1 UNK         0.3000 
    241 H241        0.6757  -19.2431  -52.6727 H         1 UNK         0.0600 
    242 H242       -1.6432  -22.0599  -52.3261 H         1 UNK         0.3800 
    243 H243       -0.0134  -21.6594  -51.8754 H         1 UNK         0.3800 
    244 H244        1.7902  -21.4240  -53.2073 H         1 UNK         0.0800 
    245 H245        1.4546  -21.2063  -54.8954 H         1 UNK         0.0800 
    246 H246        2.5637  -17.6871  -53.5113 H         1 UNK         0.0800 
    247 H247        4.2746  -17.8805  -53.2722 H         1 UNK         0.0800 
@<TRIPOS>BOND
     1    1    2 1    
     2    1  127 1    
     3    1  128 1    
     4    1  129 1    
     5    2    3 2    
     6    2    4 am   BACKBONE|DICT|INTERRES
     7    4    5 1    
     8    4  130 1    
     9    5    6 1    
    10    5   65 1    
    11    5  131 1    
    12    6    7 1    
    13    6  132 1    
    14    6  133 1    
    15    7    8 1    
    16    8    9 1    
    17    8  134 1    
    18    8  135 1    
    19    9   10 ar   
    20    9   14 ar   
    21   10   11 ar   
    22   10  136 1    
    23   11   12 ar   
    24   11  126 1    
    25   12   13 ar   
    26   12  137 1    
    27   13   14 ar   
    28   13   15 1    
    29   14  138 1    
    30   15   16 1    
    31   15  139 1    
    32   15  140 1    
    33   16   17 1    
    34   17   18 1    
    35   17  141 1    
    36   17  142 1    
    37   18   19 1    
    38   18   67 1    
    39   18  143 1    
    40   19   20 am   BACKBONE|DICT|INTERRES
    41   19  144 1    
    42   20   21 2    
    43   20   22 1    
    44   22   23 1    
    45   22   24 1    
    46   22  145 1    
    47   23  146 1    
    48   23  147 1    
    49   23  148 1    
    50   24   25 am   BACKBONE|DICT|INTERRES
    51   24  149 1    
    52   25   26 2    
    53   25   27 1    
    54   27   28 1    
    55   27   29 1    
    56   27  150 1    
    57   28  151 1    
    58   28  152 1    
    59   28  153 1    
    60   29   30 am   BACKBONE|DICT|INTERRES
    61   29  154 1    
    62   30   31 2    
    63   30   32 1    
    64   32   33 1    
    65   32   34 1    
    66   32  155 1    
    67   33  156 1    
    68   33  157 1    
    69   33  158 1    
    70   34   35 am   BACKBONE|DICT|INTERRES
    71   34  159 1    
    72   35   36 2    
    73   35   37 1    
    74   37   38 1    
    75   37   39 1    
    76   37  160 1    
    77   38  161 1    
    78   38  162 1    
    79   38  163 1    
    80   39   40 am   BACKBONE|DICT|INTERRES
    81   39  164 1    
    82   40   41 2    
    83   40   42 1    
    84   42   43 1    
    85   42   44 1    
    86   42  165 1    
    87   43  166 1    
    88   43  167 1    
    89   43  168 1    
    90   44   45 am   BACKBONE|DICT|INTERRES
    91   44  169 1    
    92   45   46 2    
    93   45   47 1    
    94   47   48 1    
    95   47   49 1    
    96   47  170 1    
    97   48  171 1    
    98   48  172 1    
    99   48  173 1    
   100   49   50 am   BACKBONE|DICT|INTERRES
   101   49  174 1    
   102   50   51 2    
   103   50   52 1    
   104   52   53 1    
   105   52   54 1    
   106   52  175 1    
   107   53  176 1    
   108   53  177 1    
   109   53  178 1    
   110   54   55 am   BACKBONE|DICT|INTERRES
   111   54  179 1    
   112   55   56 2    
   113   55   57 1    
   114   57   58 1    
   115   57   59 1    
   116   57  180 1    
   117   58  181 1    
   118   58  182 1    
   119   58  183 1    
   120   59   60 am   BACKBONE|DICT|INTERRES
   121   59  184 1    
   122   60   61 2    
   123   60   62 1    
   124   62   63 1    
   125   62   64 1    
   126   62  185 1    
   127   63  186 1    
   128   63  187 1    
   129   63  188 1    
   130   64   65 am   BACKBONE|DICT|INTERRES
   131   64  189 1    
   132   65   66 2    
   133   67   68 2    
   134   67   69 am   BACKBONE|DICT|INTERRES
   135   69   70 1    
   136   69  190 1    
   137   70   71 1    
   138   70   72 1    
   139   70  191 1    
   140   71  192 1    
   141   71  193 1    
   142   71  194 1    
   143   72   73 2    
   144   72   74 am   BACKBONE|DICT|INTERRES
   145   74   75 1    
   146   74  195 1    
   147   75   76 1    
   148   75   77 1    
   149   75  196 1    
   150   76  197 1    
   151   76  198 1    
   152   76  199 1    
   153   77   78 2    
   154   77   79 am   BACKBONE|DICT|INTERRES
   155   79   80 1    
   156   79  200 1    
   157   80   81 1    
   158   80   82 1    
   159   80  201 1    
   160   81  202 1    
   161   81  203 1    
   162   81  204 1    
   163   82   83 2    
   164   82   84 am   BACKBONE|DICT|INTERRES
   165   84   85 1    
   166   84  205 1    
   167   85   86 1    
   168   85   87 1    
   169   85  206 1    
   170   86  207 1    
   171   86  208 1    
   172   86  209 1    
   173   87   88 2    
   174   87   89 am   BACKBONE|DICT|INTERRES
   175   89   90 1    
   176   89  210 1    
   177   90   91 1    
   178   90   92 1    
   179   90  211 1    
   180   91  212 1    
   181   91  213 1    
   182   91  214 1    
   183   92   93 2    
   184   92   94 am   BACKBONE|DICT|INTERRES
   185   94   95 1    
   186   94  215 1    
   187   95   96 1    
   188   95   97 1    
   189   95  216 1    
   190   96  217 1    
   191   96  218 1    
   192   96  219 1    
   193   97   98 2    
   194   97   99 am   BACKBONE|DICT|INTERRES
   195   99  100 1    
   196   99  220 1    
   197  100  101 1    
   198  100  102 1    
   199  100  221 1    
   200  101  222 1    
   201  101  223 1    
   202  101  224 1    
   203  102  103 2    
   204  102  104 am   BACKBONE|DICT|INTERRES
   205  104  105 1    
   206  104  225 1    
   207  105  106 1    
   208  105  107 1    
   209  105  226 1    
   210  106  227 1    
   211  106  228 1    
   212  106  229 1    
   213  107  108 2    
   214  107  109 am   BACKBONE|DICT|INTERRES
   215  109  110 1    
   216  109  230 1    
   217  110  111 1    
   218  110  112 1    
   219  110  231 1    
   220  111  232 1    
   221  111  233 1    
   222  111  234 1    
   223  112  113 2    
   224  112  114 am   BACKBONE|DICT|INTERRES
   225  114  115 1    
   226  114  235 1    
   227  115  116 1    
   228  115  117 1    
   229  115  236 1    
   230  116  237 1    
   231  116  238 1    
   232  116  239 1    
   233  117  118 2    
   234  117  119 am   BACKBONE|DICT|INTERRES
   235  119  120 1    
   236  119  240 1    
   237  120  121 1    
   238  120  124 1    
   239  120  241 1    
   240  121  122 am   BACKBONE|DICT|INTERRES
   241  121  123 2    
   242  122  242 1    
   243  122  243 1    
   244  124  125 1    
   245  124  244 1    
   246  124  245 1    
   247  125  126 1    
   248  126  246 1    
   249  126  247 1    
@<TRIPOS>SUBSTRUCTURE
     1 UNK         1 GROUP             0       ****    0 ROOT    
