@<TRIPOS>MOLECULE
3R540
247   249    1
SMALL
USER_CHARGES


@<TRIPOS>ATOM
      1 CA         -4.1698  -17.0654  -42.4362 C.3       0 UNK        -0.1800 
      2 C          -3.6955  -15.6570  -42.7665 C.2       0 UNK         0.5000 
      3 O          -3.6912  -14.7874  -41.8948 O.2       0 UNK        -0.5000 
      4 N          -3.2819  -15.4296  -44.0171 N.am      1 UNK        -0.5000 
      5 CA         -2.8229  -14.1389  -44.5351 C.3       1 UNK         0.1400 
      6 C6         -3.1939  -13.9548  -46.0260 C.3       23 UNK        -0.0398 
      7 S7         -4.9888  -13.8415  -46.3328 S.3       23 UNK        -0.2404 
      8 C8         -5.4197  -15.5478  -46.8316 C.3       23 UNK        -0.0205 
      9 C9         -4.6635  -16.1147  -48.0362 C.ar      23 UNK        -0.0193 
     10 C10        -4.0902  -15.3034  -49.0232 C.ar      23 UNK        -0.1150 
     11 C11        -3.3707  -15.8591  -50.0852 C.ar      23 UNK        -0.0193 
     12 C12        -3.2530  -17.2538  -50.1647 C.ar      23 UNK        -0.1150 
     13 C13        -3.8579  -18.0879  -49.2203 C.ar      23 UNK        -0.0193 
     14 C14        -4.5528  -17.5021  -48.1543 C.ar      23 UNK        -0.1150 
     15 C15        -3.7257  -19.6038  -49.4056 C.3       23 UNK        -0.0205 
     16 S16        -4.7408  -20.6426  -48.2963 S.3       23 UNK        -0.2404 
     17 C17        -3.7604  -20.5788  -46.7600 C.3       23 UNK        -0.0398 
     18 CA         -3.0156  -21.8941  -46.4263 C.3       11 UNK         0.1400 
     19 N          -1.9677  -21.6413  -45.4313 N.am      11 UNK        -0.5000 
     20 C          -1.2154  -22.5309  -44.7687 C.2       10 UNK         0.5000 
     21 O          -1.3527  -23.7499  -44.8694 O.2       10 UNK        -0.5000 
     22 CA         -0.1223  -21.9793  -43.8295 C.3       10 UNK         0.1400 
     23 CB          1.2543  -22.5345  -44.2281 C.3       10 UNK        -0.1800 
     24 N          -0.0393  -20.5167  -43.7889 N.am      10 UNK        -0.5000 
     25 C          -0.9057  -19.6891  -43.1873 C.2       9 UNK         0.5000 
     26 O          -1.9126  -20.0651  -42.5888 O.2       9 UNK        -0.5000 
     27 CA         -0.6112  -18.1865  -43.3304 C.3       9 UNK         0.1400 
     28 CB          0.4859  -17.7597  -42.3440 C.3       9 UNK        -0.1800 
     29 N          -0.2178  -17.8659  -44.7043 N.am      9 UNK        -0.5000 
     30 C          -1.0746  -17.7534  -45.7307 C.2       8 UNK         0.5000 
     31 O          -2.2957  -17.7064  -45.5800 O.2       8 UNK        -0.5000 
     32 CA         -0.4903  -17.7402  -47.1599 C.3       8 UNK         0.1400 
     33 CB         -0.5112  -16.3392  -47.7804 C.3       8 UNK        -0.1800 
     34 N           0.8803  -18.2396  -47.2041 N.am      8 UNK        -0.5000 
     35 C           1.2257  -19.5294  -47.2981 C.2       7 UNK         0.5000 
     36 O           0.4172  -20.4517  -47.3929 O.2       7 UNK        -0.5000 
     37 CA          2.7364  -19.8333  -47.2526 C.3       7 UNK         0.1400 
     38 CB          3.3205  -19.8219  -48.6712 C.3       7 UNK        -0.1800 
     39 N           3.4891  -18.8827  -46.4301 N.am      7 UNK        -0.5000 
     40 C           3.3406  -18.7271  -45.1072 C.2       6 UNK         0.5000 
     41 O           2.5871  -19.4194  -44.4253 O.2       6 UNK        -0.5000 
     42 CA          4.0981  -17.5499  -44.4606 C.3       6 UNK         0.1400 
     43 CB          5.5101  -17.9808  -44.0387 C.3       6 UNK        -0.1800 
     44 N           4.1851  -16.3853  -45.3499 N.am      6 UNK        -0.5000 
     45 C           3.1262  -15.6728  -45.7577 C.2       5 UNK         0.5000 
     46 O           1.9779  -15.8793  -45.3641 O.2       5 UNK        -0.5000 
     47 CA          3.3788  -14.6345  -46.8570 C.3       5 UNK         0.1400 
     48 CB          3.4976  -15.3513  -48.2197 C.3       5 UNK        -0.1800 
     49 N           2.2829  -13.6668  -46.8843 N.am      5 UNK        -0.5000 
     50 C           2.2751  -12.5331  -47.5985 C.2       4 UNK         0.5000 
     51 O           3.2168  -12.1559  -48.2973 O.2       4 UNK        -0.5000 
     52 CA          1.0165  -11.6572  -47.5018 C.3       4 UNK         0.1400 
     53 CB         -0.1835  -12.3158  -48.2052 C.3       4 UNK        -0.1800 
     54 N           0.6911  -11.3715  -46.1063 N.am      4 UNK        -0.5000 
     55 C           1.2241  -10.3610  -45.4018 C.2       3 UNK         0.5000 
     56 O           2.0022   -9.5343  -45.8798 O.2       3 UNK        -0.5000 
     57 CA          0.8249  -10.2335  -43.9166 C.3       3 UNK         0.1400 
     58 CB         -0.2982   -9.1981  -43.7505 C.3       3 UNK        -0.1800 
     59 N           0.3915  -11.4974  -43.3236 N.am      3 UNK        -0.5000 
     60 C           1.1970  -12.5352  -43.0606 C.2       2 UNK         0.5000 
     61 O           2.4212  -12.4992  -43.1878 O.2       2 UNK        -0.5000 
     62 CA          0.5179  -13.8459  -42.6154 C.3       2 UNK         0.1400 
     63 CB          0.6061  -14.0167  -41.0917 C.3       2 UNK        -0.1800 
     64 N          -0.8844  -13.9795  -43.0326 N.am      2 UNK        -0.5000 
     65 C          -1.3044  -13.9972  -44.3045 C.2       1 UNK         0.5000 
     66 O          -0.5389  -13.8857  -45.2627 O.2       1 UNK        -0.5000 
     67 C          -4.0049  -23.0115  -46.0291 C.2       11 UNK         0.5000 
     68 O          -4.2879  -23.8879  -46.8468 O.2       11 UNK        -0.5000 
     69 N          -4.4759  -22.9822  -44.7743 N.am      12 UNK        -0.5000 
     70 CA         -5.4265  -23.9505  -44.2240 C.3       12 UNK         0.1400 
     71 CB         -5.9580  -23.4226  -42.8826 C.3       12 UNK        -0.1800 
     72 C          -4.8419  -25.3664  -44.0525 C.2       12 UNK         0.5000 
     73 O          -5.5778  -26.3432  -44.1963 O.2       12 UNK        -0.5000 
     74 N          -3.5384  -25.4559  -43.7573 N.am      13 UNK        -0.5000 
     75 CA         -2.8105  -26.7169  -43.6075 C.3       13 UNK         0.1400 
     76 CB         -1.6078  -26.5014  -42.6752 C.3       13 UNK        -0.1800 
     77 C          -2.3520  -27.2661  -44.9687 C.2       13 UNK         0.5000 
     78 O          -2.4029  -28.4763  -45.1900 O.2       13 UNK        -0.5000 
     79 N          -1.9275  -26.3606  -45.8594 N.am      14 UNK        -0.5000 
     80 CA         -1.4577  -26.6586  -47.2117 C.3       14 UNK         0.1400 
     81 CB         -0.6502  -25.4534  -47.7194 C.3       14 UNK        -0.1800 
     82 C          -2.5870  -26.9865  -48.2069 C.2       14 UNK         0.5000 
     83 O          -2.2907  -27.4435  -49.3105 O.2       14 UNK        -0.5000 
     84 N          -3.8432  -26.6971  -47.8338 N.am      15 UNK        -0.5000 
     85 CA         -5.0474  -26.7441  -48.6736 C.3       15 UNK         0.1400 
     86 CB         -5.3939  -28.1947  -49.0681 C.3       15 UNK        -0.1800 
     87 C          -4.9309  -25.7902  -49.8827 C.2       15 UNK         0.5000 
     88 O          -5.2778  -26.1525  -51.0075 O.2       15 UNK        -0.5000 
     89 N          -4.3858  -24.5965  -49.6091 N.am      16 UNK        -0.5000 
     90 CA         -4.0692  -23.4890  -50.5158 C.3       16 UNK         0.1400 
     91 CB         -5.3434  -22.9408  -51.1875 C.3       16 UNK        -0.1800 
     92 C          -2.9550  -23.7567  -51.5466 C.2       16 UNK         0.5000 
     93 O          -2.5846  -22.8255  -52.2598 O.2       16 UNK        -0.5000 
     94 N          -2.4016  -24.9770  -51.6010 N.am      17 UNK        -0.5000 
     95 CA         -1.4065  -25.3963  -52.5940 C.3       17 UNK         0.1400 
     96 CB         -1.1759  -26.9093  -52.4687 C.3       17 UNK        -0.1800 
     97 C          -0.0660  -24.6409  -52.5059 C.2       17 UNK         0.5000 
     98 O           0.6154  -24.4959  -53.5209 O.2       17 UNK        -0.5000 
     99 N           0.2809  -24.1631  -51.3031 N.am      18 UNK        -0.5000 
    100 CA         1.5088  -23.4163  -51.0244 C.3       18 UNK         0.1400 
    101 CB         1.7382  -23.3819  -49.5052 C.3       18 UNK        -0.1800 
    102 C          1.5139  -21.9874  -51.6033 C.2       18 UNK         0.5000 
    103 O          2.5930  -21.4333  -51.8133 O.2       18 UNK        -0.5000 
    104 N          0.3283  -21.4156  -51.8479 N.am      19 UNK        -0.5000 
    105 CA         0.1425  -20.0557  -52.3513 C.3       19 UNK         0.1400 
    106 CB        -0.0084  -19.0745  -51.1720 C.3       19 UNK        -0.1800 
    107 C         -1.0351  -20.0288  -53.3387 C.2       19 UNK         0.5000 
    108 O         -1.9025  -19.1577  -53.2599 O.2       19 UNK        -0.5000 
    109 N         -1.0398  -20.9997  -54.2644 N.am      20 UNK        -0.5000 
    110 CA        -2.0983  -21.2232  -55.2555 C.3       20 UNK         0.1400 
    111 CB        -1.8117  -22.5346  -56.0027 C.3       20 UNK        -0.1800 
    112 C         -2.2858  -20.0594  -56.2496 C.2       20 UNK         0.5000 
    113 O         -3.3780  -19.8967  -56.7969 O.2       20 UNK        -0.5000 
    114 N         -1.2362  -19.2425  -56.4273 N.am      21 UNK        -0.5000 
    115 CA        -1.2249  -18.0113  -57.2223 C.3       21 UNK         0.1400 
    116 CB         0.2013  -17.4384  -57.2250 C.3       21 UNK        -0.1800 
    117 C         -2.2344  -16.9426  -56.7487 C.2       21 UNK         0.5000 
    118 O         -2.6156  -16.0836  -57.5453 O.2       21 UNK        -0.5000 
    119 N         -2.6677  -17.0238  -55.4830 N.am      22 UNK        -0.5000 
    120 CA        -3.7572  -16.2132  -54.9164 C.3       22 UNK         0.1400 
    121 C         -5.1755  -16.5917  -55.4433 C.2       22 UNK         0.5000 
    122 N         -5.3655  -17.7146  -56.1295 N.am      22 UNK        -0.7600 
    123 O         -6.1262  -15.8434  -55.2303 O.2       22 UNK        -0.5000 
    124 C124       -3.7384  -16.2343  -53.3679 C.3       23 UNK        -0.0398 
    125 S125       -2.1561  -15.6546  -52.6616 S.3       23 UNK        -0.2404 
    126 C126       -2.7167  -14.9070  -51.0914 C.3       23 UNK        -0.0205 
    127 H127       -3.5769  -17.4826  -41.6222 H         1 UNK         0.0600 
    128 H128       -4.0854  -17.7329  -43.2949 H         1 UNK         0.0600 
    129 H129       -5.2137  -17.0453  -42.1233 H         1 UNK         0.0600 
    130 H130       -3.2071  -16.2093  -44.6649 H         1 UNK         0.3000 
    131 H131       -3.3028  -13.3305  -43.9792 H         1 UNK         0.0600 
    132 H132       -2.7561  -13.0343  -46.4166 H         1 UNK         0.0800 
    133 H133       -2.7694  -14.7620  -46.6159 H         1 UNK         0.0800 
    134 H134       -6.4868  -15.5796  -47.0540 H         1 UNK         0.0800 
    135 H135       -5.2685  -16.1970  -45.9679 H         1 UNK         0.0800 
    136 H136       -4.1805  -14.2287  -48.9576 H         1 UNK         0.1150 
    137 H137       -2.6945  -17.7077  -50.9699 H         1 UNK         0.1150 
    138 H138       -5.0152  -18.1174  -47.3975 H         1 UNK         0.1150 
    139 H139       -2.6802  -19.8912  -49.2905 H         1 UNK         0.0800 
    140 H140       -3.9995  -19.8511  -50.4334 H         1 UNK         0.0800 
    141 H141       -4.4114  -20.2737  -45.9379 H         1 UNK         0.0800 
    142 H142       -3.0349  -19.7746  -46.8701 H         1 UNK         0.0800 
    143 H143       -2.4946  -22.2289  -47.3256 H         1 UNK         0.0600 
    144 H144       -1.7484  -20.6705  -45.2672 H         1 UNK         0.3000 
    145 H145       -0.3559  -22.3351  -42.8244 H         1 UNK         0.0600 
    146 H146        2.0329  -22.1863  -43.5489 H         1 UNK         0.0600 
    147 H147        1.2644  -23.6249  -44.2000 H         1 UNK         0.0600 
    148 H148        1.5299  -22.2296  -45.2381 H         1 UNK         0.0600 
    149 H149        0.7939  -20.1120  -44.2067 H         1 UNK         0.3000 
    150 H150       -1.5137  -17.6285  -43.0866 H         1 UNK         0.0600 
    151 H151        1.3679  -18.3961  -42.4017 H         1 UNK         0.0600 
    152 H152        0.1202  -17.8085  -41.3178 H         1 UNK         0.0600 
    153 H153        0.8075  -16.7391  -42.5267 H         1 UNK         0.0600 
    154 H154        0.7731  -17.8156  -44.8965 H         1 UNK         0.3000 
    155 H155       -1.1208  -18.3833  -47.7772 H         1 UNK         0.0600 
    156 H156        0.0231  -15.6155  -47.1676 H         1 UNK         0.0600 
    157 H157       -1.5326  -15.9905  -47.9004 H         1 UNK         0.0600 
    158 H158       -0.0612  -16.3383  -48.7732 H         1 UNK         0.0600 
    159 H159        1.6071  -17.5500  -47.0861 H         1 UNK         0.3000 
    160 H160        2.8640  -20.8321  -46.8307 H         1 UNK         0.0600 
    161 H161        3.2823  -18.8273  -49.1173 H         1 UNK         0.0600 
    162 H162        2.7623  -20.4901  -49.3243 H         1 UNK         0.0600 
    163 H163        4.3586  -20.1547  -48.6755 H         1 UNK         0.0600 
    164 H164        4.1392  -18.2815  -46.9134 H         1 UNK         0.3000 
    165 H165        3.5478  -17.2536  -43.5649 H         1 UNK         0.0600 
    166 H166        6.0278  -17.1762  -43.5164 H         1 UNK         0.0600 
    167 H167        6.1180  -18.2710  -44.8965 H         1 UNK         0.0600 
    168 H168        5.4706  -18.8343  -43.3604 H         1 UNK         0.0600 
    169 H169        5.1006  -16.1621  -45.7136 H         1 UNK         0.3000 
    170 H170        4.3083  -14.1088  -46.6297 H         1 UNK         0.0600 
    171 H171        4.2738  -16.1170  -48.2013 H         1 UNK         0.0600 
    172 H172        2.5623  -15.8375  -48.4999 H         1 UNK         0.0600 
    173 H173        3.7618  -14.6590  -49.0185 H         1 UNK         0.0600 
    174 H174        1.4849  -13.9112  -46.3048 H         1 UNK         0.3000 
    175 H175        1.2195  -10.7185  -48.0222 H         1 UNK         0.0600 
    176 H176       -0.4372  -13.2831  -47.7744 H         1 UNK         0.0600 
    177 H177       -1.0691  -11.6830  -48.1482 H         1 UNK         0.0600 
    178 H178        0.0306  -12.4804  -49.2616 H         1 UNK         0.0600 
    179 H179        0.1178  -12.0609  -45.6330 H         1 UNK         0.3000 
    180 H180        1.7007   -9.8797  -43.3683 H         1 UNK         0.0600 
    181 H181       -1.2081   -9.5042  -44.2686 H         1 UNK         0.0600 
    182 H182       -0.0000   -8.2301  -44.1554 H         1 UNK         0.0600 
    183 H183       -0.5438   -9.0468  -42.6993 H         1 UNK         0.0600 
    184 H184       -0.5995  -11.6123  -43.1725 H         1 UNK         0.3000 
    185 H185        1.0815  -14.6484  -43.0912 H         1 UNK         0.0600 
    186 H186        0.2102  -14.9827  -40.7778 H         1 UNK         0.0600 
    187 H187        1.6413  -13.9646  -40.7515 H         1 UNK         0.0600 
    188 H188        0.0479  -13.2393  -40.5685 H         1 UNK         0.0600 
    189 H189       -1.5756  -14.0859  -42.3003 H         1 UNK         0.3000 
    190 H190       -4.1671  -22.2456  -44.1563 H         1 UNK         0.3000 
    191 H191       -6.2677  -24.0257  -44.9165 H         1 UNK         0.0600 
    192 H192       -6.6894  -24.1096  -42.4542 H         1 UNK         0.0600 
    193 H193       -6.4527  -22.4588  -43.0055 H         1 UNK         0.0600 
    194 H194       -5.1569  -23.2989  -42.1527 H         1 UNK         0.0600 
    195 H195       -2.9836  -24.6098  -43.7365 H         1 UNK         0.3000 
    196 H196       -3.4653  -27.4594  -43.1460 H         1 UNK         0.0600 
    197 H197       -0.9052  -25.7716  -43.0795 H         1 UNK         0.0600 
    198 H198       -1.9285  -26.1496  -41.6945 H         1 UNK         0.0600 
    199 H199       -1.0611  -27.4331  -42.5237 H         1 UNK         0.0600 
    200 H200       -1.8650  -25.3887  -45.5647 H         1 UNK         0.3000 
    201 H201       -0.7948  -27.5250  -47.1675 H         1 UNK         0.0600 
    202 H202       -1.2683  -24.5577  -47.7961 H         1 UNK         0.0600 
    203 H203       -0.2330  -25.6551  -48.7062 H         1 UNK         0.0600 
    204 H204        0.1832  -25.2270  -47.0539 H         1 UNK         0.0600 
    205 H205       -3.9629  -26.2644  -46.9279 H         1 UNK         0.3000 
    206 H206       -5.8647  -26.3629  -48.0598 H         1 UNK         0.0600 
    207 H207       -5.4654  -28.8347  -48.1887 H         1 UNK         0.0600 
    208 H208       -6.3554  -28.2388  -49.5807 H         1 UNK         0.0600 
    209 H209       -4.6485  -28.6255  -49.7369 H         1 UNK         0.0600 
    210 H210       -4.1890  -24.4092  -48.6277 H         1 UNK         0.3000 
    211 H211       -3.6666  -22.7060  -49.8762 H         1 UNK         0.0600 
    212 H212       -5.1300  -22.0273  -51.7442 H         1 UNK         0.0600 
    213 H213       -6.1040  -22.6953  -50.4464 H         1 UNK         0.0600 
    214 H214       -5.7734  -23.6563  -51.8886 H         1 UNK         0.0600 
    215 H215       -2.7503  -25.6956  -50.9802 H         1 UNK         0.3000 
    216 H216       -1.8275  -25.1995  -53.5819 H         1 UNK         0.0600 
    217 H217       -0.7294  -27.1691  -51.5082 H         1 UNK         0.0600 
    218 H218       -0.5039  -27.2679  -53.2495 H         1 UNK         0.0600 
    219 H219       -2.1108  -27.4621  -52.5648 H         1 UNK         0.0600 
    220 H220       -0.3447  -24.3236  -50.5289 H         1 UNK         0.3000 
    221 H221        2.3432  -23.9537  -51.4797 H         1 UNK         0.0600 
    222 H222        1.8205  -24.3883  -49.0962 H         1 UNK         0.0600 
    223 H223        0.9293  -22.8681  -48.9839 H         1 UNK         0.0600 
    224 H224        2.6673  -22.8661  -49.2615 H         1 UNK         0.0600 
    225 H225       -0.5188  -21.9564  -51.7190 H         1 UNK         0.3000 
    226 H226        1.0182  -19.7523  -52.9294 H         1 UNK         0.0600 
    227 H227       -0.8511  -19.3408  -50.5363 H         1 UNK         0.0600 
    228 H228        0.8864  -19.0655  -50.5492 H         1 UNK         0.0600 
    229 H229       -0.1668  -18.0540  -51.5229 H         1 UNK         0.0600 
    230 H230       -0.2968  -21.6835  -54.2422 H         1 UNK         0.3000 
    231 H231       -3.0387  -21.3384  -54.7115 H         1 UNK         0.0600 
    232 H232       -0.8632  -22.4927  -56.5404 H         1 UNK         0.0600 
    233 H233       -2.5949  -22.7501  -56.7308 H         1 UNK         0.0600 
    234 H234       -1.7702  -23.3781  -55.3132 H         1 UNK         0.0600 
    235 H235       -0.3863  -19.4605  -55.9287 H         1 UNK         0.3000 
    236 H236       -1.4914  -18.2781  -58.2469 H         1 UNK         0.0600 
    237 H237        0.9142  -18.1529  -57.6380 H         1 UNK         0.0600 
    238 H238        0.2593  -16.5351  -57.8342 H         1 UNK         0.0600 
    239 H239        0.5302  -17.1767  -56.2184 H         1 UNK         0.0600 
    240 H240       -2.3012  -17.7503  -54.8788 H         1 UNK         0.3000 
    241 H241       -3.5889  -15.1805  -55.2288 H         1 UNK         0.0600 
    242 H242       -6.2903  -17.9348  -56.4643 H         1 UNK         0.3800 
    243 H243       -4.6011  -18.3536  -56.3220 H         1 UNK         0.3800 
    244 H244       -3.9310  -17.2451  -53.0038 H         1 UNK         0.0800 
    245 H245       -4.5418  -15.6094  -52.9726 H         1 UNK         0.0800 
    246 H246       -3.4063  -14.0940  -51.3255 H         1 UNK         0.0800 
    247 H247       -1.8530  -14.4469  -50.6083 H         1 UNK         0.0800 
@<TRIPOS>BOND
     1    1    2 1    
     2    1  127 1    
     3    1  128 1    
     4    1  129 1    
     5    2    3 2    
     6    2    4 am   BACKBONE|DICT|INTERRES
     7    4    5 1    
     8    4  130 1    
     9    5    6 1    
    10    5   65 1    
    11    5  131 1    
    12    6    7 1    
    13    6  132 1    
    14    6  133 1    
    15    7    8 1    
    16    8    9 1    
    17    8  134 1    
    18    8  135 1    
    19    9   10 ar   
    20    9   14 ar   
    21   10   11 ar   
    22   10  136 1    
    23   11   12 ar   
    24   11  126 1    
    25   12   13 ar   
    26   12  137 1    
    27   13   14 ar   
    28   13   15 1    
    29   14  138 1    
    30   15   16 1    
    31   15  139 1    
    32   15  140 1    
    33   16   17 1    
    34   17   18 1    
    35   17  141 1    
    36   17  142 1    
    37   18   19 1    
    38   18   67 1    
    39   18  143 1    
    40   19   20 am   BACKBONE|DICT|INTERRES
    41   19  144 1    
    42   20   21 2    
    43   20   22 1    
    44   22   23 1    
    45   22   24 1    
    46   22  145 1    
    47   23  146 1    
    48   23  147 1    
    49   23  148 1    
    50   24   25 am   BACKBONE|DICT|INTERRES
    51   24  149 1    
    52   25   26 2    
    53   25   27 1    
    54   27   28 1    
    55   27   29 1    
    56   27  150 1    
    57   28  151 1    
    58   28  152 1    
    59   28  153 1    
    60   29   30 am   BACKBONE|DICT|INTERRES
    61   29  154 1    
    62   30   31 2    
    63   30   32 1    
    64   32   33 1    
    65   32   34 1    
    66   32  155 1    
    67   33  156 1    
    68   33  157 1    
    69   33  158 1    
    70   34   35 am   BACKBONE|DICT|INTERRES
    71   34  159 1    
    72   35   36 2    
    73   35   37 1    
    74   37   38 1    
    75   37   39 1    
    76   37  160 1    
    77   38  161 1    
    78   38  162 1    
    79   38  163 1    
    80   39   40 am   BACKBONE|DICT|INTERRES
    81   39  164 1    
    82   40   41 2    
    83   40   42 1    
    84   42   43 1    
    85   42   44 1    
    86   42  165 1    
    87   43  166 1    
    88   43  167 1    
    89   43  168 1    
    90   44   45 am   BACKBONE|DICT|INTERRES
    91   44  169 1    
    92   45   46 2    
    93   45   47 1    
    94   47   48 1    
    95   47   49 1    
    96   47  170 1    
    97   48  171 1    
    98   48  172 1    
    99   48  173 1    
   100   49   50 am   BACKBONE|DICT|INTERRES
   101   49  174 1    
   102   50   51 2    
   103   50   52 1    
   104   52   53 1    
   105   52   54 1    
   106   52  175 1    
   107   53  176 1    
   108   53  177 1    
   109   53  178 1    
   110   54   55 am   BACKBONE|DICT|INTERRES
   111   54  179 1    
   112   55   56 2    
   113   55   57 1    
   114   57   58 1    
   115   57   59 1    
   116   57  180 1    
   117   58  181 1    
   118   58  182 1    
   119   58  183 1    
   120   59   60 am   BACKBONE|DICT|INTERRES
   121   59  184 1    
   122   60   61 2    
   123   60   62 1    
   124   62   63 1    
   125   62   64 1    
   126   62  185 1    
   127   63  186 1    
   128   63  187 1    
   129   63  188 1    
   130   64   65 am   BACKBONE|DICT|INTERRES
   131   64  189 1    
   132   65   66 2    
   133   67   68 2    
   134   67   69 am   BACKBONE|DICT|INTERRES
   135   69   70 1    
   136   69  190 1    
   137   70   71 1    
   138   70   72 1    
   139   70  191 1    
   140   71  192 1    
   141   71  193 1    
   142   71  194 1    
   143   72   73 2    
   144   72   74 am   BACKBONE|DICT|INTERRES
   145   74   75 1    
   146   74  195 1    
   147   75   76 1    
   148   75   77 1    
   149   75  196 1    
   150   76  197 1    
   151   76  198 1    
   152   76  199 1    
   153   77   78 2    
   154   77   79 am   BACKBONE|DICT|INTERRES
   155   79   80 1    
   156   79  200 1    
   157   80   81 1    
   158   80   82 1    
   159   80  201 1    
   160   81  202 1    
   161   81  203 1    
   162   81  204 1    
   163   82   83 2    
   164   82   84 am   BACKBONE|DICT|INTERRES
   165   84   85 1    
   166   84  205 1    
   167   85   86 1    
   168   85   87 1    
   169   85  206 1    
   170   86  207 1    
   171   86  208 1    
   172   86  209 1    
   173   87   88 2    
   174   87   89 am   BACKBONE|DICT|INTERRES
   175   89   90 1    
   176   89  210 1    
   177   90   91 1    
   178   90   92 1    
   179   90  211 1    
   180   91  212 1    
   181   91  213 1    
   182   91  214 1    
   183   92   93 2    
   184   92   94 am   BACKBONE|DICT|INTERRES
   185   94   95 1    
   186   94  215 1    
   187   95   96 1    
   188   95   97 1    
   189   95  216 1    
   190   96  217 1    
   191   96  218 1    
   192   96  219 1    
   193   97   98 2    
   194   97   99 am   BACKBONE|DICT|INTERRES
   195   99  100 1    
   196   99  220 1    
   197  100  101 1    
   198  100  102 1    
   199  100  221 1    
   200  101  222 1    
   201  101  223 1    
   202  101  224 1    
   203  102  103 2    
   204  102  104 am   BACKBONE|DICT|INTERRES
   205  104  105 1    
   206  104  225 1    
   207  105  106 1    
   208  105  107 1    
   209  105  226 1    
   210  106  227 1    
   211  106  228 1    
   212  106  229 1    
   213  107  108 2    
   214  107  109 am   BACKBONE|DICT|INTERRES
   215  109  110 1    
   216  109  230 1    
   217  110  111 1    
   218  110  112 1    
   219  110  231 1    
   220  111  232 1    
   221  111  233 1    
   222  111  234 1    
   223  112  113 2    
   224  112  114 am   BACKBONE|DICT|INTERRES
   225  114  115 1    
   226  114  235 1    
   227  115  116 1    
   228  115  117 1    
   229  115  236 1    
   230  116  237 1    
   231  116  238 1    
   232  116  239 1    
   233  117  118 2    
   234  117  119 am   BACKBONE|DICT|INTERRES
   235  119  120 1    
   236  119  240 1    
   237  120  121 1    
   238  120  124 1    
   239  120  241 1    
   240  121  122 am   BACKBONE|DICT|INTERRES
   241  121  123 2    
   242  122  242 1    
   243  122  243 1    
   244  124  125 1    
   245  124  244 1    
   246  124  245 1    
   247  125  126 1    
   248  126  246 1    
   249  126  247 1    
@<TRIPOS>SUBSTRUCTURE
     1 UNK         1 GROUP             0       ****    0 ROOT    
