@<TRIPOS>MOLECULE
3R540
247   249    1
SMALL
USER_CHARGES


@<TRIPOS>ATOM
      1 CA          7.8329  -11.1402  -47.2060 C.3       0 UNK        -0.1800 
      2 C           7.6496  -12.6093  -47.5600 C.2       0 UNK         0.5000 
      3 O           8.4329  -13.4472  -47.1138 O.2       0 UNK        -0.5000 
      4 N           6.6202  -12.9193  -48.3603 N.am      1 UNK        -0.5000 
      5 CA          6.2424  -14.2753  -48.7786 C.3       1 UNK         0.1400 
      6 C6          5.1832  -14.2179  -49.9096 C.3       23 UNK        -0.0398 
      7 S7          4.7196  -15.8354  -50.6194 S.3       23 UNK        -0.2404 
      8 C8          3.1165  -16.0833  -49.7975 C.3       23 UNK        -0.0205 
      9 C9          2.4306  -17.3603  -50.2468 C.ar      23 UNK        -0.0193 
     10 C10         1.3440  -17.2952  -51.1204 C.ar      23 UNK        -0.1150 
     11 C11         0.6515  -18.4523  -51.4824 C.ar      23 UNK        -0.0193 
     12 C12         1.0814  -19.6888  -50.9871 C.ar      23 UNK        -0.1150 
     13 C13         2.1945  -19.7752  -50.1416 C.ar      23 UNK        -0.0193 
     14 C14         2.8596  -18.6016  -49.7693 C.ar      23 UNK        -0.1150 
     15 C15         2.6885  -21.1446  -49.6764 C.3       23 UNK        -0.0205 
     16 S16         3.1367  -21.2459  -47.9045 S.3       23 UNK        -0.2404 
     17 C17         1.6038  -20.7048  -47.0767 C.3       23 UNK        -0.0398 
     18 CA          0.6550  -21.8461  -46.6336 C.3       11 UNK         0.1400 
     19 N          -0.4196  -21.3389  -45.7764 N.am      11 UNK        -0.5000 
     20 C          -1.3605  -22.0765  -45.1706 C.2       10 UNK         0.5000 
     21 O          -1.3896  -23.3053  -45.1965 O.2       10 UNK        -0.5000 
     22 CA         -2.4911  -21.3118  -44.4583 C.3       10 UNK         0.1400 
     23 CB         -2.0614  -20.8816  -43.0484 C.3       10 UNK        -0.1800 
     24 N          -2.9424  -20.1455  -45.2192 N.am      10 UNK        -0.5000 
     25 C          -3.5434  -20.2100  -46.4168 C.2       9 UNK         0.5000 
     26 O          -3.8454  -21.2667  -46.9730 O.2       9 UNK        -0.5000 
     27 CA         -3.8194  -18.8704  -47.1262 C.3       9 UNK         0.1400 
     28 CB         -5.0788  -18.2044  -46.5548 C.3       9 UNK        -0.1800 
     29 N          -2.6938  -17.9392  -47.0342 N.am      9 UNK        -0.5000 
     30 C          -1.4793  -18.1646  -47.5537 C.2       8 UNK         0.5000 
     31 O          -1.2015  -19.1654  -48.2122 O.2       8 UNK        -0.5000 
     32 CA         -0.3753  -17.1404  -47.2183 C.3       8 UNK         0.1400 
     33 CB         -0.4570  -15.9107  -48.1324 C.3       8 UNK        -0.1800 
     34 N          -0.4158  -16.7128  -45.8178 N.am      8 UNK        -0.5000 
     35 C          -0.1990  -17.5247  -44.7730 C.2       7 UNK         0.5000 
     36 O           0.1294  -18.7033  -44.8869 O.2       7 UNK        -0.5000 
     37 CA         -0.4452  -16.9489  -43.3678 C.3       7 UNK         0.1400 
     38 CB          0.7806  -16.1905  -42.8440 C.3       7 UNK        -0.1800 
     39 N          -1.6153  -16.0753  -43.3366 N.am      7 UNK        -0.5000 
     40 C          -2.8784  -16.5099  -43.4419 C.2       6 UNK         0.5000 
     41 O          -3.1868  -17.6983  -43.5266 O.2       6 UNK        -0.5000 
     42 CA         -3.9727  -15.4291  -43.5080 C.3       6 UNK         0.1400 
     43 CB         -4.3910  -14.9950  -42.0955 C.3       6 UNK        -0.1800 
     44 N          -3.5480  -14.2540  -44.2715 N.am      6 UNK        -0.5000 
     45 C          -3.3009  -14.2579  -45.5894 C.2       5 UNK         0.5000 
     46 O          -3.4557  -15.2438  -46.3080 O.2       5 UNK        -0.5000 
     47 CA         -2.7356  -12.9584  -46.1910 C.3       5 UNK         0.1400 
     48 CB         -3.8736  -12.0119  -46.6004 C.3       5 UNK        -0.1800 
     49 N          -1.8252  -12.2629  -45.2764 N.am      5 UNK        -0.5000 
     50 C          -0.6315  -12.7358  -44.8965 C.2       4 UNK         0.5000 
     51 O          -0.1607  -13.8070  -45.2884 O.2       4 UNK        -0.5000 
     52 CA          0.1371  -11.9010  -43.8664 C.3       4 UNK         0.1400 
     53 CB         -0.2697  -12.3051  -42.4366 C.3       4 UNK        -0.1800 
     54 N           1.5689  -12.1012  -44.0651 N.am      4 UNK        -0.5000 
     55 C           2.5367  -11.2991  -43.6058 C.2       3 UNK         0.5000 
     56 O           2.3081  -10.2948  -42.9293 O.2       3 UNK        -0.5000 
     57 CA          4.0004  -11.6210  -43.9865 C.3       3 UNK         0.1400 
     58 CB          4.9235  -11.6478  -42.7503 C.3       3 UNK        -0.1800 
     59 N           4.1962  -12.8179  -44.8188 N.am      3 UNK        -0.5000 
     60 C           4.0210  -14.1056  -44.4780 C.2       2 UNK         0.5000 
     61 O           3.6225  -14.4682  -43.3724 O.2       2 UNK        -0.5000 
     62 CA          4.3392  -15.1712  -45.5460 C.3       2 UNK         0.1400 
     63 CB          3.1183  -16.0594  -45.8455 C.3       2 UNK        -0.1800 
     64 N           4.8382  -14.5812  -46.7924 N.am      2 UNK        -0.5000 
     65 C           5.7881  -15.1219  -47.5670 C.2       1 UNK         0.5000 
     66 O           6.3206  -16.2104  -47.3444 O.2       1 UNK        -0.5000 
     67 C           0.0902  -22.6308  -47.8350 C.2       11 UNK         0.5000 
     68 O           0.5191  -23.7592  -48.0722 O.2       11 UNK        -0.5000 
     69 N          -0.8852  -22.0438  -48.5436 N.am      12 UNK        -0.5000 
     70 CA         -1.5829  -22.6737  -49.6651 C.3       12 UNK         0.1400 
     71 CB         -2.5316  -21.6616  -50.3185 C.3       12 UNK        -0.1800 
     72 C          -2.3308  -23.9561  -49.2592 C.2       12 UNK         0.5000 
     73 O          -2.2057  -24.9702  -49.9459 O.2       12 UNK        -0.5000 
     74 N          -3.0410  -23.9100  -48.1235 N.am      13 UNK        -0.5000 
     75 CA         -3.7287  -25.0619  -47.5398 C.3       13 UNK         0.1400 
     76 CB         -4.5851  -24.6034  -46.3503 C.3       13 UNK        -0.1800 
     77 C          -2.7614  -26.1918  -47.1321 C.2       13 UNK         0.5000 
     78 O          -3.0270  -27.3544  -47.4382 O.2       13 UNK        -0.5000 
     79 N          -1.6354  -25.8341  -46.4969 N.am      14 UNK        -0.5000 
     80 CA         -0.5585  -26.7532  -46.1138 C.3       14 UNK         0.1400 
     81 CB          0.4477  -26.0202  -45.2139 C.3       14 UNK        -0.1800 
     82 C           0.1561  -27.3893  -47.3221 C.2       14 UNK         0.5000 
     83 O           0.5474  -28.5546  -47.2526 O.2       14 UNK        -0.5000 
     84 N           0.2726  -26.6312  -48.4203 N.am      15 UNK        -0.5000 
     85 CA          0.7866  -27.0793  -49.7169 C.3       15 UNK         0.1400 
     86 CB          1.2164  -25.8474  -50.5318 C.3       15 UNK        -0.1800 
     87 C          -0.2114  -27.9483  -50.5156 C.2       15 UNK         0.5000 
     88 O           0.1364  -28.4042  -51.6057 O.2       15 UNK        -0.5000 
     89 N          -1.4198  -28.1614  -49.9725 N.am      16 UNK        -0.5000 
     90 CA         -2.5349  -28.9338  -50.5280 C.3       16 UNK         0.1400 
     91 CB         -2.1456  -30.4105  -50.7530 C.3       16 UNK        -0.1800 
     92 C          -3.1866  -28.2797  -51.7637 C.2       16 UNK         0.5000 
     93 O          -3.8064  -28.9760  -52.5708 O.2       16 UNK        -0.5000 
     94 N          -3.0742  -26.9504  -51.8706 N.am      17 UNK        -0.5000 
     95 CA         -3.8522  -26.1206  -52.7856 C.3       17 UNK         0.1400 
     96 CB         -2.9857  -24.9279  -53.2300 C.3       17 UNK        -0.1800 
     97 C          -5.1485  -25.6592  -52.0882 C.2       17 UNK         0.5000 
     98 O          -5.4109  -26.0318  -50.9401 O.2       17 UNK        -0.5000 
     99 N          -5.9518  -24.8572  -52.7970 N.am      18 UNK        -0.5000 
    100 CA        -7.1653  -24.2356  -52.2658 C.3       18 UNK         0.1400 
    101 CB        -7.9182  -23.5468  -53.4147 C.3       18 UNK        -0.1800 
    102 C         -6.8520  -23.2253  -51.1444 C.2       18 UNK         0.5000 
    103 O         -5.8431  -22.5204  -51.2187 O.2       18 UNK        -0.5000 
    104 N         -7.7376  -23.1623  -50.1433 N.am      19 UNK        -0.5000 
    105 CA        -7.6918  -22.1818  -49.0587 C.3       19 UNK         0.1400 
    106 CB        -8.6215  -22.6529  -47.9288 C.3       19 UNK        -0.1800 
    107 C         -8.0878  -20.7735  -49.5465 C.2       19 UNK         0.5000 
    108 O         -8.7096  -20.6367  -50.6042 O.2       19 UNK        -0.5000 
    109 N         -7.7335  -19.7593  -48.7456 N.am      20 UNK        -0.5000 
    110 CA        -7.8349  -18.3272  -49.0517 C.3       20 UNK         0.1400 
    111 CB        -9.3083  -17.8874  -49.2182 C.3       20 UNK        -0.1800 
    112 C         -6.9115  -17.9463  -50.2311 C.2       20 UNK         0.5000 
    113 O         -5.8207  -18.5101  -50.3383 O.2       20 UNK        -0.5000 
    114 N         -7.3513  -17.0019  -51.0759 N.am      21 UNK        -0.5000 
    115 CA        -6.6524  -16.4854  -52.2582 C.3       21 UNK         0.1400 
    116 CB        -6.5827  -17.5727  -53.3559 C.3       21 UNK        -0.1800 
    117 C         -5.2855  -15.8498  -51.9098 C.2       21 UNK         0.5000 
    118 O         -5.1733  -15.1949  -50.8709 O.2       21 UNK        -0.5000 
    119 N         -4.2912  -16.0246  -52.7913 N.am      22 UNK        -0.5000 
    120 CA        -2.9000  -15.5516  -52.6522 C.3       22 UNK         0.1400 
    121 C         -2.7230  -14.0006  -52.6764 C.2       22 UNK         0.5000 
    122 N         -3.6964  -13.2309  -53.1480 N.am      22 UNK        -0.7600 
    123 O         -1.6757  -13.4827  -52.2984 O.2       22 UNK        -0.5000 
    124 C124       -2.1418  -16.2216  -51.4702 C.3       23 UNK        -0.0398 
    125 S125       -2.1103  -18.0446  -51.5841 S.3       23 UNK        -0.2404 
    126 C126       -0.5325  -18.3696  -52.4383 C.3       23 UNK        -0.0205 
    127 H127        7.0824  -10.5099  -47.6838 H         1 UNK         0.0600 
    128 H128        8.8172  -10.7972  -47.5250 H         1 UNK         0.0600 
    129 H129        7.7556  -11.0023  -46.1275 H         1 UNK         0.0600 
    130 H130        6.0366  -12.1726  -48.7101 H         1 UNK         0.3000 
    131 H131        7.1372  -14.7499  -49.1876 H         1 UNK         0.0600 
    132 H132        5.5746  -13.6175  -50.7321 H         1 UNK         0.0800 
    133 H133        4.2871  -13.6950  -49.5719 H         1 UNK         0.0800 
    134 H134        3.2596  -16.1197  -48.7196 H         1 UNK         0.0800 
    135 H135        2.4731  -15.2233  -49.9909 H         1 UNK         0.0800 
    136 H136        1.0338  -16.3372  -51.5101 H         1 UNK         0.1150 
    137 H137        0.5565  -20.5881  -51.2768 H         1 UNK         0.1150 
    138 H138        3.7153  -18.6514  -49.1105 H         1 UNK         0.1150 
    139 H139        1.9470  -21.9132  -49.8965 H         1 UNK         0.0800 
    140 H140        3.5691  -21.4040  -50.2650 H         1 UNK         0.0800 
    141 H141        1.0869  -19.9878  -47.7088 H         1 UNK         0.0800 
    142 H142        1.9184  -20.1410  -46.1981 H         1 UNK         0.0800 
    143 H143        1.2330  -22.5475  -46.0286 H         1 UNK         0.0600 
    144 H144       -0.4371  -20.3323  -45.6359 H         1 UNK         0.3000 
    145 H145       -3.3396  -21.9917  -44.3587 H         1 UNK         0.0600 
    146 H146       -2.8782  -20.3891  -42.5205 H         1 UNK         0.0600 
    147 H147       -1.7618  -21.7448  -42.4527 H         1 UNK         0.0600 
    148 H148       -1.2172  -20.1931  -43.0747 H         1 UNK         0.0600 
    149 H149       -2.7834  -19.2361  -44.7984 H         1 UNK         0.3000 
    150 H150       -3.9921  -19.0826  -48.1838 H         1 UNK         0.0600 
    151 H151       -5.9321  -18.8806  -46.5951 H         1 UNK         0.0600 
    152 H152       -5.3356  -17.3072  -47.1181 H         1 UNK         0.0600 
    153 H153       -4.9461  -17.9148  -45.5131 H         1 UNK         0.0600 
    154 H154       -2.8671  -17.0572  -46.5605 H         1 UNK         0.3000 
    155 H155        0.5901  -17.6201  -47.3916 H         1 UNK         0.0600 
    156 H156       -1.4122  -15.3957  -48.0375 H         1 UNK         0.0600 
    157 H157       -0.3469  -16.2039  -49.1745 H         1 UNK         0.0600 
    158 H158        0.3353  -15.1961  -47.9097 H         1 UNK         0.0600 
    159 H159       -0.6198  -15.7347  -45.6424 H         1 UNK         0.3000 
    160 H160       -0.6293  -17.7876  -42.6931 H         1 UNK         0.0600 
    161 H161        1.0300  -15.3383  -43.4753 H         1 UNK         0.0600 
    162 H162        1.6551  -16.8409  -42.8082 H         1 UNK         0.0600 
    163 H163        0.6141  -15.8204  -41.8324 H         1 UNK         0.0600 
    164 H164       -1.4429  -15.0823  -43.3129 H         1 UNK         0.3000 
    165 H165       -4.8426  -15.8635  -44.0051 H         1 UNK         0.0600 
    166 H166       -5.2149  -14.2820  -42.1302 H         1 UNK         0.0600 
    167 H167       -4.7277  -15.8507  -41.5088 H         1 UNK         0.0600 
    168 H168       -3.5661  -14.5298  -41.5543 H         1 UNK         0.0600 
    169 H169       -3.4048  -13.3990  -43.7551 H         1 UNK         0.3000 
    170 H170       -2.1752  -13.2249  -47.0895 H         1 UNK         0.0600 
    171 H171       -4.5542  -12.5009  -47.2989 H         1 UNK         0.0600 
    172 H172       -4.4614  -11.6897  -45.7400 H         1 UNK         0.0600 
    173 H173       -3.4866  -11.1215  -47.0960 H         1 UNK         0.0600 
    174 H174       -2.1443  -11.3774  -44.9098 H         1 UNK         0.3000 
    175 H175       -0.0999  -10.8476  -44.0299 H         1 UNK         0.0600 
    176 H176       -1.3456  -12.2058  -42.2886 H         1 UNK         0.0600 
    177 H177       -0.0002  -13.3387  -42.2194 H         1 UNK         0.0600 
    178 H178        0.2151  -11.6736  -41.6922 H         1 UNK         0.0600 
    179 H179        1.8089  -12.9087  -44.6247 H         1 UNK         0.3000 
    180 H180        4.3251  -10.7845  -44.6071 H         1 UNK         0.0600 
    181 H181        4.6228  -12.4125  -42.0340 H         1 UNK         0.0600 
    182 H182        4.9055  -10.6909  -42.2275 H         1 UNK         0.0600 
    183 H183        5.9582  -11.8402  -43.0342 H         1 UNK         0.0600 
    184 H184        4.5540  -12.6240  -45.7403 H         1 UNK         0.3000 
    185 H185        5.1179  -15.7992  -45.1081 H         1 UNK         0.0600 
    186 H186        2.7448  -16.5289  -44.9368 H         1 UNK         0.0600 
    187 H187        2.3003  -15.4866  -46.2834 H         1 UNK         0.0600 
    188 H188        3.3742  -16.8682  -46.5293 H         1 UNK         0.0600 
    189 H189        4.4326  -13.7012  -47.0708 H         1 UNK         0.3000 
    190 H190       -1.1560  -21.0905  -48.3139 H         1 UNK         0.3000 
    191 H191       -0.8292  -22.9517  -50.4043 H         1 UNK         0.0600 
    192 H192       -3.2974  -21.3126  -49.6255 H         1 UNK         0.0600 
    193 H193       -3.0424  -22.0979  -51.1773 H         1 UNK         0.0600 
    194 H194       -1.9825  -20.7914  -50.6736 H         1 UNK         0.0600 
    195 H195       -3.1205  -23.0258  -47.6305 H         1 UNK         0.3000 
    196 H196       -4.4001  -25.4627  -48.3023 H         1 UNK         0.0600 
    197 H197       -5.1340  -25.4413  -45.9190 H         1 UNK         0.0600 
    198 H198       -5.3181  -23.8572  -46.6581 H         1 UNK         0.0600 
    199 H199       -3.9760  -24.1667  -45.5588 H         1 UNK         0.0600 
    200 H200       -1.5076  -24.8581  -46.2385 H         1 UNK         0.3000 
    201 H201       -1.0050  -27.5627  -45.5329 H         1 UNK         0.0600 
    202 H202       -0.0335  -25.6423  -44.3117 H         1 UNK         0.0600 
    203 H203        0.9051  -25.1744  -45.7279 H         1 UNK         0.0600 
    204 H204        1.2506  -26.6879  -44.8992 H         1 UNK         0.0600 
    205 H205       -0.0084  -25.6566  -48.3640 H         1 UNK         0.3000 
    206 H206        1.6731  -27.6915  -49.5404 H         1 UNK         0.0600 
    207 H207        1.9569  -25.2563  -49.9928 H         1 UNK         0.0600 
    208 H208        1.6657  -26.1399  -51.4815 H         1 UNK         0.0600 
    209 H209        0.3698  -25.1987  -50.7561 H         1 UNK         0.0600 
    210 H210       -1.6180  -27.7151  -49.0852 H         1 UNK         0.3000 
    211 H211       -3.3059  -28.9220  -49.7566 H         1 UNK         0.0600 
    212 H212       -1.4456  -30.5261  -51.5806 H         1 UNK         0.0600 
    213 H213       -3.0237  -31.0141  -50.9851 H         1 UNK         0.0600 
    214 H214       -1.6870  -30.8379  -49.8613 H         1 UNK         0.0600 
    215 H215       -2.6121  -26.4415  -51.1210 H         1 UNK         0.3000 
    216 H216       -4.1273  -26.6963  -53.6715 H         1 UNK         0.0600 
    217 H217       -2.7904  -24.2393  -52.4086 H         1 UNK         0.0600 
    218 H218       -3.4719  -24.3588  -54.0226 H         1 UNK         0.0600 
    219 H219       -2.0242  -25.2631  -53.6194 H         1 UNK         0.0600 
    220 H220       -5.6684  -24.5696  -53.7217 H         1 UNK         0.3000 
    221 H221       -7.8000  -25.0267  -51.8606 H         1 UNK         0.0600 
    222 H222       -8.1906  -24.2593  -54.1935 H         1 UNK         0.0600 
    223 H223       -7.3184  -22.7590  -53.8724 H         1 UNK         0.0600 
    224 H224       -8.8409  -23.0881  -53.0565 H         1 UNK         0.0600 
    225 H225       -8.5581  -23.7491  -50.1784 H         1 UNK         0.3000 
    226 H226       -6.6693  -22.1386  -48.6753 H         1 UNK         0.0600 
    227 H227       -8.3299  -23.6381  -47.5640 H         1 UNK         0.0600 
    228 H228       -8.5852  -21.9714  -47.0781 H         1 UNK         0.0600 
    229 H229       -9.6594  -22.7096  -48.2593 H         1 UNK         0.0600 
    230 H230       -7.2219  -19.9822  -47.9049 H         1 UNK         0.3000 
    231 H231       -7.4449  -17.7997  -48.1819 H         1 UNK         0.0600 
    232 H232       -9.7500  -18.2637  -50.1414 H         1 UNK         0.0600 
    233 H233       -9.3969  -16.8007  -49.2281 H         1 UNK         0.0600 
    234 H234       -9.9185  -18.2467  -48.3895 H         1 UNK         0.0600 
    235 H235       -8.2461  -16.5760  -50.8820 H         1 UNK         0.3000 
    236 H236       -7.2704  -15.6724  -52.6414 H         1 UNK         0.0600 
    237 H237       -6.2478  -17.1591  -54.3076 H         1 UNK         0.0600 
    238 H238       -5.9037  -18.3823  -53.0844 H         1 UNK         0.0600 
    239 H239       -7.5645  -18.0128  -53.5317 H         1 UNK         0.0600 
    240 H240       -4.4806  -16.5726  -53.6176 H         1 UNK         0.3000 
    241 H241       -2.4017  -15.8798  -53.5648 H         1 UNK         0.0600 
    242 H242       -3.5702  -12.2311  -53.1723 H         1 UNK         0.3800 
    243 H243       -4.5588  -13.6356  -53.4748 H         1 UNK         0.3800 
    244 H244       -2.6024  -15.9487  -50.5199 H         1 UNK         0.0800 
    245 H245       -1.1182  -15.8571  -51.4181 H         1 UNK         0.0800 
    246 H246       -0.3557  -17.6041  -53.1952 H         1 UNK         0.0800 
    247 H247       -0.6264  -19.3106  -52.9822 H         1 UNK         0.0800 
@<TRIPOS>BOND
     1    1    2 1    
     2    1  127 1    
     3    1  128 1    
     4    1  129 1    
     5    2    3 2    
     6    2    4 am   BACKBONE|DICT|INTERRES
     7    4    5 1    
     8    4  130 1    
     9    5    6 1    
    10    5   65 1    
    11    5  131 1    
    12    6    7 1    
    13    6  132 1    
    14    6  133 1    
    15    7    8 1    
    16    8    9 1    
    17    8  134 1    
    18    8  135 1    
    19    9   10 ar   
    20    9   14 ar   
    21   10   11 ar   
    22   10  136 1    
    23   11   12 ar   
    24   11  126 1    
    25   12   13 ar   
    26   12  137 1    
    27   13   14 ar   
    28   13   15 1    
    29   14  138 1    
    30   15   16 1    
    31   15  139 1    
    32   15  140 1    
    33   16   17 1    
    34   17   18 1    
    35   17  141 1    
    36   17  142 1    
    37   18   19 1    
    38   18   67 1    
    39   18  143 1    
    40   19   20 am   BACKBONE|DICT|INTERRES
    41   19  144 1    
    42   20   21 2    
    43   20   22 1    
    44   22   23 1    
    45   22   24 1    
    46   22  145 1    
    47   23  146 1    
    48   23  147 1    
    49   23  148 1    
    50   24   25 am   BACKBONE|DICT|INTERRES
    51   24  149 1    
    52   25   26 2    
    53   25   27 1    
    54   27   28 1    
    55   27   29 1    
    56   27  150 1    
    57   28  151 1    
    58   28  152 1    
    59   28  153 1    
    60   29   30 am   BACKBONE|DICT|INTERRES
    61   29  154 1    
    62   30   31 2    
    63   30   32 1    
    64   32   33 1    
    65   32   34 1    
    66   32  155 1    
    67   33  156 1    
    68   33  157 1    
    69   33  158 1    
    70   34   35 am   BACKBONE|DICT|INTERRES
    71   34  159 1    
    72   35   36 2    
    73   35   37 1    
    74   37   38 1    
    75   37   39 1    
    76   37  160 1    
    77   38  161 1    
    78   38  162 1    
    79   38  163 1    
    80   39   40 am   BACKBONE|DICT|INTERRES
    81   39  164 1    
    82   40   41 2    
    83   40   42 1    
    84   42   43 1    
    85   42   44 1    
    86   42  165 1    
    87   43  166 1    
    88   43  167 1    
    89   43  168 1    
    90   44   45 am   BACKBONE|DICT|INTERRES
    91   44  169 1    
    92   45   46 2    
    93   45   47 1    
    94   47   48 1    
    95   47   49 1    
    96   47  170 1    
    97   48  171 1    
    98   48  172 1    
    99   48  173 1    
   100   49   50 am   BACKBONE|DICT|INTERRES
   101   49  174 1    
   102   50   51 2    
   103   50   52 1    
   104   52   53 1    
   105   52   54 1    
   106   52  175 1    
   107   53  176 1    
   108   53  177 1    
   109   53  178 1    
   110   54   55 am   BACKBONE|DICT|INTERRES
   111   54  179 1    
   112   55   56 2    
   113   55   57 1    
   114   57   58 1    
   115   57   59 1    
   116   57  180 1    
   117   58  181 1    
   118   58  182 1    
   119   58  183 1    
   120   59   60 am   BACKBONE|DICT|INTERRES
   121   59  184 1    
   122   60   61 2    
   123   60   62 1    
   124   62   63 1    
   125   62   64 1    
   126   62  185 1    
   127   63  186 1    
   128   63  187 1    
   129   63  188 1    
   130   64   65 am   BACKBONE|DICT|INTERRES
   131   64  189 1    
   132   65   66 2    
   133   67   68 2    
   134   67   69 am   BACKBONE|DICT|INTERRES
   135   69   70 1    
   136   69  190 1    
   137   70   71 1    
   138   70   72 1    
   139   70  191 1    
   140   71  192 1    
   141   71  193 1    
   142   71  194 1    
   143   72   73 2    
   144   72   74 am   BACKBONE|DICT|INTERRES
   145   74   75 1    
   146   74  195 1    
   147   75   76 1    
   148   75   77 1    
   149   75  196 1    
   150   76  197 1    
   151   76  198 1    
   152   76  199 1    
   153   77   78 2    
   154   77   79 am   BACKBONE|DICT|INTERRES
   155   79   80 1    
   156   79  200 1    
   157   80   81 1    
   158   80   82 1    
   159   80  201 1    
   160   81  202 1    
   161   81  203 1    
   162   81  204 1    
   163   82   83 2    
   164   82   84 am   BACKBONE|DICT|INTERRES
   165   84   85 1    
   166   84  205 1    
   167   85   86 1    
   168   85   87 1    
   169   85  206 1    
   170   86  207 1    
   171   86  208 1    
   172   86  209 1    
   173   87   88 2    
   174   87   89 am   BACKBONE|DICT|INTERRES
   175   89   90 1    
   176   89  210 1    
   177   90   91 1    
   178   90   92 1    
   179   90  211 1    
   180   91  212 1    
   181   91  213 1    
   182   91  214 1    
   183   92   93 2    
   184   92   94 am   BACKBONE|DICT|INTERRES
   185   94   95 1    
   186   94  215 1    
   187   95   96 1    
   188   95   97 1    
   189   95  216 1    
   190   96  217 1    
   191   96  218 1    
   192   96  219 1    
   193   97   98 2    
   194   97   99 am   BACKBONE|DICT|INTERRES
   195   99  100 1    
   196   99  220 1    
   197  100  101 1    
   198  100  102 1    
   199  100  221 1    
   200  101  222 1    
   201  101  223 1    
   202  101  224 1    
   203  102  103 2    
   204  102  104 am   BACKBONE|DICT|INTERRES
   205  104  105 1    
   206  104  225 1    
   207  105  106 1    
   208  105  107 1    
   209  105  226 1    
   210  106  227 1    
   211  106  228 1    
   212  106  229 1    
   213  107  108 2    
   214  107  109 am   BACKBONE|DICT|INTERRES
   215  109  110 1    
   216  109  230 1    
   217  110  111 1    
   218  110  112 1    
   219  110  231 1    
   220  111  232 1    
   221  111  233 1    
   222  111  234 1    
   223  112  113 2    
   224  112  114 am   BACKBONE|DICT|INTERRES
   225  114  115 1    
   226  114  235 1    
   227  115  116 1    
   228  115  117 1    
   229  115  236 1    
   230  116  237 1    
   231  116  238 1    
   232  116  239 1    
   233  117  118 2    
   234  117  119 am   BACKBONE|DICT|INTERRES
   235  119  120 1    
   236  119  240 1    
   237  120  121 1    
   238  120  124 1    
   239  120  241 1    
   240  121  122 am   BACKBONE|DICT|INTERRES
   241  121  123 2    
   242  122  242 1    
   243  122  243 1    
   244  124  125 1    
   245  124  244 1    
   246  124  245 1    
   247  125  126 1    
   248  126  246 1    
   249  126  247 1    
@<TRIPOS>SUBSTRUCTURE
     1 UNK         1 GROUP             0       ****    0 ROOT    
