@<TRIPOS>MOLECULE
3R540
247   249    1
SMALL
USER_CHARGES


@<TRIPOS>ATOM
      1 CA          5.2198  -15.7613  -47.1294 C.3       0 UNK        -0.1800 
      2 C           3.8779  -15.1060  -46.8351 C.2       0 UNK         0.5000 
      3 O           3.4320  -15.1349  -45.6893 O.2       0 UNK        -0.5000 
      4 N           3.2652  -14.5114  -47.8712 N.am      1 UNK        -0.5000 
      5 CA          1.8913  -13.9842  -47.9734 C.3       1 UNK         0.1400 
      6 C6          1.7578  -13.0613  -49.2159 C.3       23 UNK        -0.0398 
      7 S7          0.0856  -13.0425  -49.9512 S.3       23 UNK        -0.2404 
      8 C8          0.3637  -13.8359  -51.5710 C.3       23 UNK        -0.0205 
      9 C9          0.1986  -15.3468  -51.4992 C.ar      23 UNK        -0.0193 
     10 C10        -0.9484  -15.9525  -52.0223 C.ar      23 UNK        -0.1150 
     11 C11        -1.1188  -17.3383  -51.9500 C.ar      23 UNK        -0.0193 
     12 C12        -0.1417  -18.1164  -51.3227 C.ar      23 UNK        -0.1150 
     13 C13         1.0045  -17.5217  -50.7868 C.ar      23 UNK        -0.0193 
     14 C14         1.1817  -16.1409  -50.9022 C.ar      23 UNK        -0.1150 
     15 C15         2.0239  -18.3658  -50.0358 C.3       23 UNK        -0.0205 
     16 S16         2.0357  -18.0216  -48.2410 S.3       23 UNK        -0.2404 
     17 C17         0.2723  -18.1660  -47.7890 C.3       23 UNK        -0.0398 
     18 CA         -0.1647  -19.6369  -47.6030 C.3       11 UNK         0.1400 
     19 N           0.2738  -20.1949  -46.3221 N.am      11 UNK        -0.5000 
     20 C           0.1696  -21.4850  -45.9768 C.2       10 UNK         0.5000 
     21 O          -0.2532  -22.3611  -46.7305 O.2       10 UNK        -0.5000 
     22 CA          0.5394  -21.8482  -44.5273 C.3       10 UNK         0.1400 
     23 CB          2.0611  -21.9650  -44.3558 C.3       10 UNK        -0.1800 
     24 N          -0.0027  -20.8923  -43.5596 N.am      10 UNK        -0.5000 
     25 C          -1.3123  -20.6892  -43.3547 C.2       9 UNK         0.5000 
     26 O          -2.1971  -21.3329  -43.9188 O.2       9 UNK        -0.5000 
     27 CA         -1.7054  -19.5497  -42.3970 C.3       9 UNK         0.1400 
     28 CB         -1.6135  -20.0091  -40.9347 C.3       9 UNK        -0.1800 
     29 N          -0.9032  -18.3407  -42.5927 N.am      9 UNK        -0.5000 
     30 C          -0.9001  -17.6058  -43.7154 C.2       8 UNK         0.5000 
     31 O          -1.6135  -17.8455  -44.6881 O.2       8 UNK        -0.5000 
     32 CA          0.1033  -16.4410  -43.7892 C.3       8 UNK         0.1400 
     33 CB         -0.4303  -15.2078  -43.0464 C.3       8 UNK        -0.1800 
     34 N           1.4151  -16.8039  -43.2589 N.am      8 UNK        -0.5000 
     35 C           2.2057  -17.7608  -43.7643 C.2       7 UNK         0.5000 
     36 O           1.9246  -18.4274  -44.7592 O.2       7 UNK        -0.5000 
     37 CA          3.4861  -18.0827  -42.9750 C.3       7 UNK         0.1400 
     38 CB          4.5946  -17.0571  -43.2540 C.3       7 UNK        -0.1800 
     39 N           3.2293  -18.1540  -41.5363 N.am      7 UNK        -0.5000 
     40 C           2.5072  -19.1167  -40.9458 C.2       6 UNK         0.5000 
     41 O           2.0058  -20.0639  -41.5507 O.2       6 UNK        -0.5000 
     42 CA          2.2816  -18.9795  -39.4293 C.3       6 UNK         0.1400 
     43 CB          3.4715  -19.5600  -38.6507 C.3       6 UNK        -0.1800 
     44 N           2.0621  -17.5926  -39.0165 N.am      6 UNK        -0.5000 
     45 C           0.9765  -16.8723  -39.3323 C.2       5 UNK         0.5000 
     46 O           0.0317  -17.3092  -39.9883 O.2       5 UNK        -0.5000 
     47 CA          0.9782  -15.3979  -38.8854 C.3       5 UNK         0.1400 
     48 CB          0.5418  -15.2731  -37.4180 C.3       5 UNK        -0.1800 
     49 N           2.2802  -14.7471  -39.0683 N.am      5 UNK        -0.5000 
     50 C           2.8756  -14.5911  -40.2568 C.2       4 UNK         0.5000 
     51 O           2.3864  -14.9835  -41.3197 O.2       4 UNK        -0.5000 
     52 CA          4.2593  -13.9307  -40.2672 C.3       4 UNK         0.1400 
     53 CB          5.3371  -14.9208  -39.7850 C.3       4 UNK        -0.1800 
     54 N           4.5219  -13.5236  -41.6405 N.am      4 UNK        -0.5000 
     55 C           5.4864  -12.7138  -42.0821 C.2       3 UNK         0.5000 
     56 O           6.3288  -12.1839  -41.3565 O.2       3 UNK        -0.5000 
     57 CA          5.5044  -12.4487  -43.5992 C.3       3 UNK         0.1400 
     58 CB          6.4265  -13.4529  -44.3051 C.3       3 UNK        -0.1800 
     59 N           4.1711  -12.5081  -44.2099 N.am      3 UNK        -0.5000 
     60 C           3.2395  -11.5520  -44.0711 C.2       2 UNK         0.5000 
     61 O           3.4117  -10.5332  -43.4001 O.2       2 UNK        -0.5000 
     62 CA          1.9172  -11.7556  -44.8334 C.3       2 UNK         0.1400 
     63 CB          1.1419  -10.4452  -45.0709 C.3       2 UNK        -0.1800 
     64 N           2.1733  -12.4180  -46.1097 N.am      2 UNK        -0.5000 
     65 C           1.3474  -13.2848  -46.7066 C.2       1 UNK         0.5000 
     66 O           0.2229  -13.5633  -46.2877 O.2       1 UNK        -0.5000 
     67 C          -1.6827  -19.7947  -47.8207 C.2       11 UNK         0.5000 
     68 O          -2.0857  -20.1586  -48.9224 O.2       11 UNK        -0.5000 
     69 N          -2.4955  -19.5626  -46.7801 N.am      12 UNK        -0.5000 
     70 CA         -3.9476  -19.7550  -46.8085 C.3       12 UNK         0.1400 
     71 CB         -4.5770  -19.1726  -45.5348 C.3       12 UNK        -0.1800 
     72 C          -4.3524  -21.2291  -46.9964 C.2       12 UNK         0.5000 
     73 O          -5.2773  -21.5104  -47.7602 O.2       12 UNK        -0.5000 
     74 N          -3.6306  -22.1456  -46.3368 N.am      13 UNK        -0.5000 
     75 CA         -3.7922  -23.5927  -46.4892 C.3       13 UNK         0.1400 
     76 CB         -2.9871  -24.3176  -45.4003 C.3       13 UNK        -0.1800 
     77 C          -3.3930  -24.0890  -47.8922 C.2       13 UNK         0.5000 
     78 O          -4.0690  -24.9576  -48.4432 O.2       13 UNK        -0.5000 
     79 N          -2.3238  -23.5094  -48.4555 N.am      14 UNK        -0.5000 
     80 CA         -1.8660  -23.7597  -49.8234 C.3       14 UNK         0.1400 
     81 CB         -0.4250  -23.2513  -49.9744 C.3       14 UNK        -0.1800 
     82 C          -2.7766  -23.1264  -50.8935 C.2       14 UNK         0.5000 
     83 O          -2.7500  -23.5714  -52.0414 O.2       14 UNK        -0.5000 
     84 N          -3.5444  -22.0958  -50.5156 N.am      15 UNK        -0.5000 
     85 CA         -4.5463  -21.4429  -51.3479 C.3       15 UNK         0.1400 
     86 CB         -4.8407  -20.0271  -50.8163 C.3       15 UNK        -0.1800 
     87 C          -5.8265  -22.2843  -51.4015 C.2       15 UNK         0.5000 
     88 O          -6.1847  -22.7789  -52.4696 O.2       15 UNK        -0.5000 
     89 N          -6.5210  -22.3920  -50.2573 N.am      16 UNK        -0.5000 
     90 CA         -7.7896  -23.1035  -50.0211 C.3       16 UNK         0.1400 
     91 CB         -7.5424  -24.6238  -50.0650 C.3       16 UNK        -0.1800 
     92 C          -8.9680  -22.7110  -50.9491 C.2       16 UNK         0.5000 
     93 O         -10.0026  -23.3786  -50.9241 O.2       16 UNK        -0.5000 
     94 N          -8.7747  -21.6738  -51.7785 N.am      17 UNK        -0.5000 
     95 CA         -9.5693  -21.2837  -52.9478 C.3       17 UNK         0.1400 
     96 CB        -10.9602  -20.7730  -52.5174 C.3       17 UNK        -0.1800 
     97 C          -9.6459  -22.3791  -54.0408 C.2       17 UNK         0.5000 
     98 O         -10.5683  -22.3458  -54.8579 O.2       17 UNK        -0.5000 
     99 N          -8.6965  -23.3301  -54.0459 N.am      18 UNK        -0.5000 
    100 CA        -8.7265  -24.5263  -54.8975 C.3       18 UNK         0.1400 
    101 CB        -9.8865  -25.4517  -54.4669 C.3       18 UNK        -0.1800 
    102 C         -7.4139  -25.3356  -54.9132 C.2       18 UNK         0.5000 
    103 O         -7.2695  -26.1968  -55.7831 O.2       18 UNK        -0.5000 
    104 N         -6.4986  -25.0996  -53.9641 N.am      19 UNK        -0.5000 
    105 CA        -5.2399  -25.8326  -53.8275 C.3       19 UNK         0.1400 
    106 CB        -4.9120  -25.9939  -52.3317 C.3       19 UNK        -0.1800 
    107 C         -4.1018  -25.1745  -54.6342 C.2       19 UNK         0.5000 
    108 O         -4.3203  -24.1841  -55.3359 O.2       19 UNK        -0.5000 
    109 N         -2.9136  -25.7855  -54.5580 N.am      20 UNK        -0.5000 
    110 CA        -1.7611  -25.5770  -55.4368 C.3       20 UNK         0.1400 
    111 CB        -0.6027  -26.4568  -54.9405 C.3       20 UNK        -0.1800 
    112 C         -1.2728  -24.1288  -55.6377 C.2       20 UNK         0.5000 
    113 O         -0.7767  -23.8279  -56.7252 O.2       20 UNK        -0.5000 
    114 N         -1.3778  -23.2695  -54.6139 N.am      21 UNK        -0.5000 
    115 CA        -0.8668  -21.8998  -54.6866 C.3       21 UNK         0.1400 
    116 CB        -0.5621  -21.3577  -53.2823 C.3       21 UNK        -0.1800 
    117 C         -1.8085  -20.9535  -55.4479 C.2       21 UNK         0.5000 
    118 O         -1.3530  -20.2657  -56.3632 O.2       21 UNK        -0.5000 
    119 N         -3.0851  -20.9141  -55.0425 N.am      22 UNK        -0.5000 
    120 CA        -4.0707  -19.9150  -55.4995 C.3       22 UNK         0.1400 
    121 C         -5.4886  -20.4975  -55.7753 C.2       22 UNK         0.5000 
    122 N         -5.7150  -21.8030  -55.7445 N.am      22 UNK        -0.7600 
    123 O         -6.4209  -19.7438  -56.0411 O.2       22 UNK        -0.5000 
    124 C124       -4.1515  -18.6732  -54.5608 C.3       23 UNK        -0.0398 
    125 S125       -2.5755  -17.7837  -54.2887 S.3       23 UNK        -0.2404 
    126 C126       -2.3835  -17.9883  -52.4914 C.3       23 UNK        -0.0205 
    127 H127        5.1482  -16.8365  -46.9637 H         1 UNK         0.0600 
    128 H128        5.5356  -15.5981  -48.1601 H         1 UNK         0.0600 
    129 H129        5.9928  -15.3672  -46.4718 H         1 UNK         0.0600 
    130 H130        3.7627  -14.5213  -48.7492 H         1 UNK         0.3000 
    131 H131        1.2673  -14.8659  -48.1329 H         1 UNK         0.0600 
    132 H132        2.0427  -12.0345  -48.9788 H         1 UNK         0.0800 
    133 H133        2.4625  -13.3685  -49.9885 H         1 UNK         0.0800 
    134 H134       -0.3521  -13.4175  -52.2801 H         1 UNK         0.0800 
    135 H135        1.3490  -13.5838  -51.9649 H         1 UNK         0.0800 
    136 H136       -1.7154  -15.3468  -52.4844 H         1 UNK         0.1150 
    137 H137       -0.2880  -19.1827  -51.2218 H         1 UNK         0.1150 
    138 H138        2.0686  -15.6844  -50.4888 H         1 UNK         0.1150 
    139 H139        1.8349  -19.4288  -50.1927 H         1 UNK         0.0800 
    140 H140        3.0186  -18.1712  -50.4389 H         1 UNK         0.0800 
    141 H141       -0.3308  -17.6538  -48.5390 H         1 UNK         0.0800 
    142 H142        0.1108  -17.6045  -46.8682 H         1 UNK         0.0800 
    143 H143        0.3098  -20.2323  -48.3855 H         1 UNK         0.0600 
    144 H144        0.6967  -19.5430  -45.6652 H         1 UNK         0.3000 
    145 H145        0.1011  -22.8244  -44.3097 H         1 UNK         0.0600 
    146 H146        2.3193  -22.2918  -43.3484 H         1 UNK         0.0600 
    147 H147        2.4765  -22.6947  -45.0517 H         1 UNK         0.0600 
    148 H148        2.5641  -21.0155  -44.5373 H         1 UNK         0.0600 
    149 H149        0.6703  -20.3558  -43.0215 H         1 UNK         0.3000 
    150 H150       -2.7462  -19.2914  -42.6022 H         1 UNK         0.0600 
    151 H151       -2.2168  -20.9022  -40.7674 H         1 UNK         0.0600 
    152 H152       -1.9794  -19.2385  -40.2563 H         1 UNK         0.0600 
    153 H153       -0.5887  -20.2468  -40.6497 H         1 UNK         0.0600 
    154 H154       -0.3270  -18.0457  -41.8107 H         1 UNK         0.3000 
    155 H155        0.2344  -16.1736  -44.8398 H         1 UNK         0.0600 
    156 H156        0.2499  -14.3630  -43.1523 H         1 UNK         0.0600 
    157 H157       -0.5591  -15.4018  -41.9812 H         1 UNK         0.0600 
    158 H158       -1.3966  -14.8993  -43.4470 H         1 UNK         0.0600 
    159 H159        1.7399  -16.2721  -42.4551 H         1 UNK         0.3000 
    160 H160        3.8440  -19.0610  -43.3027 H         1 UNK         0.0600 
    161 H161        4.2830  -16.0444  -43.0009 H         1 UNK         0.0600 
    162 H162        4.8634  -17.0600  -44.3106 H         1 UNK         0.0600 
    163 H163        5.4988  -17.2838  -42.6893 H         1 UNK         0.0600 
    164 H164        3.5657  -17.3881  -40.9741 H         1 UNK         0.3000 
    165 H165        1.3913  -19.5570  -39.1713 H         1 UNK         0.0600 
    166 H166        4.3914  -19.0078  -38.8466 H         1 UNK         0.0600 
    167 H167        3.2881  -19.5373  -37.5763 H         1 UNK         0.0600 
    168 H168        3.6477  -20.6005  -38.9272 H         1 UNK         0.0600 
    169 H169        2.7923  -17.1539  -38.4755 H         1 UNK         0.3000 
    170 H170        0.2502  -14.8671  -39.5027 H         1 UNK         0.0600 
    171 H171       -0.4322  -15.7382  -37.2601 H         1 UNK         0.0600 
    172 H172        1.2495  -15.7556  -36.7429 H         1 UNK         0.0600 
    173 H173        0.4530  -14.2280  -37.1209 H         1 UNK         0.0600 
    174 H174        2.7383  -14.4053  -38.2356 H         1 UNK         0.3000 
    175 H175        4.2383  -13.0481  -39.6252 H         1 UNK         0.0600 
    176 H176        5.1325  -15.2644  -38.7705 H         1 UNK         0.0600 
    177 H177        6.3245  -14.4595  -39.7719 H         1 UNK         0.0600 
    178 H178        5.3908  -15.8009  -40.4268 H         1 UNK         0.0600 
    179 H179        3.8431  -13.8873  -42.2986 H         1 UNK         0.3000 
    180 H180        5.9127  -11.4478  -43.7550 H         1 UNK         0.0600 
    181 H181        6.0626  -14.4752  -44.1978 H         1 UNK         0.0600 
    182 H182        7.4341  -13.4182  -43.8888 H         1 UNK         0.0600 
    183 H183        6.5081  -13.2304  -45.3690 H         1 UNK         0.0600 
    184 H184        3.9384  -13.3474  -44.7316 H         1 UNK         0.3000 
    185 H185        1.3070  -12.4072  -44.2050 H         1 UNK         0.0600 
    186 H186        0.1995  -10.6318  -45.5859 H         1 UNK         0.0600 
    187 H187        0.9008   -9.9534  -44.1278 H         1 UNK         0.0600 
    188 H188        1.7195   -9.7431  -45.6730 H         1 UNK         0.0600 
    189 H189        3.0888  -12.2652  -46.5095 H         1 UNK         0.3000 
    190 H190       -2.1013  -19.1928  -45.9187 H         1 UNK         0.3000 
    191 H191       -4.3378  -19.1952  -47.6608 H         1 UNK         0.0600 
    192 H192       -4.3530  -18.1104  -45.4349 H         1 UNK         0.0600 
    193 H193       -5.6626  -19.2758  -45.5540 H         1 UNK         0.0600 
    194 H194       -4.2156  -19.6761  -44.6385 H         1 UNK         0.0600 
    195 H195       -2.9251  -21.8302  -45.6773 H         1 UNK         0.3000 
    196 H196       -4.8483  -23.8288  -46.3429 H         1 UNK         0.0600 
    197 H197       -3.1160  -25.3981  -45.4736 H         1 UNK         0.0600 
    198 H198       -3.3127  -24.0170  -44.4043 H         1 UNK         0.0600 
    199 H199       -1.9203  -24.1078  -45.4794 H         1 UNK         0.0600 
    200 H200       -1.7740  -22.8576  -47.9037 H         1 UNK         0.3000 
    201 H201       -1.8647  -24.8386  -49.9911 H         1 UNK         0.0600 
    202 H202        0.2300  -23.6879  -49.2202 H         1 UNK         0.0600 
    203 H203       -0.3684  -22.1663  -49.8806 H         1 UNK         0.0600 
    204 H204       -0.0193  -23.5219  -50.9493 H         1 UNK         0.0600 
    205 H205       -3.4281  -21.7354  -49.5772 H         1 UNK         0.3000 
    206 H206       -4.1529  -21.3491  -52.3612 H         1 UNK         0.0600 
    207 H207       -3.9280  -19.4521  -50.6850 H         1 UNK         0.0600 
    208 H208       -5.4837  -19.4778  -51.5038 H         1 UNK         0.0600 
    209 H209       -5.3434  -20.0325  -49.8512 H         1 UNK         0.0600 
    210 H210       -6.1178  -21.9661  -49.4254 H         1 UNK         0.3000 
    211 H211       -8.0964  -22.8420  -49.0076 H         1 UNK         0.0600 
    212 H212       -7.3475  -24.9674  -51.0804 H         1 UNK         0.0600 
    213 H213       -8.4089  -25.1740  -49.6968 H         1 UNK         0.0600 
    214 H214       -6.6923  -24.9066  -49.4442 H         1 UNK         0.0600 
    215 H215       -7.8800  -21.2126  -51.7050 H         1 UNK         0.3000 
    216 H216       -9.0389  -20.4471  -53.4048 H         1 UNK         0.0600 
    217 H217      -10.8778  -20.0066  -51.7467 H         1 UNK         0.0600 
    218 H218      -11.5841  -21.5770  -52.1264 H         1 UNK         0.0600 
    219 H219      -11.4921  -20.3279  -53.3589 H         1 UNK         0.0600 
    220 H220       -7.9280  -23.2427  -53.3913 H         1 UNK         0.3000 
    221 H221       -8.9006  -24.2038  -55.9260 H         1 UNK         0.0600 
    222 H222       -9.8015  -25.7295  -53.4155 H         1 UNK         0.0600 
    223 H223      -10.8583  -24.9799  -54.6092 H         1 UNK         0.0600 
    224 H224       -9.8979  -26.3734  -55.0502 H         1 UNK         0.0600 
    225 H225       -6.5789  -24.2906  -53.3562 H         1 UNK         0.3000 
    226 H226       -5.3623  -26.8380  -54.2357 H         1 UNK         0.0600 
    227 H227       -5.6638  -26.6084  -51.8368 H         1 UNK         0.0600 
    228 H228       -3.9505  -26.4811  -52.1702 H         1 UNK         0.0600 
    229 H229       -4.8840  -25.0373  -51.8153 H         1 UNK         0.0600 
    230 H230       -2.8300  -26.5638  -53.9215 H         1 UNK         0.3000 
    231 H231       -2.0581  -25.9426  -56.4218 H         1 UNK         0.0600 
    232 H232        0.2716  -26.3572  -55.5853 H         1 UNK         0.0600 
    233 H233       -0.8793  -27.5113  -54.9347 H         1 UNK         0.0600 
    234 H234       -0.2979  -26.1825  -53.9296 H         1 UNK         0.0600 
    235 H235       -1.8388  -23.5570  -53.7542 H         1 UNK         0.3000 
    236 H236        0.0840  -21.9154  -55.2247 H         1 UNK         0.0600 
    237 H237       -0.1188  -20.3635  -53.3467 H         1 UNK         0.0600 
    238 H238       -1.4594  -21.2729  -52.6718 H         1 UNK         0.0600 
    239 H239        0.1494  -21.9949  -52.7591 H         1 UNK         0.0600 
    240 H240       -3.3969  -21.5680  -54.3399 H         1 UNK         0.3000 
    241 H241       -3.7562  -19.5511  -56.4790 H         1 UNK         0.0600 
    242 H242       -4.9907  -22.4980  -55.5759 H         1 UNK         0.3800 
    243 H243       -6.6475  -22.1225  -55.9416 H         1 UNK         0.3800 
    244 H244       -4.8478  -17.9394  -54.9703 H         1 UNK         0.0800 
    245 H245       -4.5714  -18.9683  -53.6003 H         1 UNK         0.0800 
    246 H246       -2.3814  -19.0553  -52.2694 H         1 UNK         0.0800 
    247 H247       -3.2465  -17.5549  -51.9843 H         1 UNK         0.0800 
@<TRIPOS>BOND
     1    1    2 1    
     2    1  127 1    
     3    1  128 1    
     4    1  129 1    
     5    2    3 2    
     6    2    4 am   BACKBONE|DICT|INTERRES
     7    4    5 1    
     8    4  130 1    
     9    5    6 1    
    10    5   65 1    
    11    5  131 1    
    12    6    7 1    
    13    6  132 1    
    14    6  133 1    
    15    7    8 1    
    16    8    9 1    
    17    8  134 1    
    18    8  135 1    
    19    9   10 ar   
    20    9   14 ar   
    21   10   11 ar   
    22   10  136 1    
    23   11   12 ar   
    24   11  126 1    
    25   12   13 ar   
    26   12  137 1    
    27   13   14 ar   
    28   13   15 1    
    29   14  138 1    
    30   15   16 1    
    31   15  139 1    
    32   15  140 1    
    33   16   17 1    
    34   17   18 1    
    35   17  141 1    
    36   17  142 1    
    37   18   19 1    
    38   18   67 1    
    39   18  143 1    
    40   19   20 am   BACKBONE|DICT|INTERRES
    41   19  144 1    
    42   20   21 2    
    43   20   22 1    
    44   22   23 1    
    45   22   24 1    
    46   22  145 1    
    47   23  146 1    
    48   23  147 1    
    49   23  148 1    
    50   24   25 am   BACKBONE|DICT|INTERRES
    51   24  149 1    
    52   25   26 2    
    53   25   27 1    
    54   27   28 1    
    55   27   29 1    
    56   27  150 1    
    57   28  151 1    
    58   28  152 1    
    59   28  153 1    
    60   29   30 am   BACKBONE|DICT|INTERRES
    61   29  154 1    
    62   30   31 2    
    63   30   32 1    
    64   32   33 1    
    65   32   34 1    
    66   32  155 1    
    67   33  156 1    
    68   33  157 1    
    69   33  158 1    
    70   34   35 am   BACKBONE|DICT|INTERRES
    71   34  159 1    
    72   35   36 2    
    73   35   37 1    
    74   37   38 1    
    75   37   39 1    
    76   37  160 1    
    77   38  161 1    
    78   38  162 1    
    79   38  163 1    
    80   39   40 am   BACKBONE|DICT|INTERRES
    81   39  164 1    
    82   40   41 2    
    83   40   42 1    
    84   42   43 1    
    85   42   44 1    
    86   42  165 1    
    87   43  166 1    
    88   43  167 1    
    89   43  168 1    
    90   44   45 am   BACKBONE|DICT|INTERRES
    91   44  169 1    
    92   45   46 2    
    93   45   47 1    
    94   47   48 1    
    95   47   49 1    
    96   47  170 1    
    97   48  171 1    
    98   48  172 1    
    99   48  173 1    
   100   49   50 am   BACKBONE|DICT|INTERRES
   101   49  174 1    
   102   50   51 2    
   103   50   52 1    
   104   52   53 1    
   105   52   54 1    
   106   52  175 1    
   107   53  176 1    
   108   53  177 1    
   109   53  178 1    
   110   54   55 am   BACKBONE|DICT|INTERRES
   111   54  179 1    
   112   55   56 2    
   113   55   57 1    
   114   57   58 1    
   115   57   59 1    
   116   57  180 1    
   117   58  181 1    
   118   58  182 1    
   119   58  183 1    
   120   59   60 am   BACKBONE|DICT|INTERRES
   121   59  184 1    
   122   60   61 2    
   123   60   62 1    
   124   62   63 1    
   125   62   64 1    
   126   62  185 1    
   127   63  186 1    
   128   63  187 1    
   129   63  188 1    
   130   64   65 am   BACKBONE|DICT|INTERRES
   131   64  189 1    
   132   65   66 2    
   133   67   68 2    
   134   67   69 am   BACKBONE|DICT|INTERRES
   135   69   70 1    
   136   69  190 1    
   137   70   71 1    
   138   70   72 1    
   139   70  191 1    
   140   71  192 1    
   141   71  193 1    
   142   71  194 1    
   143   72   73 2    
   144   72   74 am   BACKBONE|DICT|INTERRES
   145   74   75 1    
   146   74  195 1    
   147   75   76 1    
   148   75   77 1    
   149   75  196 1    
   150   76  197 1    
   151   76  198 1    
   152   76  199 1    
   153   77   78 2    
   154   77   79 am   BACKBONE|DICT|INTERRES
   155   79   80 1    
   156   79  200 1    
   157   80   81 1    
   158   80   82 1    
   159   80  201 1    
   160   81  202 1    
   161   81  203 1    
   162   81  204 1    
   163   82   83 2    
   164   82   84 am   BACKBONE|DICT|INTERRES
   165   84   85 1    
   166   84  205 1    
   167   85   86 1    
   168   85   87 1    
   169   85  206 1    
   170   86  207 1    
   171   86  208 1    
   172   86  209 1    
   173   87   88 2    
   174   87   89 am   BACKBONE|DICT|INTERRES
   175   89   90 1    
   176   89  210 1    
   177   90   91 1    
   178   90   92 1    
   179   90  211 1    
   180   91  212 1    
   181   91  213 1    
   182   91  214 1    
   183   92   93 2    
   184   92   94 am   BACKBONE|DICT|INTERRES
   185   94   95 1    
   186   94  215 1    
   187   95   96 1    
   188   95   97 1    
   189   95  216 1    
   190   96  217 1    
   191   96  218 1    
   192   96  219 1    
   193   97   98 2    
   194   97   99 am   BACKBONE|DICT|INTERRES
   195   99  100 1    
   196   99  220 1    
   197  100  101 1    
   198  100  102 1    
   199  100  221 1    
   200  101  222 1    
   201  101  223 1    
   202  101  224 1    
   203  102  103 2    
   204  102  104 am   BACKBONE|DICT|INTERRES
   205  104  105 1    
   206  104  225 1    
   207  105  106 1    
   208  105  107 1    
   209  105  226 1    
   210  106  227 1    
   211  106  228 1    
   212  106  229 1    
   213  107  108 2    
   214  107  109 am   BACKBONE|DICT|INTERRES
   215  109  110 1    
   216  109  230 1    
   217  110  111 1    
   218  110  112 1    
   219  110  231 1    
   220  111  232 1    
   221  111  233 1    
   222  111  234 1    
   223  112  113 2    
   224  112  114 am   BACKBONE|DICT|INTERRES
   225  114  115 1    
   226  114  235 1    
   227  115  116 1    
   228  115  117 1    
   229  115  236 1    
   230  116  237 1    
   231  116  238 1    
   232  116  239 1    
   233  117  118 2    
   234  117  119 am   BACKBONE|DICT|INTERRES
   235  119  120 1    
   236  119  240 1    
   237  120  121 1    
   238  120  124 1    
   239  120  241 1    
   240  121  122 am   BACKBONE|DICT|INTERRES
   241  121  123 2    
   242  122  242 1    
   243  122  243 1    
   244  124  125 1    
   245  124  244 1    
   246  124  245 1    
   247  125  126 1    
   248  126  246 1    
   249  126  247 1    
@<TRIPOS>SUBSTRUCTURE
     1 UNK         1 GROUP             0       ****    0 ROOT    
