@<TRIPOS>MOLECULE
3R540
247   249    1
SMALL
USER_CHARGES


@<TRIPOS>ATOM
      1 CA         -3.3676   -9.2131  -49.2373 C.3       0 UNK        -0.1800 
      2 C          -2.7145  -10.5487  -48.9100 C.2       0 UNK         0.5000 
      3 O          -1.7974  -10.9709  -49.6148 O.2       0 UNK        -0.5000 
      4 N          -3.1888  -11.2155  -47.8509 N.am      1 UNK        -0.5000 
      5 CA         -2.6664  -12.4933  -47.3562 C.3       1 UNK         0.1400 
      6 C6         -3.6145  -13.1419  -46.3179 C.3       23 UNK        -0.0398 
      7 S7         -5.2521  -13.5201  -47.0291 S.3       23 UNK        -0.2404 
      8 C8         -5.1240  -15.3113  -47.3326 C.3       23 UNK        -0.0205 
      9 C9         -4.0195  -15.6546  -48.3224 C.ar      23 UNK        -0.0193 
     10 C10        -4.1733  -15.3625  -49.6806 C.ar      23 UNK        -0.1150 
     11 C11        -3.1696  -15.6931  -50.5959 C.ar      23 UNK        -0.0193 
     12 C12        -2.0070  -16.3249  -50.1447 C.ar      23 UNK        -0.1150 
     13 C13        -1.8447  -16.6283  -48.7903 C.ar      23 UNK        -0.0193 
     14 C14        -2.8497  -16.2803  -47.8827 C.ar      23 UNK        -0.1150 
     15 C15        -0.5895  -17.3432  -48.3124 C.3       23 UNK        -0.0205 
     16 S16        -0.6699  -19.1408  -48.5931 S.3       23 UNK        -0.2404 
     17 C17        -2.1758  -19.6235  -47.6821 C.3       23 UNK        -0.0398 
     18 CA         -2.1357  -21.1039  -47.2428 C.3       11 UNK         0.1400 
     19 N          -1.0780  -21.3778  -46.2637 N.am      11 UNK        -0.5000 
     20 C          -0.7086  -22.6025  -45.8596 C.2       10 UNK         0.5000 
     21 O          -1.1828  -23.6430  -46.3119 O.2       10 UNK        -0.5000 
     22 CA          0.3460  -22.6800  -44.7442 C.3       10 UNK         0.1400 
     23 CB          1.7661  -22.5738  -45.3220 C.3       10 UNK        -0.1800 
     24 N           0.1360  -21.6343  -43.7430 N.am      10 UNK        -0.5000 
     25 C          -0.7437  -21.7218  -42.7346 C.2       9 UNK         0.5000 
     26 O          -1.4131  -22.7274  -42.4990 O.2       9 UNK        -0.5000 
     27 CA         -0.9195  -20.4765  -41.8415 C.3       9 UNK         0.1400 
     28 CB          0.0234  -20.5451  -40.6307 C.3       9 UNK        -0.1800 
     29 N          -0.6919  -19.2164  -42.5498 N.am      9 UNK        -0.5000 
     30 C          -1.4761  -18.7395  -43.5266 C.2       8 UNK         0.5000 
     31 O          -2.5023  -19.2960  -43.9125 O.2       8 UNK        -0.5000 
     32 CA         -0.9962  -17.4652  -44.2471 C.3       8 UNK         0.1400 
     33 CB         -1.5664  -16.2074  -43.5783 C.3       8 UNK        -0.1800 
     34 N           0.4628  -17.3590  -44.3494 N.am      8 UNK        -0.5000 
     35 C           1.2601  -18.2789  -44.9147 C.2       7 UNK         0.5000 
     36 O           0.8335  -19.2964  -45.4581 O.2       7 UNK        -0.5000 
     37 CA          2.7788  -18.0671  -44.8093 C.3       7 UNK         0.1400 
     38 CB          3.3686  -17.5928  -46.1435 C.3       7 UNK        -0.1800 
     39 N           3.1404  -17.1175  -43.7589 N.am      7 UNK        -0.5000 
     40 C           3.1975  -17.4022  -42.4508 C.2       6 UNK         0.5000 
     41 O           2.9082  -18.5078  -41.9909 O.2       6 UNK        -0.5000 
     42 CA          3.6074  -16.2578  -41.4968 C.3       6 UNK         0.1400 
     43 CB          4.5081  -16.7446  -40.3434 C.3       6 UNK        -0.1800 
     44 N           4.1956  -15.0988  -42.1814 N.am      6 UNK        -0.5000 
     45 C           5.3497  -15.0358  -42.8665 C.2       5 UNK         0.5000 
     46 O           6.1557  -15.9637  -42.9379 O.2       5 UNK        -0.5000 
     47 CA          5.6329  -13.7376  -43.6509 C.3       5 UNK         0.1400 
     48 CB          5.6521  -14.0233  -45.1621 C.3       5 UNK        -0.1800 
     49 N           4.6336  -12.6993  -43.3953 N.am      5 UNK        -0.5000 
     50 C           4.6991  -11.7904  -42.4133 C.2       4 UNK         0.5000 
     51 O           5.6563  -11.6751  -41.6477 O.2       4 UNK        -0.5000 
     52 CA          3.4701  -10.8744  -42.2424 C.3       4 UNK         0.1400 
     53 CB          3.6638   -9.5636  -43.0196 C.3       4 UNK        -0.1800 
     54 N           2.2166  -11.5040  -42.6709 N.am      4 UNK        -0.5000 
     55 C           1.6468  -12.5605  -42.0730 C.2       3 UNK         0.5000 
     56 O           2.1113  -13.1131  -41.0768 O.2       3 UNK        -0.5000 
     57 CA          0.3833  -13.1374  -42.7329 C.3       3 UNK         0.1400 
     58 CB         -0.8834  -12.4859  -42.1606 C.3       3 UNK        -0.1800 
     59 N           0.3859  -12.9886  -44.1881 N.am      3 UNK        -0.5000 
     60 C           1.1814  -13.6530  -45.0341 C.2       2 UNK         0.5000 
     61 O           2.0073  -14.4899  -44.6604 O.2       2 UNK        -0.5000 
     62 CA          1.0166  -13.3215  -46.5356 C.3       2 UNK         0.1400 
     63 CB          1.7946  -14.2847  -47.4455 C.3       2 UNK        -0.1800 
     64 N          -0.3818  -13.2999  -46.9776 N.am      2 UNK        -0.5000 
     65 C          -1.2599  -12.3147  -46.7527 C.2       1 UNK         0.5000 
     66 O          -1.0065  -11.3214  -46.0656 O.2       1 UNK        -0.5000 
     67 C          -3.5189  -21.5742  -46.7465 C.2       11 UNK         0.5000 
     68 O          -4.2850  -22.1280  -47.5375 O.2       11 UNK        -0.5000 
     69 N          -3.7942  -21.4209  -45.4425 N.am      12 UNK        -0.5000 
     70 CA         -4.9899  -21.9007  -44.7377 C.3       12 UNK         0.1400 
     71 CB         -5.1015  -21.1595  -43.3934 C.3       12 UNK        -0.1800 
     72 C          -5.0386  -23.4402  -44.5696 C.2       12 UNK         0.5000 
     73 O          -5.3119  -23.9451  -43.4792 O.2       12 UNK        -0.5000 
     74 N          -4.7855  -24.1571  -45.6656 N.am      13 UNK        -0.5000 
     75 CA         -4.7990  -25.6069  -45.8004 C.3       13 UNK         0.1400 
     76 CB         -3.4691  -26.2046  -45.3023 C.3       13 UNK        -0.1800 
     77 C          -5.0948  -25.9223  -47.2736 C.2       13 UNK         0.5000 
     78 O          -4.2449  -26.4696  -47.9781 O.2       13 UNK        -0.5000 
     79 N          -6.2843  -25.4990  -47.7277 N.am      14 UNK        -0.5000 
     80 CA         -6.8099  -25.6429  -49.0916 C.3       14 UNK         0.1400 
     81 CB         -7.1030  -27.1260  -49.4037 C.3       14 UNK        -0.1800 
     82 C          -5.9039  -24.9764  -50.1475 C.2       14 UNK         0.5000 
     83 O          -5.5322  -25.6124  -51.1353 O.2       14 UNK        -0.5000 
     84 N          -5.5282  -23.7138  -49.8888 N.am      15 UNK        -0.5000 
     85 CA         -4.6122  -22.8944  -50.6934 C.3       15 UNK         0.1400 
     86 CB         -5.2370  -22.5781  -52.0687 C.3       15 UNK        -0.1800 
     87 C          -3.2060  -23.5242  -50.7860 C.2       15 UNK         0.5000 
     88 O          -2.6165  -23.5696  -51.8657 O.2       15 UNK        -0.5000 
     89 N          -2.7264  -24.0494  -49.6476 N.am      16 UNK        -0.5000 
     90 CA         -1.5042  -24.8449  -49.4774 C.3       16 UNK         0.1400 
     91 CB         -0.2481  -23.9696  -49.6773 C.3       16 UNK        -0.1800 
     92 C          -1.5062  -26.0979  -50.3774 C.2       16 UNK         0.5000 
     93 O          -0.5503  -26.3293  -51.1169 O.2       16 UNK        -0.5000 
     94 N          -2.6170  -26.8491  -50.3457 N.am      17 UNK        -0.5000 
     95 CA         -2.9422  -27.9727  -51.2345 C.3       17 UNK         0.1400 
     96 CB         -2.0649  -29.1971  -50.9028 C.3       17 UNK        -0.1800 
     97 C          -2.8903  -27.5728  -52.7280 C.2       17 UNK         0.5000 
     98 O          -2.3112  -28.2857  -53.5495 O.2       17 UNK        -0.5000 
     99 N          -3.4743  -26.4045  -53.0265 N.am      18 UNK        -0.5000 
    100 CA        -3.5262  -25.7059  -54.3146 C.3       18 UNK         0.1400 
    101 CB        -4.2910  -26.5411  -55.3618 C.3       18 UNK        -0.1800 
    102 C         -2.1686  -25.1945  -54.8500 C.2       18 UNK         0.5000 
    103 O         -2.1172  -24.7417  -55.9949 O.2       18 UNK        -0.5000 
    104 N         -1.0983  -25.2358  -54.0419 N.am      19 UNK        -0.5000 
    105 CA         0.2229  -24.7204  -54.4148 C.3       19 UNK         0.1400 
    106 CB         1.3009  -25.3672  -53.5330 C.3       19 UNK        -0.1800 
    107 C          0.3163  -23.1848  -54.3287 C.2       19 UNK         0.5000 
    108 O          1.1334  -22.5927  -55.0349 O.2       19 UNK        -0.5000 
    109 N         -0.5140  -22.5676  -53.4801 N.am      20 UNK        -0.5000 
    110 CA        -0.5983  -21.1271  -53.2604 C.3       20 UNK         0.1400 
    111 CB        -0.2600  -20.8212  -51.7907 C.3       20 UNK        -0.1800 
    112 C         -2.0042  -20.6535  -53.6608 C.2       20 UNK         0.5000 
    113 O         -2.7384  -20.1049  -52.8400 O.2       20 UNK        -0.5000 
    114 N         -2.3592  -20.9015  -54.9289 N.am      21 UNK        -0.5000 
    115 CA        -3.6707  -20.6240  -55.5254 C.3       21 UNK         0.1400 
    116 CB        -3.7691  -21.3915  -56.8539 C.3       21 UNK        -0.1800 
    117 C         -3.9970  -19.1271  -55.7308 C.2       21 UNK         0.5000 
    118 O         -5.1231  -18.8116  -56.1176 O.2       21 UNK        -0.5000 
    119 N         -3.0228  -18.2411  -55.4822 N.am      22 UNK        -0.5000 
    120 CA        -3.1241  -16.7696  -55.5543 C.3       22 UNK         0.1400 
    121 C         -3.1771  -16.1914  -57.0021 C.2       22 UNK         0.5000 
    122 N         -2.8934  -16.9700  -58.0392 N.am      22 UNK        -0.7600 
    123 O         -3.4475  -15.0085  -57.1922 O.2       22 UNK        -0.5000 
    124 C124       -4.2331  -16.1636  -54.6415 C.3       23 UNK        -0.0398 
    125 S125       -4.1805  -16.7634  -52.9170 S.3       23 UNK        -0.2404 
    126 C126       -3.3496  -15.3853  -52.0734 C.3       23 UNK        -0.0205 
    127 H127       -4.1698   -8.9718  -48.5393 H         1 UNK         0.0600 
    128 H128       -3.7879   -9.2372  -50.2427 H         1 UNK         0.0600 
    129 H129       -2.6280   -8.4136  -49.1947 H         1 UNK         0.0600 
    130 H130       -3.9386  -10.8132  -47.3076 H         1 UNK         0.3000 
    131 H131       -2.5810  -13.1649  -48.2131 H         1 UNK         0.0600 
    132 H132       -3.7601  -12.4764  -45.4650 H         1 UNK         0.0800 
    133 H133       -3.1830  -14.0581  -45.9110 H         1 UNK         0.0800 
    134 H134       -4.9712  -15.8275  -46.3834 H         1 UNK         0.0800 
    135 H135       -6.0771  -15.6708  -47.7228 H         1 UNK         0.0800 
    136 H136       -5.0784  -14.8821  -50.0253 H         1 UNK         0.1150 
    137 H137       -1.2362  -16.5997  -50.8512 H         1 UNK         0.1150 
    138 H138       -2.7331  -16.5117  -46.8347 H         1 UNK         0.1150 
    139 H139        0.2767  -16.9507  -48.8467 H         1 UNK         0.0800 
    140 H140       -0.4050  -17.1437  -47.2583 H         1 UNK         0.0800 
    141 H141       -3.0264  -19.4370  -48.3410 H         1 UNK         0.0800 
    142 H142       -2.3077  -18.9774  -46.8149 H         1 UNK         0.0800 
    143 H143       -1.9133  -21.6992  -48.1297 H         1 UNK         0.0600 
    144 H144       -0.5704  -20.5752  -45.9039 H         1 UNK         0.3000 
    145 H145        0.2549  -23.6567  -44.2639 H         1 UNK         0.0600 
    146 H146        2.5178  -22.6398  -44.5354 H         1 UNK         0.0600 
    147 H147        1.9582  -23.3855  -46.0248 H         1 UNK         0.0600 
    148 H148        1.9223  -21.6378  -45.8580 H         1 UNK         0.0600 
    149 H149        0.6009  -20.7523  -43.9133 H         1 UNK         0.3000 
    150 H150       -1.9482  -20.4767  -41.4748 H         1 UNK         0.0600 
    151 H151       -0.1354  -21.4629  -40.0630 H         1 UNK         0.0600 
    152 H152       -0.1455  -19.7099  -39.9508 H         1 UNK         0.0600 
    153 H153        1.0708  -20.5236  -40.9351 H         1 UNK         0.0600 
    154 H154        0.1506  -18.7114  -42.3147 H         1 UNK         0.3000 
    155 H155       -1.3923  -17.5111  -45.2591 H         1 UNK         0.0600 
    156 H156       -2.6532  -16.2644  -43.5028 H         1 UNK         0.0600 
    157 H157       -1.3327  -15.3139  -44.1561 H         1 UNK         0.0600 
    158 H158       -1.1751  -16.0759  -42.5691 H         1 UNK         0.0600 
    159 H159        0.8978  -16.5365  -43.9557 H         1 UNK         0.3000 
    160 H160        3.2210  -19.0377  -44.5744 H         1 UNK         0.0600 
    161 H161        3.0515  -16.5804  -46.3825 H         1 UNK         0.0600 
    162 H162        3.0618  -18.2412  -46.9656 H         1 UNK         0.0600 
    163 H163        4.4583  -17.5985  -46.1125 H         1 UNK         0.0600 
    164 H164        3.2993  -16.1612  -44.0509 H         1 UNK         0.3000 
    165 H165        2.6782  -15.8980  -41.0530 H         1 UNK         0.0600 
    166 H166        5.4263  -17.2044  -40.7093 H         1 UNK         0.0600 
    167 H167        4.7831  -15.9214  -39.6840 H         1 UNK         0.0600 
    168 H168        3.9940  -17.4886  -39.7339 H         1 UNK         0.0600 
    169 H169        3.6223  -14.2653  -42.1592 H         1 UNK         0.3000 
    170 H170        6.6216  -13.3800  -43.3558 H         1 UNK         0.0600 
    171 H171        6.4221  -14.7537  -45.4140 H         1 UNK         0.0600 
    172 H172        4.6982  -14.4218  -45.5089 H         1 UNK         0.0600 
    173 H173        5.8660  -13.1192  -45.7325 H         1 UNK         0.0600 
    174 H174        3.8018  -12.7304  -43.9668 H         1 UNK         0.3000 
    175 H175        3.3828  -10.6344  -41.1806 H         1 UNK         0.0600 
    176 H176        3.7366   -9.7387  -44.0937 H         1 UNK         0.0600 
    177 H177        2.8359   -8.8758  -42.8460 H         1 UNK         0.0600 
    178 H178        4.5772   -9.0556  -42.7071 H         1 UNK         0.0600 
    179 H179        1.7660  -11.1128  -43.4853 H         1 UNK         0.3000 
    180 H180        0.3557  -14.2027  -42.4983 H         1 UNK         0.0600 
    181 H181       -0.9250  -11.4195  -42.3860 H         1 UNK         0.0600 
    182 H182       -0.9240  -12.5958  -41.0761 H         1 UNK         0.0600 
    183 H183       -1.7820  -12.9501  -42.5677 H         1 UNK         0.0600 
    184 H184       -0.2456  -12.2997  -44.5864 H         1 UNK         0.3000 
    185 H185        1.4377  -12.3245  -46.6801 H         1 UNK         0.0600 
    186 H186        2.8561  -14.2938  -47.1962 H         1 UNK         0.0600 
    187 H187        1.4190  -15.3035  -47.3574 H         1 UNK         0.0600 
    188 H188        1.7150  -13.9892  -48.4918 H         1 UNK         0.0600 
    189 H189       -0.6765  -14.0904  -47.5320 H         1 UNK         0.3000 
    190 H190       -3.1241  -20.9182  -44.8690 H         1 UNK         0.3000 
    191 H191       -5.8614  -21.6267  -45.3355 H         1 UNK         0.0600 
    192 H192       -4.2511  -21.3773  -42.7459 H         1 UNK         0.0600 
    193 H193       -5.1420  -20.0802  -43.5411 H         1 UNK         0.0600 
    194 H194       -6.0080  -21.4439  -42.8577 H         1 UNK         0.0600 
    195 H195       -4.5842  -23.6342  -46.5138 H         1 UNK         0.3000 
    196 H196       -5.6146  -26.0202  -45.2037 H         1 UNK         0.0600 
    197 H197       -3.2917  -25.9607  -44.2548 H         1 UNK         0.0600 
    198 H198       -2.6210  -25.8351  -45.8788 H         1 UNK         0.0600 
    199 H199       -3.4754  -27.2917  -45.3877 H         1 UNK         0.0600 
    200 H200       -6.8953  -25.0275  -47.0750 H         1 UNK         0.3000 
    201 H201       -7.7594  -25.1066  -49.1204 H         1 UNK         0.0600 
    202 H202       -7.5874  -27.2319  -50.3751 H         1 UNK         0.0600 
    203 H203       -7.7708  -27.5604  -48.6600 H         1 UNK         0.0600 
    204 H204       -6.1922  -27.7253  -49.4268 H         1 UNK         0.0600 
    205 H205       -5.8417  -23.2854  -49.0281 H         1 UNK         0.3000 
    206 H206       -4.4861  -21.9457  -50.1706 H         1 UNK         0.0600 
    207 H207       -6.2020  -22.0844  -51.9564 H         1 UNK         0.0600 
    208 H208       -5.3890  -23.4738  -52.6691 H         1 UNK         0.0600 
    209 H209       -4.5992  -21.9090  -52.6419 H         1 UNK         0.0600 
    210 H210       -3.3082  -23.9727  -48.8257 H         1 UNK         0.3000 
    211 H211       -1.5048  -25.2053  -48.4482 H         1 UNK         0.0600 
    212 H212       -0.2620  -23.0947  -49.0292 H         1 UNK         0.0600 
    213 H213        0.6563  -24.5305  -49.4399 H         1 UNK         0.0600 
    214 H214       -0.1541  -23.6236  -50.7064 H         1 UNK         0.0600 
    215 H215       -3.3365  -26.6014  -49.6706 H         1 UNK         0.3000 
    216 H216       -3.9789  -28.2396  -51.0239 H         1 UNK         0.0600 
    217 H217       -2.3757  -30.0680  -51.4809 H         1 UNK         0.0600 
    218 H218       -1.0131  -29.0149  -51.1253 H         1 UNK         0.0600 
    219 H219       -2.1435  -29.4628  -49.8486 H         1 UNK         0.0600 
    220 H220       -3.9579  -25.9295  -52.2690 H         1 UNK         0.3000 
    221 H221       -4.1144  -24.8073  -54.1299 H         1 UNK         0.0600 
    222 H222       -3.7323  -27.4287  -55.6594 H         1 UNK         0.0600 
    223 H223       -5.2583  -26.8650  -54.9774 H         1 UNK         0.0600 
    224 H224       -4.4821  -25.9596  -56.2644 H         1 UNK         0.0600 
    225 H225       -1.1993  -25.6009  -53.1019 H         1 UNK         0.3000 
    226 H226        0.4256  -25.0081  -55.4487 H         1 UNK         0.0600 
    227 H227        1.2189  -26.4543  -53.5361 H         1 UNK         0.0600 
    228 H228        2.2987  -25.1136  -53.8927 H         1 UNK         0.0600 
    229 H229        1.2337  -25.0258  -52.4998 H         1 UNK         0.0600 
    230 H230       -1.2010  -23.1200  -52.9686 H         1 UNK         0.3000 
    231 H231        0.1153  -20.5919  -53.8896 H         1 UNK         0.0600 
    232 H232       -0.2769  -19.7467  -51.6050 H         1 UNK         0.0600 
    233 H233        0.7353  -21.1808  -51.5304 H         1 UNK         0.0600 
    234 H234       -0.9721  -21.2831  -51.1059 H         1 UNK         0.0600 
    235 H235       -1.6919  -21.3712  -55.5242 H         1 UNK         0.3000 
    236 H236       -4.4339  -21.0195  -54.8533 H         1 UNK         0.0600 
    237 H237       -3.6364  -22.4627  -56.7009 H         1 UNK         0.0600 
    238 H238       -4.7460  -21.2528  -57.3187 H         1 UNK         0.0600 
    239 H239       -3.0151  -21.0577  -57.5676 H         1 UNK         0.0600 
    240 H240       -2.1332  -18.6021  -55.1731 H         1 UNK         0.3000 
    241 H241       -2.1726  -16.4104  -55.1613 H         1 UNK         0.0600 
    242 H242       -2.9189  -16.5857  -58.9709 H         1 UNK         0.3800 
    243 H243       -2.6605  -17.9403  -57.9024 H         1 UNK         0.3800 
    244 H244       -4.1658  -15.0746  -54.6330 H         1 UNK         0.0800 
    245 H245       -5.2207  -16.3922  -55.0439 H         1 UNK         0.0800 
    246 H246       -3.9346  -14.4725  -52.1967 H         1 UNK         0.0800 
    247 H247       -2.3809  -15.2017  -52.5409 H         1 UNK         0.0800 
@<TRIPOS>BOND
     1    1    2 1    
     2    1  127 1    
     3    1  128 1    
     4    1  129 1    
     5    2    3 2    
     6    2    4 am   BACKBONE|DICT|INTERRES
     7    4    5 1    
     8    4  130 1    
     9    5    6 1    
    10    5   65 1    
    11    5  131 1    
    12    6    7 1    
    13    6  132 1    
    14    6  133 1    
    15    7    8 1    
    16    8    9 1    
    17    8  134 1    
    18    8  135 1    
    19    9   10 ar   
    20    9   14 ar   
    21   10   11 ar   
    22   10  136 1    
    23   11   12 ar   
    24   11  126 1    
    25   12   13 ar   
    26   12  137 1    
    27   13   14 ar   
    28   13   15 1    
    29   14  138 1    
    30   15   16 1    
    31   15  139 1    
    32   15  140 1    
    33   16   17 1    
    34   17   18 1    
    35   17  141 1    
    36   17  142 1    
    37   18   19 1    
    38   18   67 1    
    39   18  143 1    
    40   19   20 am   BACKBONE|DICT|INTERRES
    41   19  144 1    
    42   20   21 2    
    43   20   22 1    
    44   22   23 1    
    45   22   24 1    
    46   22  145 1    
    47   23  146 1    
    48   23  147 1    
    49   23  148 1    
    50   24   25 am   BACKBONE|DICT|INTERRES
    51   24  149 1    
    52   25   26 2    
    53   25   27 1    
    54   27   28 1    
    55   27   29 1    
    56   27  150 1    
    57   28  151 1    
    58   28  152 1    
    59   28  153 1    
    60   29   30 am   BACKBONE|DICT|INTERRES
    61   29  154 1    
    62   30   31 2    
    63   30   32 1    
    64   32   33 1    
    65   32   34 1    
    66   32  155 1    
    67   33  156 1    
    68   33  157 1    
    69   33  158 1    
    70   34   35 am   BACKBONE|DICT|INTERRES
    71   34  159 1    
    72   35   36 2    
    73   35   37 1    
    74   37   38 1    
    75   37   39 1    
    76   37  160 1    
    77   38  161 1    
    78   38  162 1    
    79   38  163 1    
    80   39   40 am   BACKBONE|DICT|INTERRES
    81   39  164 1    
    82   40   41 2    
    83   40   42 1    
    84   42   43 1    
    85   42   44 1    
    86   42  165 1    
    87   43  166 1    
    88   43  167 1    
    89   43  168 1    
    90   44   45 am   BACKBONE|DICT|INTERRES
    91   44  169 1    
    92   45   46 2    
    93   45   47 1    
    94   47   48 1    
    95   47   49 1    
    96   47  170 1    
    97   48  171 1    
    98   48  172 1    
    99   48  173 1    
   100   49   50 am   BACKBONE|DICT|INTERRES
   101   49  174 1    
   102   50   51 2    
   103   50   52 1    
   104   52   53 1    
   105   52   54 1    
   106   52  175 1    
   107   53  176 1    
   108   53  177 1    
   109   53  178 1    
   110   54   55 am   BACKBONE|DICT|INTERRES
   111   54  179 1    
   112   55   56 2    
   113   55   57 1    
   114   57   58 1    
   115   57   59 1    
   116   57  180 1    
   117   58  181 1    
   118   58  182 1    
   119   58  183 1    
   120   59   60 am   BACKBONE|DICT|INTERRES
   121   59  184 1    
   122   60   61 2    
   123   60   62 1    
   124   62   63 1    
   125   62   64 1    
   126   62  185 1    
   127   63  186 1    
   128   63  187 1    
   129   63  188 1    
   130   64   65 am   BACKBONE|DICT|INTERRES
   131   64  189 1    
   132   65   66 2    
   133   67   68 2    
   134   67   69 am   BACKBONE|DICT|INTERRES
   135   69   70 1    
   136   69  190 1    
   137   70   71 1    
   138   70   72 1    
   139   70  191 1    
   140   71  192 1    
   141   71  193 1    
   142   71  194 1    
   143   72   73 2    
   144   72   74 am   BACKBONE|DICT|INTERRES
   145   74   75 1    
   146   74  195 1    
   147   75   76 1    
   148   75   77 1    
   149   75  196 1    
   150   76  197 1    
   151   76  198 1    
   152   76  199 1    
   153   77   78 2    
   154   77   79 am   BACKBONE|DICT|INTERRES
   155   79   80 1    
   156   79  200 1    
   157   80   81 1    
   158   80   82 1    
   159   80  201 1    
   160   81  202 1    
   161   81  203 1    
   162   81  204 1    
   163   82   83 2    
   164   82   84 am   BACKBONE|DICT|INTERRES
   165   84   85 1    
   166   84  205 1    
   167   85   86 1    
   168   85   87 1    
   169   85  206 1    
   170   86  207 1    
   171   86  208 1    
   172   86  209 1    
   173   87   88 2    
   174   87   89 am   BACKBONE|DICT|INTERRES
   175   89   90 1    
   176   89  210 1    
   177   90   91 1    
   178   90   92 1    
   179   90  211 1    
   180   91  212 1    
   181   91  213 1    
   182   91  214 1    
   183   92   93 2    
   184   92   94 am   BACKBONE|DICT|INTERRES
   185   94   95 1    
   186   94  215 1    
   187   95   96 1    
   188   95   97 1    
   189   95  216 1    
   190   96  217 1    
   191   96  218 1    
   192   96  219 1    
   193   97   98 2    
   194   97   99 am   BACKBONE|DICT|INTERRES
   195   99  100 1    
   196   99  220 1    
   197  100  101 1    
   198  100  102 1    
   199  100  221 1    
   200  101  222 1    
   201  101  223 1    
   202  101  224 1    
   203  102  103 2    
   204  102  104 am   BACKBONE|DICT|INTERRES
   205  104  105 1    
   206  104  225 1    
   207  105  106 1    
   208  105  107 1    
   209  105  226 1    
   210  106  227 1    
   211  106  228 1    
   212  106  229 1    
   213  107  108 2    
   214  107  109 am   BACKBONE|DICT|INTERRES
   215  109  110 1    
   216  109  230 1    
   217  110  111 1    
   218  110  112 1    
   219  110  231 1    
   220  111  232 1    
   221  111  233 1    
   222  111  234 1    
   223  112  113 2    
   224  112  114 am   BACKBONE|DICT|INTERRES
   225  114  115 1    
   226  114  235 1    
   227  115  116 1    
   228  115  117 1    
   229  115  236 1    
   230  116  237 1    
   231  116  238 1    
   232  116  239 1    
   233  117  118 2    
   234  117  119 am   BACKBONE|DICT|INTERRES
   235  119  120 1    
   236  119  240 1    
   237  120  121 1    
   238  120  124 1    
   239  120  241 1    
   240  121  122 am   BACKBONE|DICT|INTERRES
   241  121  123 2    
   242  122  242 1    
   243  122  243 1    
   244  124  125 1    
   245  124  244 1    
   246  124  245 1    
   247  125  126 1    
   248  126  246 1    
   249  126  247 1    
@<TRIPOS>SUBSTRUCTURE
     1 UNK         1 GROUP             0       ****    0 ROOT    
