@<TRIPOS>MOLECULE
3R540
247   249    1
SMALL
USER_CHARGES


@<TRIPOS>ATOM
      1 CA         -1.1594   -9.7493  -47.2883 C.3       0 UNK        -0.1800 
      2 C          -0.1970  -10.8631  -46.9040 C.2       0 UNK         0.5000 
      3 O          -0.0433  -11.1553  -45.7191 O.2       0 UNK        -0.5000 
      4 N           0.4701  -11.4681  -47.8978 N.am      1 UNK        -0.5000 
      5 CA          1.3807  -12.6228  -47.7808 C.3       1 UNK         0.1400 
      6 C6          0.6716  -13.9169  -47.2903 C.3       23 UNK        -0.0398 
      7 S7         -0.7988  -14.3811  -48.2637 S.3       23 UNK        -0.2404 
      8 C8         -0.7612  -16.1932  -48.0985 C.3       23 UNK        -0.0205 
      9 C9          0.0272  -16.8498  -49.2212 C.ar      23 UNK        -0.0193 
     10 C10        -0.6063  -17.1407  -50.4318 C.ar      23 UNK        -0.1150 
     11 C11         0.0835  -17.7573  -51.4798 C.ar      23 UNK        -0.0193 
     12 C12         1.4383  -18.0685  -51.3014 C.ar      23 UNK        -0.1150 
     13 C13         2.0842  -17.8007  -50.0897 C.ar      23 UNK        -0.0193 
     14 C14         1.3732  -17.1855  -49.0535 C.ar      23 UNK        -0.1150 
     15 C15         3.5569  -18.1635  -49.9225 C.3       23 UNK        -0.0205 
     16 S16         3.9030  -19.1635  -48.4366 S.3       23 UNK        -0.2404 
     17 C17         2.7458  -20.5617  -48.6328 C.3       23 UNK        -0.0398 
     18 CA          3.2141  -21.8380  -47.8873 C.3       11 UNK         0.1400 
     19 N           3.2979  -21.6291  -46.4364 N.am      11 UNK        -0.5000 
     20 C           3.9849  -22.4034  -45.5865 C.2       10 UNK         0.5000 
     21 O           4.6408  -23.3857  -45.9354 O.2       10 UNK        -0.5000 
     22 CA          3.9116  -22.0320  -44.0929 C.3       10 UNK         0.1400 
     23 CB          4.8881  -20.8927  -43.7630 C.3       10 UNK        -0.1800 
     24 N           2.5615  -21.6637  -43.6606 N.am      10 UNK        -0.5000 
     25 C           1.5326  -22.5193  -43.5754 C.2       9 UNK         0.5000 
     26 O           1.6170  -23.7186  -43.8404 O.2       9 UNK        -0.5000 
     27 CA          0.1700  -21.9374  -43.1518 C.3       9 UNK         0.1400 
     28 CB          0.0856  -21.8011  -41.6245 C.3       9 UNK        -0.1800 
     29 N          -0.1191  -20.6455  -43.7729 N.am      9 UNK        -0.5000 
     30 C          -0.2596  -20.4544  -45.0913 C.2       8 UNK         0.5000 
     31 O          -0.2049  -21.3592  -45.9226 O.2       8 UNK        -0.5000 
     32 CA         -0.4295  -19.0032  -45.5710 C.3       8 UNK         0.1400 
     33 CB         -1.8788  -18.5342  -45.3762 C.3       8 UNK        -0.1800 
     34 N           0.4980  -18.0794  -44.9149 N.am      8 UNK        -0.5000 
     35 C           1.8333  -18.2008  -44.9545 C.2       7 UNK         0.5000 
     36 O           2.4158  -19.0992  -45.5549 O.2       7 UNK        -0.5000 
     37 CA          2.6580  -17.1923  -44.1430 C.3       7 UNK         0.1400 
     38 CB          2.7862  -15.8638  -44.8938 C.3       7 UNK        -0.1800 
     39 N           2.0922  -16.9748  -42.8140 N.am      7 UNK        -0.5000 
     40 C           2.0734  -17.9075  -41.8514 C.2       6 UNK         0.5000 
     41 O           2.6102  -19.0113  -41.9530 O.2       6 UNK        -0.5000 
     42 CA          1.2634  -17.5688  -40.5894 C.3       6 UNK         0.1400 
     43 CB          2.0946  -16.7289  -39.6080 C.3       6 UNK        -0.1800 
     44 N           0.0186  -16.8714  -40.9190 N.am      6 UNK        -0.5000 
     45 C          -1.0203  -17.4602  -41.5302 C.2       5 UNK         0.5000 
     46 O          -1.0390  -18.6506  -41.8425 O.2       5 UNK        -0.5000 
     47 CA         -2.2314  -16.5770  -41.8808 C.3       5 UNK         0.1400 
     48 CB         -3.2490  -16.5827  -40.7307 C.3       5 UNK        -0.1800 
     49 N          -1.8853  -15.1943  -42.2082 N.am      5 UNK        -0.5000 
     50 C          -1.1298  -14.8047  -43.2442 C.2       4 UNK         0.5000 
     51 O          -0.6053  -15.5882  -44.0365 O.2       4 UNK        -0.5000 
     52 CA         -0.9166  -13.2865  -43.4286 C.3       4 UNK         0.1400 
     53 CB         -1.7217  -12.4135  -42.4406 C.3       4 UNK        -0.1800 
     54 N           0.4927  -12.8756  -43.3975 N.am      4 UNK        -0.5000 
     55 C           1.4099  -13.1903  -42.4691 C.2       3 UNK         0.5000 
     56 O           1.2130  -14.0092  -41.5697 O.2       3 UNK        -0.5000 
     57 CA          2.7623  -12.4535  -42.5353 C.3       3 UNK         0.1400 
     58 CB          3.9250  -13.2755  -41.9463 C.3       3 UNK        -0.1800 
     59 N           3.0965  -12.0122  -43.8919 N.am      3 UNK        -0.5000 
     60 C           3.6541  -10.8353  -44.2066 C.2       2 UNK         0.5000 
     61 O           3.9401   -9.9783  -43.3692 O.2       2 UNK        -0.5000 
     62 CA          3.9303  -10.5329  -45.6975 C.3       2 UNK         0.1400 
     63 CB          5.3585  -10.9521  -46.0966 C.3       2 UNK        -0.1800 
     64 N           2.9234  -11.0632  -46.6285 N.am      2 UNK        -0.5000 
     65 C           2.6439  -12.3396  -46.9279 C.2       1 UNK         0.5000 
     66 O           3.3157  -13.2819  -46.5125 O.2       1 UNK        -0.5000 
     67 C           2.3056  -23.0293  -48.2656 C.2       11 UNK         0.5000 
     68 O           2.4180  -23.5229  -49.3867 O.2       11 UNK        -0.5000 
     69 N           1.4222  -23.4485  -47.3449 N.am      12 UNK        -0.5000 
     70 CA          0.3121  -24.3929  -47.5328 C.3       12 UNK         0.1400 
     71 CB          0.8035  -25.7872  -47.9741 C.3       12 UNK        -0.1800 
     72 C          -0.7922  -23.8098  -48.4430 C.2       12 UNK         0.5000 
     73 O          -1.4473  -24.5391  -49.1886 O.2       12 UNK        -0.5000 
     74 N          -0.9883  -22.4917  -48.3249 N.am      13 UNK        -0.5000 
     75 CA         -1.9627  -21.6742  -49.0418 C.3       13 UNK         0.1400 
     76 CB         -1.2457  -20.4112  -49.5432 C.3       13 UNK        -0.1800 
     77 C          -3.1677  -21.3103  -48.1518 C.2       13 UNK         0.5000 
     78 O          -3.9873  -20.4851  -48.5499 O.2       13 UNK        -0.5000 
     79 N          -3.2650  -21.9275  -46.9657 N.am      14 UNK        -0.5000 
     80 CA         -4.3573  -21.7583  -46.0025 C.3       14 UNK         0.1400 
     81 CB         -3.8731  -22.2513  -44.6289 C.3       14 UNK        -0.1800 
     82 C          -5.6702  -22.4632  -46.4150 C.2       14 UNK         0.5000 
     83 O          -6.6885  -22.2813  -45.7457 O.2       14 UNK        -0.5000 
     84 N          -5.6253  -23.2601  -47.4921 N.am      15 UNK        -0.5000 
     85 CA         -6.7635  -23.9291  -48.1241 C.3       15 UNK         0.1400 
     86 CB         -6.2189  -24.8446  -49.2339 C.3       15 UNK        -0.1800 
     87 C          -7.7972  -22.9441  -48.7093 C.2       15 UNK         0.5000 
     88 O          -7.4888  -21.7678  -48.9196 O.2       15 UNK        -0.5000 
     89 N          -8.9994  -23.4571  -49.0071 N.am      16 UNK        -0.5000 
     90 CA        -10.0880  -22.7296  -49.6663 C.3       16 UNK         0.1400 
     91 CB        -11.3035  -23.6577  -49.8126 C.3       16 UNK        -0.1800 
     92 C          -9.6487  -22.1806  -51.0368 C.2       16 UNK         0.5000 
     93 O          -9.1875  -22.9543  -51.8798 O.2       16 UNK        -0.5000 
     94 N          -9.7268  -20.8507  -51.1960 N.am      17 UNK        -0.5000 
     95 CA         -9.2375  -20.0665  -52.3408 C.3       17 UNK         0.1400 
     96 CB        -10.1012  -20.3428  -53.5894 C.3       17 UNK        -0.1800 
     97 C          -7.7271  -20.2563  -52.6186 C.2       17 UNK         0.5000 
     98 O          -7.2913  -20.1283  -53.7644 O.2       17 UNK        -0.5000 
     99 N          -6.9635  -20.6232  -51.5758 N.am      18 UNK        -0.5000 
    100 CA        -5.5577  -21.0403  -51.6024 C.3       18 UNK         0.1400 
    101 CB        -4.6443  -19.8410  -51.9240 C.3       18 UNK        -0.1800 
    102 C         -5.2999  -22.2492  -52.5276 C.2       18 UNK         0.5000 
    103 O         -4.2050  -22.3775  -53.0779 O.2       18 UNK        -0.5000 
    104 N         -6.3312  -23.0830  -52.7421 N.am      19 UNK        -0.5000 
    105 CA        -6.3951  -24.1856  -53.7105 C.3       19 UNK         0.1400 
    106 CB        -5.4278  -25.3169  -53.3047 C.3       19 UNK        -0.1800 
    107 C         -6.1925  -23.7402  -55.1798 C.2       19 UNK         0.5000 
    108 O         -5.9143  -24.5815  -56.0351 O.2       19 UNK        -0.5000 
    109 N         -6.3108  -22.4270  -55.4403 N.am      20 UNK        -0.5000 
    110 CA        -6.0484  -21.7198  -56.6974 C.3       20 UNK         0.1400 
    111 CB        -7.0772  -22.1280  -57.7721 C.3       20 UNK        -0.1800 
    112 C         -4.5894  -21.8278  -57.2024 C.2       20 UNK         0.5000 
    113 O         -4.3412  -21.5509  -58.3777 O.2       20 UNK        -0.5000 
    114 N         -3.6478  -22.2216  -56.3312 N.am      21 UNK        -0.5000 
    115 CA        -2.2591  -22.5176  -56.7011 C.3       21 UNK         0.1400 
    116 CB        -2.1813  -23.9449  -57.2812 C.3       21 UNK        -0.1800 
    117 C         -1.2620  -22.3164  -55.5429 C.2       21 UNK         0.5000 
    118 O         -0.1280  -22.7881  -55.6420 O.2       21 UNK        -0.5000 
    119 N         -1.6862  -21.6363  -54.4696 N.am      22 UNK        -0.5000 
    120 CA        -0.9463  -21.4800  -53.2042 C.3       22 UNK         0.1400 
    121 C         -0.7479  -22.8306  -52.4551 C.2       22 UNK         0.5000 
    122 N         -1.8010  -23.6220  -52.3064 N.am      22 UNK        -0.7600 
    123 O          0.3436  -23.1624  -52.0043 O.2       22 UNK        -0.5000 
    124 C124        0.3662  -20.6537  -53.3177 C.3       23 UNK        -0.0398 
    125 S125        0.1653  -19.0023  -54.0732 S.3       23 UNK        -0.2404 
    126 C126       -0.6924  -18.0474  -52.7688 C.3       23 UNK        -0.0205 
    127 H127       -1.1843   -9.5882  -48.3663 H         1 UNK         0.0600 
    128 H128       -0.8627   -8.8158  -46.8104 H         1 UNK         0.0600 
    129 H129       -2.1680   -9.9974  -46.9579 H         1 UNK         0.0600 
    130 H130        0.3031  -11.1597  -48.8457 H         1 UNK         0.3000 
    131 H131        1.7484  -12.8148  -48.7898 H         1 UNK         0.0600 
    132 H132        0.3657  -13.8206  -46.2479 H         1 UNK         0.0800 
    133 H133        1.3703  -14.7530  -47.3252 H         1 UNK         0.0800 
    134 H134       -0.3475  -16.4649  -47.1271 H         1 UNK         0.0800 
    135 H135       -1.7859  -16.5680  -48.1058 H         1 UNK         0.0800 
    136 H136       -1.6497  -16.8864  -50.5571 H         1 UNK         0.1150 
    137 H137        2.0025  -18.5228  -52.1018 H         1 UNK         0.1150 
    138 H138        1.8693  -16.9762  -48.1164 H         1 UNK         0.1150 
    139 H139        3.9232  -18.7065  -50.7950 H         1 UNK         0.0800 
    140 H140        4.1391  -17.2430  -49.8679 H         1 UNK         0.0800 
    141 H141        1.7631  -20.2478  -48.2756 H         1 UNK         0.0800 
    142 H142        2.6360  -20.7613  -49.7007 H         1 UNK         0.0800 
    143 H143        4.2156  -22.0840  -48.2468 H         1 UNK         0.0600 
    144 H144        2.8513  -20.7858  -46.0779 H         1 UNK         0.3000 
    145 H145        4.2172  -22.9097  -43.5193 H         1 UNK         0.0600 
    146 H146        4.8868  -20.6690  -42.6961 H         1 UNK         0.0600 
    147 H147        4.6361  -19.9761  -44.2964 H         1 UNK         0.0600 
    148 H148        5.9084  -21.1618  -44.0385 H         1 UNK         0.0600 
    149 H149        2.4130  -20.6927  -43.4127 H         1 UNK         0.3000 
    150 H150       -0.6027  -22.6393  -43.4725 H         1 UNK         0.0600 
    151 H151        0.8055  -21.0751  -41.2450 H         1 UNK         0.0600 
    152 H152       -0.9083  -21.4791  -41.3132 H         1 UNK         0.0600 
    153 H153        0.2878  -22.7541  -41.1340 H         1 UNK         0.0600 
    154 H154       -0.2254  -19.8525  -43.1465 H         1 UNK         0.3000 
    155 H155       -0.2017  -18.9763  -46.6375 H         1 UNK         0.0600 
    156 H156       -2.5574  -19.1089  -46.0065 H         1 UNK         0.0600 
    157 H157       -2.0029  -17.4842  -45.6394 H         1 UNK         0.0600 
    158 H158       -2.2082  -18.6615  -44.3457 H         1 UNK         0.0600 
    159 H159        0.0933  -17.2792  -44.4348 H         1 UNK         0.3000 
    160 H160        3.6614  -17.6067  -44.0244 H         1 UNK         0.0600 
    161 H161        1.8424  -15.3225  -44.9283 H         1 UNK         0.0600 
    162 H162        3.1109  -16.0275  -45.9224 H         1 UNK         0.0600 
    163 H163        3.5275  -15.2171  -44.4290 H         1 UNK         0.0600 
    164 H164        1.5941  -16.1088  -42.6564 H         1 UNK         0.3000 
    165 H165        1.0075  -18.5084  -40.0948 H         1 UNK         0.0600 
    166 H166        1.5289  -16.5031  -38.7040 H         1 UNK         0.0600 
    167 H167        2.9933  -17.2666  -39.3036 H         1 UNK         0.0600 
    168 H168        2.4147  -15.7848  -40.0486 H         1 UNK         0.0600 
    169 H169       -0.0057  -15.8732  -40.7549 H         1 UNK         0.3000 
    170 H170       -2.7128  -17.0104  -42.7587 H         1 UNK         0.0600 
    171 H171       -3.5484  -17.6012  -40.4793 H         1 UNK         0.0600 
    172 H172       -2.8388  -16.1287  -39.8277 H         1 UNK         0.0600 
    173 H173       -4.1536  -16.0375  -41.0006 H         1 UNK         0.0600 
    174 H174       -2.2585  -14.4821  -41.5979 H         1 UNK         0.3000 
    175 H175       -1.2840  -13.0660  -44.4311 H         1 UNK         0.0600 
    176 H176       -1.3980  -12.5574  -41.4089 H         1 UNK         0.0600 
    177 H177       -1.6014  -11.3559  -42.6765 H         1 UNK         0.0600 
    178 H178       -2.7897  -12.6285  -42.4954 H         1 UNK         0.0600 
    179 H179        0.7355  -12.1938  -44.1082 H         1 UNK         0.3000 
    180 H180        2.6283  -11.5761  -41.8997 H         1 UNK         0.0600 
    181 H181        3.7370  -13.5300  -40.9026 H         1 UNK         0.0600 
    182 H182        4.8589  -12.7141  -41.9753 H         1 UNK         0.0600 
    183 H183        4.0789  -14.2086  -42.4857 H         1 UNK         0.0600 
    184 H184        2.9458  -12.6768  -44.6437 H         1 UNK         0.3000 
    185 H185        3.8729   -9.4484  -45.8040 H         1 UNK         0.0600 
    186 H186        6.0979  -10.4303  -45.4879 H         1 UNK         0.0600 
    187 H187        5.5268  -12.0205  -45.9603 H         1 UNK         0.0600 
    188 H188        5.5652  -10.7086  -47.1387 H         1 UNK         0.0600 
    189 H189        2.2846  -10.3721  -46.9964 H         1 UNK         0.3000 
    190 H190        1.4159  -22.9543  -46.4616 H         1 UNK         0.3000 
    191 H191       -0.1429  -24.5087  -46.5480 H         1 UNK         0.0600 
    192 H192       -0.0065  -26.5157  -47.9260 H         1 UNK         0.0600 
    193 H193        1.6031  -26.1470  -47.3268 H         1 UNK         0.0600 
    194 H194        1.1737  -25.7847  -48.9995 H         1 UNK         0.0600 
    195 H195       -0.4689  -22.0096  -47.5939 H         1 UNK         0.3000 
    196 H196       -2.3509  -22.2199  -49.9029 H         1 UNK         0.0600 
    197 H197       -1.9098  -19.7926  -50.1459 H         1 UNK         0.0600 
    198 H198       -0.3844  -20.6637  -50.1610 H         1 UNK         0.0600 
    199 H199       -0.8894  -19.7962  -48.7177 H         1 UNK         0.0600 
    200 H200       -2.5309  -22.5700  -46.7068 H         1 UNK         0.3000 
    201 H201       -4.5811  -20.6928  -45.9205 H         1 UNK         0.0600 
    202 H202       -4.6451  -22.1206  -43.8695 H         1 UNK         0.0600 
    203 H203       -2.9982  -21.6933  -44.2955 H         1 UNK         0.0600 
    204 H204       -3.6097  -23.3094  -44.6510 H         1 UNK         0.0600 
    205 H205       -4.7419  -23.3378  -47.9711 H         1 UNK         0.3000 
    206 H206       -7.2609  -24.5398  -47.3680 H         1 UNK         0.0600 
    207 H207       -5.5256  -25.5837  -48.8318 H         1 UNK         0.0600 
    208 H208       -7.0216  -25.3930  -49.7285 H         1 UNK         0.0600 
    209 H209       -5.6921  -24.2755  -50.0010 H         1 UNK         0.0600 
    210 H210       -9.1651  -24.4379  -48.8346 H         1 UNK         0.3000 
    211 H211      -10.3698  -21.8959  -49.0200 H         1 UNK         0.0600 
    212 H212      -11.0716  -24.5325  -50.4217 H         1 UNK         0.0600 
    213 H213      -12.1357  -23.1378  -50.2889 H         1 UNK         0.0600 
    214 H214      -11.6531  -24.0076  -48.8411 H         1 UNK         0.0600 
    215 H215      -10.0916  -20.3030  -50.4286 H         1 UNK         0.3000 
    216 H216       -9.3655  -19.0167  -52.0737 H         1 UNK         0.0600 
    217 H217      -11.1605  -20.2013  -53.3755 H         1 UNK         0.0600 
    218 H218       -9.9662  -21.3602  -53.9582 H         1 UNK         0.0600 
    219 H219       -9.8433  -19.6642  -54.4033 H         1 UNK         0.0600 
    220 H220       -7.4126  -20.7435  -50.6729 H         1 UNK         0.3000 
    221 H221       -5.3231  -21.3835  -50.5957 H         1 UNK         0.0600 
    222 H222       -3.5976  -20.1056  -51.7903 H         1 UNK         0.0600 
    223 H223       -4.7687  -19.4962  -52.9508 H         1 UNK         0.0600 
    224 H224       -4.8481  -19.0025  -51.2582 H         1 UNK         0.0600 
    225 H225       -7.2140  -22.8823  -52.2815 H         1 UNK         0.3000 
    226 H226       -7.4108  -24.5788  -53.6512 H         1 UNK         0.0600 
    227 H227       -5.5783  -25.6118  -52.2664 H         1 UNK         0.0600 
    228 H228       -5.5858  -26.2050  -53.9174 H         1 UNK         0.0600 
    229 H229       -4.3847  -25.0230  -53.4230 H         1 UNK         0.0600 
    230 H230       -6.5630  -21.8168  -54.6694 H         1 UNK         0.3000 
    231 H231       -6.2070  -20.6630  -56.4783 H         1 UNK         0.0600 
    232 H232       -6.9963  -21.4933  -58.6553 H         1 UNK         0.0600 
    233 H233       -8.0965  -22.0304  -57.3985 H         1 UNK         0.0600 
    234 H234       -6.9355  -23.1589  -58.0974 H         1 UNK         0.0600 
    235 H235       -3.9247  -22.4453  -55.3833 H         1 UNK         0.3000 
    236 H236       -1.9432  -21.8164  -57.4762 H         1 UNK         0.0600 
    237 H237       -2.8326  -24.0588  -58.1478 H         1 UNK         0.0600 
    238 H238       -1.1702  -24.1882  -57.6096 H         1 UNK         0.0600 
    239 H239       -2.4776  -24.6896  -56.5415 H         1 UNK         0.0600 
    240 H240       -2.6380  -21.3006  -54.4552 H         1 UNK         0.3000 
    241 H241       -1.6064  -20.9128  -52.5517 H         1 UNK         0.0600 
    242 H242       -2.7102  -23.3260  -52.6530 H         1 UNK         0.3800 
    243 H243       -1.7044  -24.4777  -51.7825 H         1 UNK         0.3800 
    244 H244        1.1039  -21.1994  -53.9070 H         1 UNK         0.0800 
    245 H245        0.8140  -20.5342  -52.3314 H         1 UNK         0.0800 
    246 H246       -1.6237  -18.5564  -52.5193 H         1 UNK         0.0800 
    247 H247       -0.9828  -17.0902  -53.2039 H         1 UNK         0.0800 
@<TRIPOS>BOND
     1    1    2 1    
     2    1  127 1    
     3    1  128 1    
     4    1  129 1    
     5    2    3 2    
     6    2    4 am   BACKBONE|DICT|INTERRES
     7    4    5 1    
     8    4  130 1    
     9    5    6 1    
    10    5   65 1    
    11    5  131 1    
    12    6    7 1    
    13    6  132 1    
    14    6  133 1    
    15    7    8 1    
    16    8    9 1    
    17    8  134 1    
    18    8  135 1    
    19    9   10 ar   
    20    9   14 ar   
    21   10   11 ar   
    22   10  136 1    
    23   11   12 ar   
    24   11  126 1    
    25   12   13 ar   
    26   12  137 1    
    27   13   14 ar   
    28   13   15 1    
    29   14  138 1    
    30   15   16 1    
    31   15  139 1    
    32   15  140 1    
    33   16   17 1    
    34   17   18 1    
    35   17  141 1    
    36   17  142 1    
    37   18   19 1    
    38   18   67 1    
    39   18  143 1    
    40   19   20 am   BACKBONE|DICT|INTERRES
    41   19  144 1    
    42   20   21 2    
    43   20   22 1    
    44   22   23 1    
    45   22   24 1    
    46   22  145 1    
    47   23  146 1    
    48   23  147 1    
    49   23  148 1    
    50   24   25 am   BACKBONE|DICT|INTERRES
    51   24  149 1    
    52   25   26 2    
    53   25   27 1    
    54   27   28 1    
    55   27   29 1    
    56   27  150 1    
    57   28  151 1    
    58   28  152 1    
    59   28  153 1    
    60   29   30 am   BACKBONE|DICT|INTERRES
    61   29  154 1    
    62   30   31 2    
    63   30   32 1    
    64   32   33 1    
    65   32   34 1    
    66   32  155 1    
    67   33  156 1    
    68   33  157 1    
    69   33  158 1    
    70   34   35 am   BACKBONE|DICT|INTERRES
    71   34  159 1    
    72   35   36 2    
    73   35   37 1    
    74   37   38 1    
    75   37   39 1    
    76   37  160 1    
    77   38  161 1    
    78   38  162 1    
    79   38  163 1    
    80   39   40 am   BACKBONE|DICT|INTERRES
    81   39  164 1    
    82   40   41 2    
    83   40   42 1    
    84   42   43 1    
    85   42   44 1    
    86   42  165 1    
    87   43  166 1    
    88   43  167 1    
    89   43  168 1    
    90   44   45 am   BACKBONE|DICT|INTERRES
    91   44  169 1    
    92   45   46 2    
    93   45   47 1    
    94   47   48 1    
    95   47   49 1    
    96   47  170 1    
    97   48  171 1    
    98   48  172 1    
    99   48  173 1    
   100   49   50 am   BACKBONE|DICT|INTERRES
   101   49  174 1    
   102   50   51 2    
   103   50   52 1    
   104   52   53 1    
   105   52   54 1    
   106   52  175 1    
   107   53  176 1    
   108   53  177 1    
   109   53  178 1    
   110   54   55 am   BACKBONE|DICT|INTERRES
   111   54  179 1    
   112   55   56 2    
   113   55   57 1    
   114   57   58 1    
   115   57   59 1    
   116   57  180 1    
   117   58  181 1    
   118   58  182 1    
   119   58  183 1    
   120   59   60 am   BACKBONE|DICT|INTERRES
   121   59  184 1    
   122   60   61 2    
   123   60   62 1    
   124   62   63 1    
   125   62   64 1    
   126   62  185 1    
   127   63  186 1    
   128   63  187 1    
   129   63  188 1    
   130   64   65 am   BACKBONE|DICT|INTERRES
   131   64  189 1    
   132   65   66 2    
   133   67   68 2    
   134   67   69 am   BACKBONE|DICT|INTERRES
   135   69   70 1    
   136   69  190 1    
   137   70   71 1    
   138   70   72 1    
   139   70  191 1    
   140   71  192 1    
   141   71  193 1    
   142   71  194 1    
   143   72   73 2    
   144   72   74 am   BACKBONE|DICT|INTERRES
   145   74   75 1    
   146   74  195 1    
   147   75   76 1    
   148   75   77 1    
   149   75  196 1    
   150   76  197 1    
   151   76  198 1    
   152   76  199 1    
   153   77   78 2    
   154   77   79 am   BACKBONE|DICT|INTERRES
   155   79   80 1    
   156   79  200 1    
   157   80   81 1    
   158   80   82 1    
   159   80  201 1    
   160   81  202 1    
   161   81  203 1    
   162   81  204 1    
   163   82   83 2    
   164   82   84 am   BACKBONE|DICT|INTERRES
   165   84   85 1    
   166   84  205 1    
   167   85   86 1    
   168   85   87 1    
   169   85  206 1    
   170   86  207 1    
   171   86  208 1    
   172   86  209 1    
   173   87   88 2    
   174   87   89 am   BACKBONE|DICT|INTERRES
   175   89   90 1    
   176   89  210 1    
   177   90   91 1    
   178   90   92 1    
   179   90  211 1    
   180   91  212 1    
   181   91  213 1    
   182   91  214 1    
   183   92   93 2    
   184   92   94 am   BACKBONE|DICT|INTERRES
   185   94   95 1    
   186   94  215 1    
   187   95   96 1    
   188   95   97 1    
   189   95  216 1    
   190   96  217 1    
   191   96  218 1    
   192   96  219 1    
   193   97   98 2    
   194   97   99 am   BACKBONE|DICT|INTERRES
   195   99  100 1    
   196   99  220 1    
   197  100  101 1    
   198  100  102 1    
   199  100  221 1    
   200  101  222 1    
   201  101  223 1    
   202  101  224 1    
   203  102  103 2    
   204  102  104 am   BACKBONE|DICT|INTERRES
   205  104  105 1    
   206  104  225 1    
   207  105  106 1    
   208  105  107 1    
   209  105  226 1    
   210  106  227 1    
   211  106  228 1    
   212  106  229 1    
   213  107  108 2    
   214  107  109 am   BACKBONE|DICT|INTERRES
   215  109  110 1    
   216  109  230 1    
   217  110  111 1    
   218  110  112 1    
   219  110  231 1    
   220  111  232 1    
   221  111  233 1    
   222  111  234 1    
   223  112  113 2    
   224  112  114 am   BACKBONE|DICT|INTERRES
   225  114  115 1    
   226  114  235 1    
   227  115  116 1    
   228  115  117 1    
   229  115  236 1    
   230  116  237 1    
   231  116  238 1    
   232  116  239 1    
   233  117  118 2    
   234  117  119 am   BACKBONE|DICT|INTERRES
   235  119  120 1    
   236  119  240 1    
   237  120  121 1    
   238  120  124 1    
   239  120  241 1    
   240  121  122 am   BACKBONE|DICT|INTERRES
   241  121  123 2    
   242  122  242 1    
   243  122  243 1    
   244  124  125 1    
   245  124  244 1    
   246  124  245 1    
   247  125  126 1    
   248  126  246 1    
   249  126  247 1    
@<TRIPOS>SUBSTRUCTURE
     1 UNK         1 GROUP             0       ****    0 ROOT    
