@<TRIPOS>MOLECULE
3R540
247   249    1
SMALL
USER_CHARGES


@<TRIPOS>ATOM
      1 CA         -2.6506  -14.9888  -42.6497 C.3       0 UNK        -0.1800 
      2 C          -2.8356  -14.1066  -43.8729 C.2       0 UNK         0.5000 
      3 O          -3.4867  -13.0657  -43.7855 O.2       0 UNK        -0.5000 
      4 N          -2.2464  -14.5068  -45.0096 N.am      1 UNK        -0.5000 
      5 CA         -2.2381  -13.7266  -46.2580 C.3       1 UNK         0.1400 
      6 C6         -1.8829  -14.6019  -47.4929 C.3       23 UNK        -0.0398 
      7 S7         -3.0089  -14.2809  -48.8955 S.3       23 UNK        -0.2404 
      8 C8         -3.6859  -15.9374  -49.2370 C.3       23 UNK        -0.0205 
      9 C9         -2.8660  -16.6753  -50.2846 C.ar      23 UNK        -0.0193 
     10 C10        -3.3803  -16.8459  -51.5736 C.ar      23 UNK        -0.1150 
     11 C11        -2.6305  -17.4920  -52.5591 C.ar      23 UNK        -0.0193 
     12 C12        -1.3508  -17.9577  -52.2494 C.ar      23 UNK        -0.1150 
     13 C13        -0.8307  -17.8134  -50.9604 C.ar      23 UNK        -0.0193 
     14 C14        -1.5964  -17.1780  -49.9778 C.ar      23 UNK        -0.1150 
     15 C15         0.5717  -18.3168  -50.6545 C.3       23 UNK        -0.0205 
     16 S16         0.5677  -20.0418  -50.0739 S.3       23 UNK        -0.2404 
     17 C17         0.4480  -19.8138  -48.2683 C.3       23 UNK        -0.0398 
     18 CA         -0.4766  -20.8486  -47.5860 C.3       11 UNK         0.1400 
     19 N          -0.1367  -21.0255  -46.1717 N.am      11 UNK        -0.5000 
     20 C          -0.6540  -21.9663  -45.3687 C.2       10 UNK         0.5000 
     21 O          -1.4529  -22.8233  -45.7428 O.2       10 UNK        -0.5000 
     22 CA         -0.2612  -21.8989  -43.8821 C.3       10 UNK         0.1400 
     23 CB          1.1325  -22.5005  -43.6493 C.3       10 UNK        -0.1800 
     24 N          -0.3062  -20.5321  -43.3621 N.am      10 UNK        -0.5000 
     25 C          -1.4187  -19.7871  -43.2969 C.2       9 UNK         0.5000 
     26 O          -2.5369  -20.2007  -43.6023 O.2       9 UNK        -0.5000 
     27 CA         -1.2461  -18.3178  -42.8787 C.3       9 UNK         0.1400 
     28 CB         -1.1271  -18.1873  -41.3528 C.3       9 UNK        -0.1800 
     29 N          -0.0925  -17.6901  -43.5254 N.am      9 UNK        -0.5000 
     30 C           0.0099  -17.4624  -44.8422 C.2       8 UNK         0.5000 
     31 O          -0.9029  -17.6581  -45.6412 O.2       8 UNK        -0.5000 
     32 CA          1.3589  -16.9452  -45.3647 C.3       8 UNK         0.1400 
     33 CB          1.4060  -15.4131  -45.3109 C.3       8 UNK        -0.1800 
     34 N           2.4843  -17.5080  -44.6206 N.am      8 UNK        -0.5000 
     35 C           2.8797  -18.7853  -44.7179 C.2       7 UNK         0.5000 
     36 O           2.3487  -19.6071  -45.4642 O.2       7 UNK        -0.5000 
     37 CA          4.0270  -19.2272  -43.7920 C.3       7 UNK         0.1400 
     38 CB          5.3878  -18.8556  -44.3990 C.3       7 UNK        -0.1800 
     39 N           3.9153  -18.6469  -42.4531 N.am      7 UNK        -0.5000 
     40 C           2.9346  -18.9350  -41.5858 C.2       6 UNK         0.5000 
     41 O           2.0492  -19.7603  -41.8080 O.2       6 UNK        -0.5000 
     42 CA          2.9102  -18.1274  -40.2744 C.3       6 UNK         0.1400 
     43 CB          3.7753  -18.8094  -39.2045 C.3       6 UNK        -0.1800 
     44 N           3.3438  -16.7357  -40.4366 N.am      6 UNK        -0.5000 
     45 C           2.7285  -15.8304  -41.2083 C.2       5 UNK         0.5000 
     46 O           1.7312  -16.0779  -41.8890 O.2       5 UNK        -0.5000 
     47 CA          3.3308  -14.4181  -41.2278 C.3       5 UNK         0.1400 
     48 CB          3.5358  -13.9085  -42.6613 C.3       5 UNK        -0.1800 
     49 N           2.4465  -13.5004  -40.5194 N.am      5 UNK        -0.5000 
     50 C           2.4868  -13.2832  -39.1988 C.2       4 UNK         0.5000 
     51 O           3.2921  -13.8428  -38.4519 O.2       4 UNK        -0.5000 
     52 CA          1.4575  -12.2971  -38.6008 C.3       4 UNK         0.1400 
     53 CB          2.0559  -11.4511  -37.4571 C.3       4 UNK        -0.1800 
     54 N           0.7833  -11.4345  -39.5804 N.am      4 UNK        -0.5000 
     55 C           1.3328  -10.5080  -40.3793 C.2       3 UNK         0.5000 
     56 O           2.5386  -10.2594  -40.4376 O.2       3 UNK        -0.5000 
     57 CA          0.3492   -9.7321  -41.2759 C.3       3 UNK         0.1400 
     58 CB          0.5016   -8.2149  -41.0789 C.3       3 UNK        -0.1800 
     59 N           0.4877  -10.0453  -42.6996 N.am      3 UNK        -0.5000 
     60 C           0.3807  -11.2607  -43.2507 C.2       2 UNK         0.5000 
     61 O           0.2523  -12.3079  -42.6077 O.2       2 UNK        -0.5000 
     62 CA          0.3897  -11.3115  -44.7859 C.3       2 UNK         0.1400 
     63 CB          1.8126  -11.4734  -45.3430 C.3       2 UNK        -0.1800 
     64 N          -0.4276  -12.4478  -45.1870 N.am      2 UNK        -0.5000 
     65 C          -1.3366  -12.4691  -46.1689 C.2       1 UNK         0.5000 
     66 O          -1.4936  -11.5471  -46.9702 O.2       1 UNK        -0.5000 
     67 C          -1.9705  -20.5141  -47.7867 C.2       11 UNK         0.5000 
     68 O          -2.6105  -21.1195  -48.6442 O.2       11 UNK        -0.5000 
     69 N          -2.5138  -19.6074  -46.9599 N.am      12 UNK        -0.5000 
     70 CA         -3.9305  -19.2363  -46.9432 C.3       12 UNK         0.1400 
     71 CB         -4.1521  -18.0745  -45.9587 C.3       12 UNK        -0.1800 
     72 C          -4.8578  -20.4139  -46.5913 C.2       12 UNK         0.5000 
     73 O          -5.9021  -20.5720  -47.2242 O.2       12 UNK        -0.5000 
     74 N          -4.4562  -21.2176  -45.5970 N.am      13 UNK        -0.5000 
     75 CA         -5.1745  -22.4119  -45.1553 C.3       13 UNK         0.1400 
     76 CB         -4.5966  -22.8883  -43.8137 C.3       13 UNK        -0.1800 
     77 C          -5.1438  -23.5440  -46.1982 C.2       13 UNK         0.5000 
     78 O          -6.1740  -24.1751  -46.4385 O.2       13 UNK        -0.5000 
     79 N          -3.9677  -23.7812  -46.7936 N.am      14 UNK        -0.5000 
     80 CA         -3.7464  -24.8027  -47.8161 C.3       14 UNK         0.1400 
     81 CB         -2.2367  -25.0309  -47.9741 C.3       14 UNK        -0.1800 
     82 C          -4.3798  -24.4485  -49.1726 C.2       14 UNK         0.5000 
     83 O          -4.8916  -25.3417  -49.8503 O.2       14 UNK        -0.5000 
     84 N          -4.3166  -23.1629  -49.5504 N.am      15 UNK        -0.5000 
     85 CA         -4.7475  -22.5941  -50.8287 C.3       15 UNK         0.1400 
     86 CB         -6.2895  -22.5506  -50.9052 C.3       15 UNK        -0.1800 
     87 C          -4.0650  -23.3229  -52.0036 C.2       15 UNK         0.5000 
     88 O          -2.8354  -23.4024  -52.0234 O.2       15 UNK        -0.5000 
     89 N          -4.8566  -23.8979  -52.9173 N.am      16 UNK        -0.5000 
     90 CA         -4.4289  -24.6688  -54.0871 C.3       16 UNK         0.1400 
     91 CB         -5.6836  -25.1419  -54.8396 C.3       16 UNK        -0.1800 
     92 C          -3.5044  -25.8720  -53.8008 C.2       16 UNK         0.5000 
     93 O          -2.8352  -26.3364  -54.7236 O.2       16 UNK        -0.5000 
     94 N          -3.4744  -26.3630  -52.5530 N.am      17 UNK        -0.5000 
     95 CA         -2.5691  -27.4283  -52.1190 C.3       17 UNK         0.1400 
     96 CB         -3.1205  -28.0753  -50.8393 C.3       17 UNK        -0.1800 
     97 C          -1.1152  -26.9519  -51.9121 C.2       17 UNK         0.5000 
     98 O          -0.2145  -27.7924  -51.9131 O.2       17 UNK        -0.5000 
     99 N          -0.9040  -25.6391  -51.7370 N.am      18 UNK        -0.5000 
    100 CA         0.4145  -25.0223  -51.5646 C.3       18 UNK         0.1400 
    101 CB         0.4673  -24.3010  -50.2078 C.3       18 UNK        -0.1800 
    102 C          0.7282  -24.0347  -52.6988 C.2       18 UNK         0.5000 
    103 O          1.8509  -24.0247  -53.2061 O.2       18 UNK        -0.5000 
    104 N         -0.2603  -23.2125  -53.0625 N.am      19 UNK        -0.5000 
    105 CA        -0.1680  -22.1741  -54.0811 C.3       19 UNK         0.1400 
    106 CB        -1.2410  -21.1255  -53.7673 C.3       19 UNK        -0.1800 
    107 C         -0.3769  -22.7287  -55.5000 C.2       19 UNK         0.5000 
    108 O         -0.7470  -23.8921  -55.6758 O.2       19 UNK        -0.5000 
    109 N         -0.1942  -21.8546  -56.4977 N.am      20 UNK        -0.5000 
    110 CA        -0.4207  -22.1108  -57.9222 C.3       20 UNK         0.1400 
    111 CB         0.3532  -21.0590  -58.7378 C.3       20 UNK        -0.1800 
    112 C         -1.9229  -22.1618  -58.2877 C.2       20 UNK         0.5000 
    113 O         -2.3836  -21.3958  -59.1358 O.2       20 UNK        -0.5000 
    114 N         -2.6540  -23.0722  -57.6311 N.am      21 UNK        -0.5000 
    115 CA        -4.0596  -23.4297  -57.8486 C.3       21 UNK         0.1400 
    116 CB        -4.2376  -24.0848  -59.2347 C.3       21 UNK        -0.1800 
    117 C         -5.0731  -22.2900  -57.5940 C.2       21 UNK         0.5000 
    118 O         -6.1532  -22.3013  -58.1884 O.2       21 UNK        -0.5000 
    119 N         -4.7293  -21.3299  -56.7231 N.am      22 UNK        -0.5000 
    120 CA        -5.6219  -20.2247  -56.3348 C.3       22 UNK         0.1400 
    121 C         -6.7999  -20.6653  -55.4150 C.2       22 UNK         0.5000 
    122 N         -7.8849  -19.9028  -55.3833 N.am      22 UNK        -0.7600 
    123 O         -6.7352  -21.6719  -54.7127 O.2       22 UNK        -0.5000 
    124 C124       -4.8404  -19.0064  -55.7746 C.3       23 UNK        -0.0398 
    125 S125       -4.1062  -19.2343  -54.1193 S.3       23 UNK        -0.2404 
    126 C126       -3.1964  -17.6668  -53.9597 C.3       23 UNK        -0.0205 
    127 H127       -2.7837  -14.4085  -41.7365 H         1 UNK         0.0600 
    128 H128       -1.6460  -15.4097  -42.6288 H         1 UNK         0.0600 
    129 H129       -3.3799  -15.7984  -42.6501 H         1 UNK         0.0600 
    130 H130       -1.7643  -15.3940  -45.0347 H         1 UNK         0.3000 
    131 H131       -3.2573  -13.3536  -46.3823 H         1 UNK         0.0600 
    132 H132       -1.9366  -15.6592  -47.2360 H         1 UNK         0.0800 
    133 H133       -0.8568  -14.4462  -47.8312 H         1 UNK         0.0800 
    134 H134       -3.7458  -16.5269  -48.3255 H         1 UNK         0.0800 
    135 H135       -4.7149  -15.8194  -49.5798 H         1 UNK         0.0800 
    136 H136       -4.3644  -16.4695  -51.8154 H         1 UNK         0.1150 
    137 H137       -0.7548  -18.4330  -53.0138 H         1 UNK         0.1150 
    138 H138       -1.1962  -17.0556  -48.9825 H         1 UNK         0.1150 
    139 H139        1.1833  -18.2604  -51.5563 H         1 UNK         0.0800 
    140 H140        1.0612  -17.6698  -49.9250 H         1 UNK         0.0800 
    141 H141        1.4648  -19.9190  -47.8899 H         1 UNK         0.0800 
    142 H142        0.1439  -18.7961  -48.0217 H         1 UNK         0.0800 
    143 H143       -0.2997  -21.8177  -48.0580 H         1 UNK         0.0600 
    144 H144        0.5590  -20.3925  -45.7899 H         1 UNK         0.3000 
    145 H145       -0.9848  -22.4931  -43.3201 H         1 UNK         0.0600 
    146 H146        1.3829  -22.5130  -42.5884 H         1 UNK         0.0600 
    147 H147        1.1773  -23.5298  -44.0071 H         1 UNK         0.0600 
    148 H148        1.9089  -21.9384  -44.1679 H         1 UNK         0.0600 
    149 H149        0.5696  -20.1384  -43.0307 H         1 UNK         0.3000 
    150 H150       -2.1419  -17.7840  -43.1986 H         1 UNK         0.0600 
    151 H151       -2.0259  -18.5613  -40.8613 H         1 UNK         0.0600 
    152 H152       -0.9978  -17.1484  -41.0496 H         1 UNK         0.0600 
    153 H153       -0.2828  -18.7543  -40.9624 H         1 UNK         0.0600 
    154 H154        0.6780  -17.4142  -42.9247 H         1 UNK         0.3000 
    155 H155        1.4575  -17.2494  -46.4090 H         1 UNK         0.0600 
    156 H156        2.3999  -15.0334  -45.5479 H         1 UNK         0.0600 
    157 H157        1.1210  -15.0357  -44.3291 H         1 UNK         0.0600 
    158 H158        0.7175  -14.9837  -46.0370 H         1 UNK         0.0600 
    159 H159        2.9281  -16.9085  -43.9413 H         1 UNK         0.3000 
    160 H160        3.9794  -20.3142  -43.6976 H         1 UNK         0.0600 
    161 H161        5.5066  -17.7758  -44.4963 H         1 UNK         0.0600 
    162 H162        5.5025  -19.2897  -45.3932 H         1 UNK         0.0600 
    163 H163        6.2079  -19.2299  -43.7860 H         1 UNK         0.0600 
    164 H164        4.6065  -17.9602  -42.1898 H         1 UNK         0.3000 
    165 H165        1.8784  -18.1122  -39.9178 H         1 UNK         0.0600 
    166 H166        4.8284  -18.8269  -39.4878 H         1 UNK         0.0600 
    167 H167        3.6934  -18.2972  -38.2456 H         1 UNK         0.0600 
    168 H168        3.4601  -19.8419  -39.0475 H         1 UNK         0.0600 
    169 H169        4.1403  -16.4459  -39.8870 H         1 UNK         0.3000 
    170 H170        4.3102  -14.4406  -40.7449 H         1 UNK         0.0600 
    171 H171        4.1253  -14.6099  -43.2528 H         1 UNK         0.0600 
    172 H172        2.5841  -13.7612  -43.1672 H         1 UNK         0.0600 
    173 H173        4.0609  -12.9532  -42.6655 H         1 UNK         0.0600 
    174 H174        1.7243  -13.0509  -41.0699 H         1 UNK         0.3000 
    175 H175        0.6746  -12.9209  -38.1676 H         1 UNK         0.0600 
    176 H176        1.3107  -10.7789  -37.0317 H         1 UNK         0.0600 
    177 H177        2.4169  -12.0846  -36.6460 H         1 UNK         0.0600 
    178 H178        2.8974  -10.8473  -37.7977 H         1 UNK         0.0600 
    179 H179       -0.2135  -11.5836  -39.6574 H         1 UNK         0.3000 
    180 H180       -0.6689   -9.9999  -40.9855 H         1 UNK         0.0600 
    181 H181       -0.2620   -7.6656  -41.6299 H         1 UNK         0.0600 
    182 H182        0.3981   -7.9455  -40.0269 H         1 UNK         0.0600 
    183 H183        1.4775   -7.8608  -41.4135 H         1 UNK         0.0600 
    184 H184        0.6248   -9.2521  -43.3088 H         1 UNK         0.3000 
    185 H185       -0.0445  -10.3837  -45.1648 H         1 UNK         0.0600 
    186 H186        2.2694  -12.4091  -45.0235 H         1 UNK         0.0600 
    187 H187        1.8078  -11.4634  -46.4330 H         1 UNK         0.0600 
    188 H188        2.4590  -10.6598  -45.0121 H         1 UNK         0.0600 
    189 H189       -0.4253  -13.2044  -44.5156 H         1 UNK         0.3000 
    190 H190       -1.9127  -19.1125  -46.3072 H         1 UNK         0.3000 
    191 H191       -4.1908  -18.8949  -47.9470 H         1 UNK         0.0600 
    192 H192       -5.1789  -17.7112  -46.0127 H         1 UNK         0.0600 
    193 H193       -3.4979  -17.2311  -46.1716 H         1 UNK         0.0600 
    194 H194       -3.9682  -18.3769  -44.9281 H         1 UNK         0.0600 
    195 H195       -3.6107  -20.9787  -45.0876 H         1 UNK         0.3000 
    196 H196       -6.2188  -22.1366  -44.9935 H         1 UNK         0.0600 
    197 H197       -5.1250  -23.7709  -43.4513 H         1 UNK         0.0600 
    198 H198       -4.6888  -22.1164  -43.0494 H         1 UNK         0.0600 
    199 H199       -3.5408  -23.1480  -43.8985 H         1 UNK         0.0600 
    200 H200       -3.1516  -23.2508  -46.4991 H         1 UNK         0.3000 
    201 H201       -4.1967  -25.7368  -47.4736 H         1 UNK         0.0600 
    202 H202       -1.7959  -25.4042  -47.0498 H         1 UNK         0.0600 
    203 H203       -1.7245  -24.1049  -48.2359 H         1 UNK         0.0600 
    204 H204       -2.0212  -25.7591  -48.7557 H         1 UNK         0.0600 
    205 H205       -3.7945  -22.5151  -48.9647 H         1 UNK         0.3000 
    206 H206       -4.3814  -21.5666  -50.8523 H         1 UNK         0.0600 
    207 H207       -6.7002  -21.9901  -50.0650 H         1 UNK         0.0600 
    208 H208       -6.6252  -22.0519  -51.8155 H         1 UNK         0.0600 
    209 H209       -6.7331  -23.5466  -50.8825 H         1 UNK         0.0600 
    210 H210       -5.8539  -23.7782  -52.8131 H         1 UNK         0.3000 
    211 H211       -3.8694  -23.9873  -54.7301 H         1 UNK         0.0600 
    212 H212       -6.3280  -25.7462  -54.2001 H         1 UNK         0.0600 
    213 H213       -5.4237  -25.7524  -55.7053 H         1 UNK         0.0600 
    214 H214       -6.2693  -24.2982  -55.2042 H         1 UNK         0.0600 
    215 H215       -4.0557  -25.9374  -51.8401 H         1 UNK         0.3000 
    216 H216       -2.5485  -28.1984  -52.8932 H         1 UNK         0.0600 
    217 H217       -2.4995  -28.9163  -50.5285 H         1 UNK         0.0600 
    218 H218       -4.1300  -28.4568  -50.9933 H         1 UNK         0.0600 
    219 H219       -3.1528  -27.3706  -50.0099 H         1 UNK         0.0600 
    220 H220       -1.6956  -25.0063  -51.7900 H         1 UNK         0.3000 
    221 H221        1.2011  -25.7794  -51.5713 H         1 UNK         0.0600 
    222 H222       -0.3163  -23.5467  -50.1222 H         1 UNK         0.0600 
    223 H223        0.3532  -25.0059  -49.3848 H         1 UNK         0.0600 
    224 H224        1.4237  -23.7950  -50.0693 H         1 UNK         0.0600 
    225 H225       -1.1702  -23.2995  -52.6150 H         1 UNK         0.3000 
    226 H226        0.8162  -21.7041  -54.0277 H         1 UNK         0.0600 
    227 H227       -1.1664  -20.7809  -52.7358 H         1 UNK         0.0600 
    228 H228       -1.1482  -20.2542  -54.4154 H         1 UNK         0.0600 
    229 H229       -2.2434  -21.5312  -53.9062 H         1 UNK         0.0600 
    230 H230        0.0796  -20.9112  -56.2645 H         1 UNK         0.3000 
    231 H231       -0.0016  -23.0891  -58.1668 H         1 UNK         0.0600 
    232 H232        0.2509  -21.2402  -59.8086 H         1 UNK         0.0600 
    233 H233        1.4184  -21.0867  -58.5075 H         1 UNK         0.0600 
    234 H234       -0.0075  -20.0490  -58.5387 H         1 UNK         0.0600 
    235 H235       -2.1612  -23.6199  -56.9293 H         1 UNK         0.3000 
    236 H236       -4.2831  -24.1957  -57.1087 H         1 UNK         0.0600 
    237 H237       -4.0921  -23.3670  -60.0426 H         1 UNK         0.0600 
    238 H238       -3.5297  -24.9010  -59.3792 H         1 UNK         0.0600 
    239 H239       -5.2379  -24.5048  -59.3466 H         1 UNK         0.0600 
    240 H240       -3.8424  -21.3852  -56.2469 H         1 UNK         0.3000 
    241 H241       -6.0855  -19.8765  -57.2603 H         1 UNK         0.0600 
    242 H242       -8.6498  -20.1720  -54.7845 H         1 UNK         0.3800 
    243 H243       -7.9681  -19.0701  -55.9456 H         1 UNK         0.3800 
    244 H244       -4.0467  -18.7330  -56.4714 H         1 UNK         0.0800 
    245 H245       -5.5008  -18.1390  -55.7290 H         1 UNK         0.0800 
    246 H246       -2.3920  -17.6386  -54.6964 H         1 UNK         0.0800 
    247 H247       -3.8607  -16.8340  -54.1958 H         1 UNK         0.0800 
@<TRIPOS>BOND
     1    1    2 1    
     2    1  127 1    
     3    1  128 1    
     4    1  129 1    
     5    2    3 2    
     6    2    4 am   BACKBONE|DICT|INTERRES
     7    4    5 1    
     8    4  130 1    
     9    5    6 1    
    10    5   65 1    
    11    5  131 1    
    12    6    7 1    
    13    6  132 1    
    14    6  133 1    
    15    7    8 1    
    16    8    9 1    
    17    8  134 1    
    18    8  135 1    
    19    9   10 ar   
    20    9   14 ar   
    21   10   11 ar   
    22   10  136 1    
    23   11   12 ar   
    24   11  126 1    
    25   12   13 ar   
    26   12  137 1    
    27   13   14 ar   
    28   13   15 1    
    29   14  138 1    
    30   15   16 1    
    31   15  139 1    
    32   15  140 1    
    33   16   17 1    
    34   17   18 1    
    35   17  141 1    
    36   17  142 1    
    37   18   19 1    
    38   18   67 1    
    39   18  143 1    
    40   19   20 am   BACKBONE|DICT|INTERRES
    41   19  144 1    
    42   20   21 2    
    43   20   22 1    
    44   22   23 1    
    45   22   24 1    
    46   22  145 1    
    47   23  146 1    
    48   23  147 1    
    49   23  148 1    
    50   24   25 am   BACKBONE|DICT|INTERRES
    51   24  149 1    
    52   25   26 2    
    53   25   27 1    
    54   27   28 1    
    55   27   29 1    
    56   27  150 1    
    57   28  151 1    
    58   28  152 1    
    59   28  153 1    
    60   29   30 am   BACKBONE|DICT|INTERRES
    61   29  154 1    
    62   30   31 2    
    63   30   32 1    
    64   32   33 1    
    65   32   34 1    
    66   32  155 1    
    67   33  156 1    
    68   33  157 1    
    69   33  158 1    
    70   34   35 am   BACKBONE|DICT|INTERRES
    71   34  159 1    
    72   35   36 2    
    73   35   37 1    
    74   37   38 1    
    75   37   39 1    
    76   37  160 1    
    77   38  161 1    
    78   38  162 1    
    79   38  163 1    
    80   39   40 am   BACKBONE|DICT|INTERRES
    81   39  164 1    
    82   40   41 2    
    83   40   42 1    
    84   42   43 1    
    85   42   44 1    
    86   42  165 1    
    87   43  166 1    
    88   43  167 1    
    89   43  168 1    
    90   44   45 am   BACKBONE|DICT|INTERRES
    91   44  169 1    
    92   45   46 2    
    93   45   47 1    
    94   47   48 1    
    95   47   49 1    
    96   47  170 1    
    97   48  171 1    
    98   48  172 1    
    99   48  173 1    
   100   49   50 am   BACKBONE|DICT|INTERRES
   101   49  174 1    
   102   50   51 2    
   103   50   52 1    
   104   52   53 1    
   105   52   54 1    
   106   52  175 1    
   107   53  176 1    
   108   53  177 1    
   109   53  178 1    
   110   54   55 am   BACKBONE|DICT|INTERRES
   111   54  179 1    
   112   55   56 2    
   113   55   57 1    
   114   57   58 1    
   115   57   59 1    
   116   57  180 1    
   117   58  181 1    
   118   58  182 1    
   119   58  183 1    
   120   59   60 am   BACKBONE|DICT|INTERRES
   121   59  184 1    
   122   60   61 2    
   123   60   62 1    
   124   62   63 1    
   125   62   64 1    
   126   62  185 1    
   127   63  186 1    
   128   63  187 1    
   129   63  188 1    
   130   64   65 am   BACKBONE|DICT|INTERRES
   131   64  189 1    
   132   65   66 2    
   133   67   68 2    
   134   67   69 am   BACKBONE|DICT|INTERRES
   135   69   70 1    
   136   69  190 1    
   137   70   71 1    
   138   70   72 1    
   139   70  191 1    
   140   71  192 1    
   141   71  193 1    
   142   71  194 1    
   143   72   73 2    
   144   72   74 am   BACKBONE|DICT|INTERRES
   145   74   75 1    
   146   74  195 1    
   147   75   76 1    
   148   75   77 1    
   149   75  196 1    
   150   76  197 1    
   151   76  198 1    
   152   76  199 1    
   153   77   78 2    
   154   77   79 am   BACKBONE|DICT|INTERRES
   155   79   80 1    
   156   79  200 1    
   157   80   81 1    
   158   80   82 1    
   159   80  201 1    
   160   81  202 1    
   161   81  203 1    
   162   81  204 1    
   163   82   83 2    
   164   82   84 am   BACKBONE|DICT|INTERRES
   165   84   85 1    
   166   84  205 1    
   167   85   86 1    
   168   85   87 1    
   169   85  206 1    
   170   86  207 1    
   171   86  208 1    
   172   86  209 1    
   173   87   88 2    
   174   87   89 am   BACKBONE|DICT|INTERRES
   175   89   90 1    
   176   89  210 1    
   177   90   91 1    
   178   90   92 1    
   179   90  211 1    
   180   91  212 1    
   181   91  213 1    
   182   91  214 1    
   183   92   93 2    
   184   92   94 am   BACKBONE|DICT|INTERRES
   185   94   95 1    
   186   94  215 1    
   187   95   96 1    
   188   95   97 1    
   189   95  216 1    
   190   96  217 1    
   191   96  218 1    
   192   96  219 1    
   193   97   98 2    
   194   97   99 am   BACKBONE|DICT|INTERRES
   195   99  100 1    
   196   99  220 1    
   197  100  101 1    
   198  100  102 1    
   199  100  221 1    
   200  101  222 1    
   201  101  223 1    
   202  101  224 1    
   203  102  103 2    
   204  102  104 am   BACKBONE|DICT|INTERRES
   205  104  105 1    
   206  104  225 1    
   207  105  106 1    
   208  105  107 1    
   209  105  226 1    
   210  106  227 1    
   211  106  228 1    
   212  106  229 1    
   213  107  108 2    
   214  107  109 am   BACKBONE|DICT|INTERRES
   215  109  110 1    
   216  109  230 1    
   217  110  111 1    
   218  110  112 1    
   219  110  231 1    
   220  111  232 1    
   221  111  233 1    
   222  111  234 1    
   223  112  113 2    
   224  112  114 am   BACKBONE|DICT|INTERRES
   225  114  115 1    
   226  114  235 1    
   227  115  116 1    
   228  115  117 1    
   229  115  236 1    
   230  116  237 1    
   231  116  238 1    
   232  116  239 1    
   233  117  118 2    
   234  117  119 am   BACKBONE|DICT|INTERRES
   235  119  120 1    
   236  119  240 1    
   237  120  121 1    
   238  120  124 1    
   239  120  241 1    
   240  121  122 am   BACKBONE|DICT|INTERRES
   241  121  123 2    
   242  122  242 1    
   243  122  243 1    
   244  124  125 1    
   245  124  244 1    
   246  124  245 1    
   247  125  126 1    
   248  126  246 1    
   249  126  247 1    
@<TRIPOS>SUBSTRUCTURE
     1 UNK         1 GROUP             0       ****    0 ROOT    
