@<TRIPOS>MOLECULE
3R540
247   249    1
SMALL
USER_CHARGES


@<TRIPOS>ATOM
      1 CA          7.8520  -10.1374  -47.9891 C.3       0 UNK        -0.1800 
      2 C           6.8772  -11.2795  -47.7403 C.2       0 UNK         0.5000 
      3 O           7.3038  -12.3967  -47.4463 O.2       0 UNK        -0.5000 
      4 N           5.5717  -11.0073  -47.8601 N.am      1 UNK        -0.5000 
      5 CA          4.4880  -11.9556  -47.5964 C.3       1 UNK         0.1400 
      6 C6          3.1901  -11.5512  -48.3431 C.3       23 UNK        -0.0398 
      7 S7          2.0651  -12.9683  -48.5756 S.3       23 UNK        -0.2404 
      8 C8          2.3249  -13.3210  -50.3394 C.3       23 UNK        -0.0205 
      9 C9          1.6493  -14.6208  -50.7385 C.ar      23 UNK        -0.0193 
     10 C10         0.3620  -14.6163  -51.2843 C.ar      23 UNK        -0.1150 
     11 C11        -0.2621  -15.8168  -51.6387 C.ar      23 UNK        -0.0193 
     12 C12         0.4203  -17.0225  -51.4566 C.ar      23 UNK        -0.1150 
     13 C13         1.7062  -17.0386  -50.9094 C.ar      23 UNK        -0.0193 
     14 C14         2.3155  -15.8342  -50.5523 C.ar      23 UNK        -0.1150 
     15 C15         2.4346  -18.3547  -50.6911 C.3       23 UNK        -0.0205 
     16 S16         2.0151  -19.0830  -49.0782 S.3       23 UNK        -0.2404 
     17 C17         0.3068  -19.6363  -49.3963 C.3       23 UNK        -0.0398 
     18 CA         -0.1621  -20.6968  -48.3812 C.3       11 UNK         0.1400 
     19 N          -0.1736  -20.1859  -47.0116 N.am      11 UNK        -0.5000 
     20 C          -0.3383  -20.9367  -45.9164 C.2       10 UNK         0.5000 
     21 O          -0.4774  -22.1597  -45.9316 O.2       10 UNK        -0.5000 
     22 CA         -0.4036  -20.1724  -44.5862 C.3       10 UNK         0.1400 
     23 CB          1.0118  -19.8103  -44.1130 C.3       10 UNK        -0.1800 
     24 N          -1.2254  -18.9639  -44.7016 N.am      10 UNK        -0.5000 
     25 C          -2.5567  -18.9887  -44.8786 C.2       9 UNK         0.5000 
     26 O          -3.2173  -20.0270  -44.9093 O.2       9 UNK        -0.5000 
     27 CA         -3.2754  -17.6440  -45.1023 C.3       9 UNK         0.1400 
     28 CB         -3.7267  -17.0430  -43.7641 C.3       9 UNK        -0.1800 
     29 N          -2.4683  -16.6649  -45.8290 N.am      9 UNK        -0.5000 
     30 C          -2.0389  -16.8136  -47.0910 C.2       8 UNK         0.5000 
     31 O          -2.3163  -17.7857  -47.7919 O.2       8 UNK        -0.5000 
     32 CA         -1.1133  -15.7178  -47.6569 C.3       8 UNK         0.1400 
     33 CB         -1.9286  -14.7098  -48.4797 C.3       8 UNK        -0.1800 
     34 N          -0.3449  -14.9868  -46.6448 N.am      8 UNK        -0.5000 
     35 C           0.4808  -15.5337  -45.7430 C.2       7 UNK         0.5000 
     36 O           0.6554  -16.7488  -45.6335 O.2       7 UNK        -0.5000 
     37 CA          1.2310  -14.5781  -44.7946 C.3       7 UNK         0.1400 
     38 CB          0.7861  -13.0993  -44.8779 C.3       7 UNK        -0.1800 
     39 N           1.1817  -15.0603  -43.4133 N.am      7 UNK        -0.5000 
     40 C           0.0971  -15.1568  -42.6292 C.2       6 UNK         0.5000 
     41 O          -1.0352  -14.8283  -42.9851 O.2       6 UNK        -0.5000 
     42 CA          0.3019  -15.6985  -41.2018 C.3       6 UNK         0.1400 
     43 CB         -0.3001  -17.1046  -41.0636 C.3       6 UNK        -0.1800 
     44 N           1.7176  -15.7585  -40.8314 N.am      6 UNK        -0.5000 
     45 C           2.3187  -14.9827  -39.9183 C.2       5 UNK         0.5000 
     46 O           1.7307  -14.1016  -39.2892 O.2       5 UNK        -0.5000 
     47 CA          3.8318  -15.2012  -39.6736 C.3       5 UNK         0.1400 
     48 CB          4.2053  -15.1189  -38.1789 C.3       5 UNK        -0.1800 
     49 N           4.3711  -16.4200  -40.2898 N.am      5 UNK        -0.5000 
     50 C           4.0605  -17.6963  -40.0071 C.2       4 UNK         0.5000 
     51 O           3.3502  -18.0297  -39.0578 O.2       4 UNK        -0.5000 
     52 CA          4.5992  -18.7798  -40.9737 C.3       4 UNK         0.1400 
     53 CB          3.6196  -19.9629  -41.1157 C.3       4 UNK        -0.1800 
     54 N           4.9753  -18.2770  -42.3045 N.am      4 UNK        -0.5000 
     55 C           4.1989  -17.6080  -43.1695 C.2       3 UNK         0.5000 
     56 O           3.0239  -17.3038  -42.9531 O.2       3 UNK        -0.5000 
     57 CA          4.8834  -17.1117  -44.4566 C.3       3 UNK         0.1400 
     58 CB          4.2493  -17.7605  -45.6968 C.3       3 UNK        -0.1800 
     59 N           4.8168  -15.6529  -44.5892 N.am      3 UNK        -0.5000 
     60 C           5.2224  -14.7585  -43.6733 C.2       2 UNK         0.5000 
     61 O           5.7351  -15.0727  -42.5974 O.2       2 UNK        -0.5000 
     62 CA          5.0160  -13.2707  -44.0120 C.3       2 UNK         0.1400 
     63 CB          6.0701  -12.3591  -43.3541 C.3       2 UNK        -0.1800 
     64 N           4.9993  -13.0428  -45.4583 N.am      2 UNK        -0.5000 
     65 C           4.2901  -12.0882  -46.0712 C.2       1 UNK         0.5000 
     66 O           3.5499  -11.3021  -45.4779 O.2       1 UNK        -0.5000 
     67 C          -1.5370  -21.2630  -48.7794 C.2       11 UNK         0.5000 
     68 O          -1.5928  -22.3463  -49.3575 O.2       11 UNK        -0.5000 
     69 N          -2.6177  -20.5535  -48.4231 N.am      12 UNK        -0.5000 
     70 CA         -3.9985  -20.9897  -48.6260 C.3       12 UNK         0.1400 
     71 CB         -4.9659  -19.8704  -48.2177 C.3       12 UNK        -0.1800 
     72 C          -4.3212  -22.2904  -47.8711 C.2       12 UNK         0.5000 
     73 O          -4.9320  -23.1855  -48.4547 O.2       12 UNK        -0.5000 
     74 N          -3.8757  -22.3919  -46.6102 N.am      13 UNK        -0.5000 
     75 CA         -4.0026  -23.5922  -45.7824 C.3       13 UNK         0.1400 
     76 CB         -3.5615  -23.2842  -44.3439 C.3       13 UNK        -0.1800 
     77 C          -3.2234  -24.7902  -46.3545 C.2       13 UNK         0.5000 
     78 O          -3.7799  -25.8857  -46.4415 O.2       13 UNK        -0.5000 
     79 N          -1.9743  -24.5529  -46.7830 N.am      14 UNK        -0.5000 
     80 CA         -1.1196  -25.5404  -47.4504 C.3       14 UNK         0.1400 
     81 CB          0.2874  -24.9552  -47.6421 C.3       14 UNK        -0.1800 
     82 C          -1.6970  -26.0264  -48.7948 C.2       14 UNK         0.5000 
     83 O          -1.5665  -27.2050  -49.1253 O.2       14 UNK        -0.5000 
     84 N          -2.3716  -25.1219  -49.5148 N.am      15 UNK        -0.5000 
     85 CA         -3.1099  -25.3785  -50.7505 C.3       15 UNK         0.1400 
     86 CB         -3.1276  -24.0912  -51.5927 C.3       15 UNK        -0.1800 
     87 C          -4.5365  -25.9228  -50.5155 C.2       15 UNK         0.5000 
     88 O          -5.3527  -25.8563  -51.4329 O.2       15 UNK        -0.5000 
     89 N          -4.8258  -26.4457  -49.3135 N.am      16 UNK        -0.5000 
     90 CA         -6.0717  -27.1105  -48.9147 C.3       16 UNK         0.1400 
     91 CB         -6.2277  -28.4521  -49.6615 C.3       16 UNK        -0.1800 
     92 C          -7.3076  -26.1976  -49.0488 C.2       16 UNK         0.5000 
     93 O          -8.2913  -26.5692  -49.6914 O.2       16 UNK        -0.5000 
     94 N          -7.2077  -25.0080  -48.4411 N.am      17 UNK        -0.5000 
     95 CA         -8.1647  -23.8987  -48.4904 C.3       17 UNK         0.1400 
     96 CB         -9.5504  -24.3022  -47.9418 C.3       17 UNK        -0.1800 
     97 C          -8.2094  -23.2506  -49.8883 C.2       17 UNK         0.5000 
     98 O          -9.2887  -23.0067  -50.4307 O.2       17 UNK        -0.5000 
     99 N          -7.0113  -22.9700  -50.4215 N.am      18 UNK        -0.5000 
    100 CA        -6.7332  -22.2687  -51.6778 C.3       18 UNK         0.1400 
    101 CB        -7.1489  -20.7877  -51.5607 C.3       18 UNK        -0.1800 
    102 C         -7.3224  -22.9678  -52.9218 C.2       18 UNK         0.5000 
    103 O         -7.8927  -22.3077  -53.7927 O.2       18 UNK        -0.5000 
    104 N         -7.1739  -24.2972  -52.9961 N.am      19 UNK        -0.5000 
    105 CA        -7.5845  -25.1072  -54.1404 C.3       19 UNK         0.1400 
    106 CB        -7.6516  -26.5868  -53.7254 C.3       19 UNK        -0.1800 
    107 C         -6.6141  -24.8802  -55.3139 C.2       19 UNK         0.5000 
    108 O         -5.4922  -25.3898  -55.2853 O.2       19 UNK        -0.5000 
    109 N         -7.0579  -24.0831  -56.2970 N.am      20 UNK        -0.5000 
    110 CA        -6.3051  -23.6247  -57.4721 C.3       20 UNK         0.1400 
    111 CB        -5.9830  -24.8036  -58.4151 C.3       20 UNK        -0.1800 
    112 C         -5.0621  -22.7862  -57.0972 C.2       20 UNK         0.5000 
    113 O         -4.0046  -22.9269  -57.7150 O.2       20 UNK        -0.5000 
    114 N         -5.2169  -21.9256  -56.0854 N.am      21 UNK        -0.5000 
    115 CA        -4.1930  -21.0268  -55.5621 C.3       21 UNK         0.1400 
    116 CB        -3.3931  -21.7544  -54.4659 C.3       21 UNK        -0.1800 
    117 C         -4.8706  -19.7645  -55.0083 C.2       21 UNK         0.5000 
    118 O         -6.0990  -19.7241  -54.9013 O.2       21 UNK        -0.5000 
    119 N         -4.0628  -18.7589  -54.6577 N.am      22 UNK        -0.5000 
    120 CA        -4.5041  -17.5789  -53.9001 C.3       22 UNK         0.1400 
    121 C         -4.6876  -17.8756  -52.3822 C.2       22 UNK         0.5000 
    122 N         -5.4316  -17.0401  -51.6697 N.am      22 UNK        -0.7600 
    123 O         -4.1493  -18.8369  -51.8375 O.2       22 UNK        -0.5000 
    124 C124       -3.5969  -16.3469  -54.1634 C.3       23 UNK        -0.0398 
    125 S125       -1.8200  -16.5954  -53.8125 S.3       23 UNK        -0.2404 
    126 C126       -1.6882  -15.8175  -52.1705 C.3       23 UNK        -0.0205 
    127 H127        8.5266  -10.3914  -48.8067 H         1 UNK         0.0600 
    128 H128        8.4501   -9.9543  -47.0964 H         1 UNK         0.0600 
    129 H129        7.3361   -9.2126  -48.2486 H         1 UNK         0.0600 
    130 H130        5.2843  -10.0626  -48.0736 H         1 UNK         0.3000 
    131 H131        4.7995  -12.9277  -47.9861 H         1 UNK         0.0600 
    132 H132        2.6560  -10.7490  -47.8310 H         1 UNK         0.0800 
    133 H133        3.4375  -11.1480  -49.3262 H         1 UNK         0.0800 
    134 H134        1.9403  -12.4932  -50.9374 H         1 UNK         0.0800 
    135 H135        3.3943  -13.3845  -50.5472 H         1 UNK         0.0800 
    136 H136       -0.1591  -13.6782  -51.4146 H         1 UNK         0.1150 
    137 H137       -0.0605  -17.9506  -51.7312 H         1 UNK         0.1150 
    138 H138        3.3063  -15.8410  -50.1198 H         1 UNK         0.1150 
    139 H139        2.2016  -19.0572  -51.4927 H         1 UNK         0.0800 
    140 H140        3.5130  -18.1944  -50.7336 H         1 UNK         0.0800 
    141 H141        0.2588  -20.0420  -50.4086 H         1 UNK         0.0800 
    142 H142       -0.3527  -18.7676  -49.3753 H         1 UNK         0.0800 
    143 H143        0.5468  -21.5271  -48.4135 H         1 UNK         0.0600 
    144 H144       -0.0702  -19.1871  -46.9019 H         1 UNK         0.3000 
    145 H145       -0.8564  -20.8287  -43.8401 H         1 UNK         0.0600 
    146 H146        0.9907  -19.3225  -43.1421 H         1 UNK         0.0600 
    147 H147        1.6306  -20.7026  -44.0108 H         1 UNK         0.0600 
    148 H148        1.5170  -19.1416  -44.8102 H         1 UNK         0.0600 
    149 H149       -0.7310  -18.0805  -44.7630 H         1 UNK         0.3000 
    150 H150       -4.1676  -17.8420  -45.6989 H         1 UNK         0.0600 
    151 H151       -4.3656  -17.7392  -43.2191 H         1 UNK         0.0600 
    152 H152       -4.2977  -16.1267  -43.9141 H         1 UNK         0.0600 
    153 H153       -2.8773  -16.8078  -43.1238 H         1 UNK         0.0600 
    154 H154       -2.1692  -15.8497  -45.3122 H         1 UNK         0.3000 
    155 H155       -0.3970  -16.2063  -48.3214 H         1 UNK         0.0600 
    156 H156       -2.6436  -14.1691  -47.8585 H         1 UNK         0.0600 
    157 H157       -1.2809  -13.9770  -48.9609 H         1 UNK         0.0600 
    158 H158       -2.4924  -15.2121  -49.2664 H         1 UNK         0.0600 
    159 H159       -0.4296  -13.9811  -46.6637 H         1 UNK         0.3000 
    160 H160        2.2758  -14.6200  -45.0983 H         1 UNK         0.0600 
    161 H161       -0.2772  -12.9708  -44.6745 H         1 UNK         0.0600 
    162 H162        0.9860  -12.6775  -45.8621 H         1 UNK         0.0600 
    163 H163        1.3333  -12.4894  -44.1590 H         1 UNK         0.0600 
    164 H164        2.0253  -15.5127  -43.0833 H         1 UNK         0.3000 
    165 H165       -0.2410  -15.0332  -40.5278 H         1 UNK         0.0600 
    166 H166       -0.1767  -17.4876  -40.0505 H         1 UNK         0.0600 
    167 H167       -1.3683  -17.0996  -41.2807 H         1 UNK         0.0600 
    168 H168        0.1726  -17.8081  -41.7459 H         1 UNK         0.0600 
    169 H169        2.2752  -16.4457  -41.3289 H         1 UNK         0.3000 
    170 H170        4.3325  -14.3737  -40.1781 H         1 UNK         0.0600 
    171 H171        3.6703  -15.8590  -37.5836 H         1 UNK         0.0600 
    172 H172        5.2737  -15.2752  -38.0300 H         1 UNK         0.0600 
    173 H173        3.9630  -14.1378  -37.7691 H         1 UNK         0.0600 
    174 H174        4.9610  -16.2489  -41.0984 H         1 UNK         0.3000 
    175 H175        5.5157  -19.1596  -40.5203 H         1 UNK         0.0600 
    176 H176        3.9954  -20.7079  -41.8169 H         1 UNK         0.0600 
    177 H177        2.6420  -19.6335  -41.4669 H         1 UNK         0.0600 
    178 H178        3.4695  -20.4659  -40.1598 H         1 UNK         0.0600 
    179 H179        5.9420  -18.4290  -42.5575 H         1 UNK         0.3000 
    180 H180        5.9384  -17.3909  -44.4275 H         1 UNK         0.0600 
    181 H181        4.7779  -17.4780  -46.6072 H         1 UNK         0.0600 
    182 H182        3.2050  -17.4712  -45.8139 H         1 UNK         0.0600 
    183 H183        4.2794  -18.8487  -45.6286 H         1 UNK         0.0600 
    184 H184        4.3974  -15.3080  -45.4385 H         1 UNK         0.3000 
    185 H185        4.0388  -13.0125  -43.5983 H         1 UNK         0.0600 
    186 H186        6.0707  -12.4718  -42.2692 H         1 UNK         0.0600 
    187 H187        7.0742  -12.5891  -43.7119 H         1 UNK         0.0600 
    188 H188        5.8722  -11.3084  -43.5662 H         1 UNK         0.0600 
    189 H189        5.6600  -13.5832  -46.0029 H         1 UNK         0.3000 
    190 H190       -2.4878  -19.6332  -48.0097 H         1 UNK         0.3000 
    191 H191       -4.1325  -21.1795  -49.6930 H         1 UNK         0.0600 
    192 H192       -4.7960  -18.9706  -48.8094 H         1 UNK         0.0600 
    193 H193       -6.0022  -20.1730  -48.3717 H         1 UNK         0.0600 
    194 H194       -4.8556  -19.6075  -47.1661 H         1 UNK         0.0600 
    195 H195       -3.4201  -21.5924  -46.1819 H         1 UNK         0.3000 
    196 H196       -5.0591  -23.8672  -45.7579 H         1 UNK         0.0600 
    197 H197       -3.6549  -24.1659  -43.7087 H         1 UNK         0.0600 
    198 H198       -4.1777  -22.5000  -43.9038 H         1 UNK         0.0600 
    199 H199       -2.5230  -22.9555  -44.3002 H         1 UNK         0.0600 
    200 H200       -1.5739  -23.6299  -46.6396 H         1 UNK         0.3000 
    201 H201       -1.0403  -26.4082  -46.7925 H         1 UNK         0.0600 
    202 H202        0.7310  -24.6743  -46.6868 H         1 UNK         0.0600 
    203 H203        0.2715  -24.0688  -48.2765 H         1 UNK         0.0600 
    204 H204        0.9529  -25.6820  -48.1093 H         1 UNK         0.0600 
    205 H205       -2.3679  -24.1578  -49.1958 H         1 UNK         0.3000 
    206 H206       -2.5778  -26.1399  -51.3237 H         1 UNK         0.0600 
    207 H207       -2.1156  -23.7506  -51.8117 H         1 UNK         0.0600 
    208 H208       -3.6276  -24.2474  -52.5495 H         1 UNK         0.0600 
    209 H209       -3.6435  -23.2843  -51.0734 H         1 UNK         0.0600 
    210 H210       -4.1167  -26.3935  -48.5931 H         1 UNK         0.3000 
    211 H211       -5.9716  -27.3369  -47.8521 H         1 UNK         0.0600 
    212 H212       -6.3632  -28.3070  -50.7339 H         1 UNK         0.0600 
    213 H213       -7.0936  -29.0043  -49.2947 H         1 UNK         0.0600 
    214 H214       -5.3535  -29.0869  -49.5172 H         1 UNK         0.0600 
    215 H215       -6.3117  -24.7723  -48.0309 H         1 UNK         0.3000 
    216 H216       -7.7680  -23.1348  -47.8199 H         1 UNK         0.0600 
    217 H217      -10.1930  -23.4275  -47.8367 H         1 UNK         0.0600 
    218 H218       -9.4663  -24.7632  -46.9578 H         1 UNK         0.0600 
    219 H219      -10.0656  -25.0027  -48.5991 H         1 UNK         0.0600 
    220 H220       -6.1964  -23.2205  -49.8679 H         1 UNK         0.3000 
    221 H221       -5.6517  -22.2893  -51.8068 H         1 UNK         0.0600 
    222 H222       -8.2274  -20.6750  -51.4481 H         1 UNK         0.0600 
    223 H223       -6.6685  -20.3083  -50.7088 H         1 UNK         0.0600 
    224 H224       -6.8543  -20.2261  -52.4460 H         1 UNK         0.0600 
    225 H225       -6.6367  -24.7833  -52.2810 H         1 UNK         0.3000 
    226 H226       -8.5898  -24.8041  -54.4408 H         1 UNK         0.0600 
    227 H227       -8.3257  -26.7290  -52.8802 H         1 UNK         0.0600 
    228 H228       -8.0198  -27.2030  -54.5462 H         1 UNK         0.0600 
    229 H229       -6.6741  -26.9755  -53.4388 H         1 UNK         0.0600 
    230 H230       -7.9781  -23.6776  -56.1910 H         1 UNK         0.3000 
    231 H231       -6.9689  -22.9488  -58.0130 H         1 UNK         0.0600 
    232 H232       -5.2711  -25.4987  -57.9693 H         1 UNK         0.0600 
    233 H233       -5.5487  -24.4478  -59.3501 H         1 UNK         0.0600 
    234 H234       -6.8834  -25.3625  -58.6694 H         1 UNK         0.0600 
    235 H235       -6.1282  -21.8145  -55.6554 H         1 UNK         0.3000 
    236 H236       -3.5218  -20.7221  -56.3679 H         1 UNK         0.0600 
    237 H237       -2.5912  -21.1269  -54.0754 H         1 UNK         0.0600 
    238 H238       -4.0316  -22.0288  -53.6264 H         1 UNK         0.0600 
    239 H239       -2.9337  -22.6662  -54.8479 H         1 UNK         0.0600 
    240 H240       -3.0630  -18.8690  -54.7447 H         1 UNK         0.3000 
    241 H241       -5.4957  -17.3114  -54.2712 H         1 UNK         0.0600 
    242 H242       -5.8952  -16.2485  -52.0873 H         1 UNK         0.3800 
    243 H243       -5.5501  -17.2184  -50.6857 H         1 UNK         0.3800 
    244 H244       -3.6778  -16.0725  -55.2159 H         1 UNK         0.0800 
    245 H245       -3.9623  -15.4762  -53.6166 H         1 UNK         0.0800 
    246 H246       -2.0758  -14.7990  -52.2243 H         1 UNK         0.0800 
    247 H247       -2.3213  -16.3562  -51.4646 H         1 UNK         0.0800 
@<TRIPOS>BOND
     1    1    2 1    
     2    1  127 1    
     3    1  128 1    
     4    1  129 1    
     5    2    3 2    
     6    2    4 am   BACKBONE|DICT|INTERRES
     7    4    5 1    
     8    4  130 1    
     9    5    6 1    
    10    5   65 1    
    11    5  131 1    
    12    6    7 1    
    13    6  132 1    
    14    6  133 1    
    15    7    8 1    
    16    8    9 1    
    17    8  134 1    
    18    8  135 1    
    19    9   10 ar   
    20    9   14 ar   
    21   10   11 ar   
    22   10  136 1    
    23   11   12 ar   
    24   11  126 1    
    25   12   13 ar   
    26   12  137 1    
    27   13   14 ar   
    28   13   15 1    
    29   14  138 1    
    30   15   16 1    
    31   15  139 1    
    32   15  140 1    
    33   16   17 1    
    34   17   18 1    
    35   17  141 1    
    36   17  142 1    
    37   18   19 1    
    38   18   67 1    
    39   18  143 1    
    40   19   20 am   BACKBONE|DICT|INTERRES
    41   19  144 1    
    42   20   21 2    
    43   20   22 1    
    44   22   23 1    
    45   22   24 1    
    46   22  145 1    
    47   23  146 1    
    48   23  147 1    
    49   23  148 1    
    50   24   25 am   BACKBONE|DICT|INTERRES
    51   24  149 1    
    52   25   26 2    
    53   25   27 1    
    54   27   28 1    
    55   27   29 1    
    56   27  150 1    
    57   28  151 1    
    58   28  152 1    
    59   28  153 1    
    60   29   30 am   BACKBONE|DICT|INTERRES
    61   29  154 1    
    62   30   31 2    
    63   30   32 1    
    64   32   33 1    
    65   32   34 1    
    66   32  155 1    
    67   33  156 1    
    68   33  157 1    
    69   33  158 1    
    70   34   35 am   BACKBONE|DICT|INTERRES
    71   34  159 1    
    72   35   36 2    
    73   35   37 1    
    74   37   38 1    
    75   37   39 1    
    76   37  160 1    
    77   38  161 1    
    78   38  162 1    
    79   38  163 1    
    80   39   40 am   BACKBONE|DICT|INTERRES
    81   39  164 1    
    82   40   41 2    
    83   40   42 1    
    84   42   43 1    
    85   42   44 1    
    86   42  165 1    
    87   43  166 1    
    88   43  167 1    
    89   43  168 1    
    90   44   45 am   BACKBONE|DICT|INTERRES
    91   44  169 1    
    92   45   46 2    
    93   45   47 1    
    94   47   48 1    
    95   47   49 1    
    96   47  170 1    
    97   48  171 1    
    98   48  172 1    
    99   48  173 1    
   100   49   50 am   BACKBONE|DICT|INTERRES
   101   49  174 1    
   102   50   51 2    
   103   50   52 1    
   104   52   53 1    
   105   52   54 1    
   106   52  175 1    
   107   53  176 1    
   108   53  177 1    
   109   53  178 1    
   110   54   55 am   BACKBONE|DICT|INTERRES
   111   54  179 1    
   112   55   56 2    
   113   55   57 1    
   114   57   58 1    
   115   57   59 1    
   116   57  180 1    
   117   58  181 1    
   118   58  182 1    
   119   58  183 1    
   120   59   60 am   BACKBONE|DICT|INTERRES
   121   59  184 1    
   122   60   61 2    
   123   60   62 1    
   124   62   63 1    
   125   62   64 1    
   126   62  185 1    
   127   63  186 1    
   128   63  187 1    
   129   63  188 1    
   130   64   65 am   BACKBONE|DICT|INTERRES
   131   64  189 1    
   132   65   66 2    
   133   67   68 2    
   134   67   69 am   BACKBONE|DICT|INTERRES
   135   69   70 1    
   136   69  190 1    
   137   70   71 1    
   138   70   72 1    
   139   70  191 1    
   140   71  192 1    
   141   71  193 1    
   142   71  194 1    
   143   72   73 2    
   144   72   74 am   BACKBONE|DICT|INTERRES
   145   74   75 1    
   146   74  195 1    
   147   75   76 1    
   148   75   77 1    
   149   75  196 1    
   150   76  197 1    
   151   76  198 1    
   152   76  199 1    
   153   77   78 2    
   154   77   79 am   BACKBONE|DICT|INTERRES
   155   79   80 1    
   156   79  200 1    
   157   80   81 1    
   158   80   82 1    
   159   80  201 1    
   160   81  202 1    
   161   81  203 1    
   162   81  204 1    
   163   82   83 2    
   164   82   84 am   BACKBONE|DICT|INTERRES
   165   84   85 1    
   166   84  205 1    
   167   85   86 1    
   168   85   87 1    
   169   85  206 1    
   170   86  207 1    
   171   86  208 1    
   172   86  209 1    
   173   87   88 2    
   174   87   89 am   BACKBONE|DICT|INTERRES
   175   89   90 1    
   176   89  210 1    
   177   90   91 1    
   178   90   92 1    
   179   90  211 1    
   180   91  212 1    
   181   91  213 1    
   182   91  214 1    
   183   92   93 2    
   184   92   94 am   BACKBONE|DICT|INTERRES
   185   94   95 1    
   186   94  215 1    
   187   95   96 1    
   188   95   97 1    
   189   95  216 1    
   190   96  217 1    
   191   96  218 1    
   192   96  219 1    
   193   97   98 2    
   194   97   99 am   BACKBONE|DICT|INTERRES
   195   99  100 1    
   196   99  220 1    
   197  100  101 1    
   198  100  102 1    
   199  100  221 1    
   200  101  222 1    
   201  101  223 1    
   202  101  224 1    
   203  102  103 2    
   204  102  104 am   BACKBONE|DICT|INTERRES
   205  104  105 1    
   206  104  225 1    
   207  105  106 1    
   208  105  107 1    
   209  105  226 1    
   210  106  227 1    
   211  106  228 1    
   212  106  229 1    
   213  107  108 2    
   214  107  109 am   BACKBONE|DICT|INTERRES
   215  109  110 1    
   216  109  230 1    
   217  110  111 1    
   218  110  112 1    
   219  110  231 1    
   220  111  232 1    
   221  111  233 1    
   222  111  234 1    
   223  112  113 2    
   224  112  114 am   BACKBONE|DICT|INTERRES
   225  114  115 1    
   226  114  235 1    
   227  115  116 1    
   228  115  117 1    
   229  115  236 1    
   230  116  237 1    
   231  116  238 1    
   232  116  239 1    
   233  117  118 2    
   234  117  119 am   BACKBONE|DICT|INTERRES
   235  119  120 1    
   236  119  240 1    
   237  120  121 1    
   238  120  124 1    
   239  120  241 1    
   240  121  122 am   BACKBONE|DICT|INTERRES
   241  121  123 2    
   242  122  242 1    
   243  122  243 1    
   244  124  125 1    
   245  124  244 1    
   246  124  245 1    
   247  125  126 1    
   248  126  246 1    
   249  126  247 1    
@<TRIPOS>SUBSTRUCTURE
     1 UNK         1 GROUP             0       ****    0 ROOT    
