@<TRIPOS>MOLECULE
3R540
247   249    1
SMALL
USER_CHARGES


@<TRIPOS>ATOM
      1 CA         -5.3856  -10.3042  -49.2044 C.3       0 UNK        -0.1800 
      2 C          -4.4740  -11.2877  -48.4842 C.2       0 UNK         0.5000 
      3 O          -4.9581  -12.1211  -47.7188 O.2       0 UNK        -0.5000 
      4 N          -3.1584  -11.1895  -48.7252 N.am      1 UNK        -0.5000 
      5 CA         -2.1026  -12.0285  -48.1359 C.3       1 UNK         0.1400 
      6 C6         -2.2527  -13.5340  -48.5013 C.3       23 UNK        -0.0398 
      7 S7         -0.6609  -14.3628  -48.8317 S.3       23 UNK        -0.2404 
      8 C8         -1.2622  -16.0561  -49.1077 C.3       23 UNK        -0.0205 
      9 C9         -0.2098  -16.9405  -49.7587 C.ar      23 UNK        -0.0193 
     10 C10        -0.1438  -17.0407  -51.1519 C.ar      23 UNK        -0.1150 
     11 C11         0.7828  -17.8924  -51.7608 C.ar      23 UNK        -0.0193 
     12 C12         1.6578  -18.6363  -50.9654 C.ar      23 UNK        -0.1150 
     13 C13         1.5836  -18.5666  -49.5734 C.ar      23 UNK        -0.0193 
     14 C14         0.6603  -17.7027  -48.9737 C.ar      23 UNK        -0.1150 
     15 C15         2.4677  -19.4655  -48.7204 C.3       23 UNK        -0.0205 
     16 S16         1.9400  -21.2172  -48.7645 S.3       23 UNK        -0.2404 
     17 C17         0.1314  -21.0891  -48.5472 C.3       23 UNK        -0.0398 
     18 CA         -0.5020  -22.2475  -47.7442 C.3       11 UNK         0.1400 
     19 N           0.0335  -22.3540  -46.3822 N.am      11 UNK        -0.5000 
     20 C          -0.2020  -23.3828  -45.5523 C.2       10 UNK         0.5000 
     21 O          -0.8723  -24.3647  -45.8672 O.2       10 UNK        -0.5000 
     22 CA          0.3455  -23.2823  -44.1133 C.3       10 UNK         0.1400 
     23 CB          1.7578  -23.8784  -44.0362 C.3       10 UNK        -0.1800 
     24 N           0.3724  -21.9148  -43.5964 N.am      10 UNK        -0.5000 
     25 C          -0.6890  -21.1018  -43.4926 C.2       9 UNK         0.5000 
     26 O          -1.8441  -21.4681  -43.7098 O.2       9 UNK        -0.5000 
     27 CA         -0.4106  -19.6177  -43.1714 C.3       9 UNK         0.1400 
     28 CB         -0.7342  -19.3098  -41.7030 C.3       9 UNK        -0.1800 
     29 N           0.9636  -19.1952  -43.4642 N.am      9 UNK        -0.5000 
     30 C           1.5535  -19.2471  -44.6670 C.2       8 UNK         0.5000 
     31 O           0.9717  -19.6215  -45.6837 O.2       8 UNK        -0.5000 
     32 CA          3.0487  -18.8909  -44.7382 C.3       8 UNK         0.1400 
     33 CB          3.2492  -17.4217  -45.1344 C.3       8 UNK        -0.1800 
     34 N           3.7374  -19.1516  -43.4729 N.am      8 UNK        -0.5000 
     35 C           4.2394  -20.3402  -43.1102 C.2       7 UNK         0.5000 
     36 O           4.1987  -21.3423  -43.8232 O.2       7 UNK        -0.5000 
     37 CA          4.8896  -20.4309  -41.7150 C.3       7 UNK         0.1400 
     38 CB          6.3855  -20.0911  -41.7979 C.3       7 UNK        -0.1800 
     39 N           4.2545  -19.5528  -40.7308 N.am      7 UNK        -0.5000 
     40 C           3.0441  -19.7646  -40.1951 C.2       6 UNK         0.5000 
     41 O           2.3652  -20.7658  -40.4228 O.2       6 UNK        -0.5000 
     42 CA          2.4796  -18.6537  -39.2822 C.3       6 UNK         0.1400 
     43 CB          2.8193  -18.9439  -37.8127 C.3       6 UNK        -0.1800 
     44 N           2.9318  -17.2970  -39.6220 N.am      6 UNK        -0.5000 
     45 C           2.7584  -16.7083  -40.8129 C.2       5 UNK         0.5000 
     46 O           2.2188  -17.2737  -41.7660 O.2       5 UNK        -0.5000 
     47 CA          3.3362  -15.2891  -40.9847 C.3       5 UNK         0.1400 
     48 CB          4.8676  -15.3032  -40.8384 C.3       5 UNK        -0.1800 
     49 N           3.0099  -14.7517  -42.3055 N.am      5 UNK        -0.5000 
     50 C           1.8287  -14.2301  -42.6554 C.2       4 UNK         0.5000 
     51 O           0.9190  -13.9819  -41.8605 O.2       4 UNK        -0.5000 
     52 CA          1.6283  -13.9683  -44.1612 C.3       4 UNK         0.1400 
     53 CB          0.5243  -14.8791  -44.7252 C.3       4 UNK        -0.1800 
     54 N           1.3062  -12.5714  -44.4535 N.am      4 UNK        -0.5000 
     55 C           2.1134  -11.5282  -44.2022 C.2       3 UNK         0.5000 
     56 O           3.2360  -11.6464  -43.7087 O.2       3 UNK        -0.5000 
     57 CA          1.6212  -10.1157  -44.5865 C.3       3 UNK         0.1400 
     58 CB          2.4589   -9.5497  -45.7449 C.3       3 UNK        -0.1800 
     59 N           0.2111  -10.0637  -44.9698 N.am      3 UNK        -0.5000 
     60 C          -0.8257  -10.1166  -44.1240 C.2       2 UNK         0.5000 
     61 O          -0.7056  -10.1547  -42.8992 O.2       2 UNK        -0.5000 
     62 CA         -2.2349  -10.1439  -44.7520 C.3       2 UNK         0.1400 
     63 CB         -2.9039   -8.7657  -44.6341 C.3       2 UNK        -0.1800 
     64 N          -2.2652  -10.5636  -46.1586 N.am      2 UNK        -0.5000 
     65 C          -1.9238  -11.7780  -46.6172 C.2       1 UNK         0.5000 
     66 O          -1.4700  -12.6605  -45.8895 O.2       1 UNK        -0.5000 
     67 C          -2.0351  -22.0756  -47.7448 C.2       11 UNK         0.5000 
     68 O          -2.7000  -22.5708  -48.6557 O.2       11 UNK        -0.5000 
     69 N          -2.5692  -21.3741  -46.7353 N.am      12 UNK        -0.5000 
     70 CA         -4.0042  -21.1829  -46.5368 C.3       12 UNK         0.1400 
     71 CB         -4.2507  -19.9360  -45.6748 C.3       12 UNK        -0.1800 
     72 C          -4.6542  -22.4312  -45.9208 C.2       12 UNK         0.5000 
     73 O          -5.7418  -22.8137  -46.3495 O.2       12 UNK        -0.5000 
     74 N          -3.9584  -23.0765  -44.9728 N.am      13 UNK        -0.5000 
     75 CA         -4.3709  -24.3358  -44.3451 C.3       13 UNK         0.1400 
     76 CB         -3.4171  -24.6696  -43.1890 C.3       13 UNK        -0.1800 
     77 C          -4.4471  -25.5066  -45.3453 C.2       13 UNK         0.5000 
     78 O          -5.3816  -26.3054  -45.2788 O.2       13 UNK        -0.5000 
     79 N          -3.4886  -25.5585  -46.2808 N.am      14 UNK        -0.5000 
     80 CA         -3.4561  -26.5001  -47.4032 C.3       14 UNK         0.1400 
     81 CB         -2.0238  -26.5490  -47.9600 C.3       14 UNK        -0.1800 
     82 C          -4.4482  -26.1482  -48.5319 C.2       14 UNK         0.5000 
     83 O          -4.6377  -26.9622  -49.4358 O.2       14 UNK        -0.5000 
     84 N          -5.0287  -24.9394  -48.4806 N.am      15 UNK        -0.5000 
     85 CA         -5.9357  -24.3211  -49.4548 C.3       15 UNK         0.1400 
     86 CB         -7.2282  -25.1443  -49.6253 C.3       15 UNK        -0.1800 
     87 C          -5.2745  -23.9790  -50.8062 C.2       15 UNK         0.5000 
     88 O          -5.9782  -23.6148  -51.7481 O.2       15 UNK        -0.5000 
     89 N          -3.9381  -24.0377  -50.8759 N.am      16 UNK        -0.5000 
     90 CA         -3.1417  -23.6746  -52.0467 C.3       16 UNK         0.1400 
     91 CB         -1.6835  -24.1050  -51.8300 C.3       16 UNK        -0.1800 
     92 C          -3.2221  -22.1716  -52.3532 C.2       16 UNK         0.5000 
     93 O          -3.3114  -21.7965  -53.5218 O.2       16 UNK        -0.5000 
     94 N          -3.2308  -21.3458  -51.2975 N.am      17 UNK        -0.5000 
     95 CA         -3.4203  -19.8975  -51.3909 C.3       17 UNK         0.1400 
     96 CB         -3.0509  -19.2416  -50.0531 C.3       17 UNK        -0.1800 
     97 C          -4.8533  -19.5147  -51.8028 C.2       17 UNK         0.5000 
     98 O          -5.0345  -18.5429  -52.5355 O.2       17 UNK        -0.5000 
     99 N          -5.8404  -20.2951  -51.3399 N.am      18 UNK        -0.5000 
    100 CA        -7.2591  -20.1133  -51.6512 C.3       18 UNK         0.1400 
    101 CB        -8.1097  -20.9192  -50.6566 C.3       18 UNK        -0.1800 
    102 C         -7.5883  -20.5039  -53.1029 C.2       18 UNK         0.5000 
    103 O         -8.3265  -19.7846  -53.7765 O.2       18 UNK        -0.5000 
    104 N         -7.0112  -21.6215  -53.5642 N.am      19 UNK        -0.5000 
    105 CA        -7.1334  -22.1222  -54.9342 C.3       19 UNK         0.1400 
    106 CB        -6.7154  -23.6015  -54.9517 C.3       19 UNK        -0.1800 
    107 C         -6.2957  -21.3285  -55.9565 C.2       19 UNK         0.5000 
    108 O         -6.5395  -21.4585  -57.1566 O.2       19 UNK        -0.5000 
    109 N         -5.3083  -20.5613  -55.4680 N.am      20 UNK        -0.5000 
    110 CA        -4.2534  -19.8746  -56.2240 C.3       20 UNK         0.1400 
    111 CB        -4.8363  -18.7725  -57.1323 C.3       20 UNK        -0.1800 
    112 C         -3.3362  -20.8677  -56.9726 C.2       20 UNK         0.5000 
    113 O         -2.8525  -20.5756  -58.0675 O.2       20 UNK        -0.5000 
    114 N         -3.1213  -22.0324  -56.3494 N.am      21 UNK        -0.5000 
    115 CA        -2.2570  -23.1154  -56.8152 C.3       21 UNK         0.1400 
    116 CB        -2.9075  -24.4509  -56.4192 C.3       21 UNK        -0.1800 
    117 C         -0.8365  -23.0109  -56.2262 C.2       21 UNK         0.5000 
    118 O          0.0516  -23.7492  -56.6548 O.2       21 UNK        -0.5000 
    119 N         -0.6552  -22.1182  -55.2453 N.am      22 UNK        -0.5000 
    120 CA         0.6122  -21.7924  -54.5823 C.3       22 UNK         0.1400 
    121 C          1.7266  -21.2640  -55.5350 C.2       22 UNK         0.5000 
    122 N          2.9896  -21.4266  -55.1630 N.am      22 UNK        -0.7600 
    123 O          1.4648  -20.6830  -56.5863 O.2       22 UNK        -0.5000 
    124 C124        0.3697  -20.8326  -53.3895 C.3       23 UNK        -0.0398 
    125 S125       -0.4134  -19.2433  -53.8557 S.3       23 UNK        -0.2404 
    126 C126        0.8155  -18.0307  -53.2751 C.3       23 UNK        -0.0205 
    127 H127       -4.8245   -9.6277  -49.8496 H         1 UNK         0.0600 
    128 H128       -5.9366   -9.7043  -48.4800 H         1 UNK         0.0600 
    129 H129       -6.1055  -10.8425  -49.8208 H         1 UNK         0.0600 
    130 H130       -2.8336  -10.4826  -49.3710 H         1 UNK         0.3000 
    131 H131       -1.1827  -11.6627  -48.5944 H         1 UNK         0.0600 
    132 H132       -2.8042  -14.0809  -47.7340 H         1 UNK         0.0800 
    133 H133       -2.8441  -13.6357  -49.4124 H         1 UNK         0.0800 
    134 H134       -1.5798  -16.4859  -48.1562 H         1 UNK         0.0800 
    135 H135       -2.1499  -16.0236  -49.7408 H         1 UNK         0.0800 
    136 H136       -0.8285  -16.4705  -51.7639 H         1 UNK         0.1150 
    137 H137        2.3769  -19.2999  -51.4233 H         1 UNK         0.1150 
    138 H138        0.5953  -17.6490  -47.8955 H         1 UNK         0.1150 
    139 H139        2.4782  -19.1156  -47.6906 H         1 UNK         0.0800 
    140 H140        3.4986  -19.3981  -49.0704 H         1 UNK         0.0800 
    141 H141       -0.3012  -21.0368  -49.5482 H         1 UNK         0.0800 
    142 H142       -0.1059  -20.1436  -48.0593 H         1 UNK         0.0800 
    143 H143       -0.2807  -23.1823  -48.2638 H         1 UNK         0.0600 
    144 H144        0.5632  -21.5534  -46.0520 H         1 UNK         0.3000 
    145 H145       -0.3075  -23.8658  -43.4631 H         1 UNK         0.0600 
    146 H146        1.7600  -24.9194  -44.3622 H         1 UNK         0.0600 
    147 H147        2.1426  -23.8558  -43.0163 H         1 UNK         0.0600 
    148 H148        2.4581  -23.3343  -44.6712 H         1 UNK         0.0600 
    149 H149        1.2826  -21.5279  -43.3928 H         1 UNK         0.3000 
    150 H150       -1.0752  -19.0214  -43.7996 H         1 UNK         0.0600 
    151 H151       -0.1235  -19.9052  -41.0247 H         1 UNK         0.0600 
    152 H152       -1.7790  -19.5299  -41.4804 H         1 UNK         0.0600 
    153 H153       -0.5664  -18.2574  -41.4724 H         1 UNK         0.0600 
    154 H154        1.4849  -18.7816  -42.6972 H         1 UNK         0.3000 
    155 H155        3.4929  -19.5104  -45.5201 H         1 UNK         0.0600 
    156 H156        2.6947  -17.1758  -46.0412 H         1 UNK         0.0600 
    157 H157        4.3006  -17.2085  -45.3275 H         1 UNK         0.0600 
    158 H158        2.9128  -16.7494  -44.3482 H         1 UNK         0.0600 
    159 H159        3.7318  -18.3989  -42.7980 H         1 UNK         0.3000 
    160 H160        4.7936  -21.4629  -41.3704 H         1 UNK         0.0600 
    161 H161        6.8950  -20.7436  -42.5083 H         1 UNK         0.0600 
    162 H162        6.8736  -20.2210  -40.8318 H         1 UNK         0.0600 
    163 H163        6.5485  -19.0623  -42.1217 H         1 UNK         0.0600 
    164 H164        4.7519  -18.7120  -40.4780 H         1 UNK         0.3000 
    165 H165        1.3932  -18.6700  -39.3888 H         1 UNK         0.0600 
    166 H166        2.4736  -19.9363  -37.5199 H         1 UNK         0.0600 
    167 H167        3.8944  -18.9044  -37.6331 H         1 UNK         0.0600 
    168 H168        2.3400  -18.2258  -37.1470 H         1 UNK         0.0600 
    169 H169        3.3940  -16.7831  -38.8857 H         1 UNK         0.3000 
    170 H170        2.9083  -14.6448  -40.2140 H         1 UNK         0.0600 
    171 H171        5.2850  -14.3074  -40.9901 H         1 UNK         0.0600 
    172 H172        5.3365  -15.9745  -41.5592 H         1 UNK         0.0600 
    173 H173        5.1708  -15.6265  -39.8420 H         1 UNK         0.0600 
    174 H174        3.6969  -14.9137  -43.0263 H         1 UNK         0.3000 
    175 H175        2.5557  -14.2058  -44.6865 H         1 UNK         0.0600 
    176 H176       -0.4509  -14.6318  -44.3043 H         1 UNK         0.0600 
    177 H177        0.7149  -15.9276  -44.4953 H         1 UNK         0.0600 
    178 H178        0.4535  -14.7904  -45.8096 H         1 UNK         0.0600 
    179 H179        0.3897  -12.4004  -44.8505 H         1 UNK         0.3000 
    180 H180        1.7678   -9.4738  -43.7154 H         1 UNK         0.0600 
    181 H181        2.3545  -10.1520  -46.6483 H         1 UNK         0.0600 
    182 H182        3.5187   -9.5250  -45.4879 H         1 UNK         0.0600 
    183 H183        2.1622   -8.5285  -45.9848 H         1 UNK         0.0600 
    184 H184        0.0129  -10.0306  -45.9586 H         1 UNK         0.3000 
    185 H185       -2.8273  -10.8611  -44.1802 H         1 UNK         0.0600 
    186 H186       -2.9326   -8.4315  -43.5961 H         1 UNK         0.0600 
    187 H187       -2.3680   -8.0085  -45.2080 H         1 UNK         0.0600 
    188 H188       -3.9332   -8.7942  -44.9923 H         1 UNK         0.0600 
    189 H189       -2.6280   -9.8926  -46.8200 H         1 UNK         0.3000 
    190 H190       -1.9619  -21.0347  -46.0025 H         1 UNK         0.3000 
    191 H191       -4.4749  -21.0141  -47.5073 H         1 UNK         0.0600 
    192 H192       -3.8131  -19.0488  -46.1329 H         1 UNK         0.0600 
    193 H193       -5.3192  -19.7492  -45.5608 H         1 UNK         0.0600 
    194 H194       -3.8300  -20.0391  -44.6748 H         1 UNK         0.0600 
    195 H195       -3.0973  -22.6569  -44.6355 H         1 UNK         0.3000 
    196 H196       -5.3695  -24.1857  -43.9297 H         1 UNK         0.0600 
    197 H197       -3.7635  -25.5467  -42.6411 H         1 UNK         0.0600 
    198 H198       -3.3503  -23.8456  -42.4782 H         1 UNK         0.0600 
    199 H199       -2.4119  -24.8867  -43.5487 H         1 UNK         0.0600 
    200 H200       -2.7040  -24.9162  -46.2117 H         1 UNK         0.3000 
    201 H201       -3.7161  -27.4941  -47.0338 H         1 UNK         0.0600 
    202 H202       -1.9423  -27.2661  -48.7778 H         1 UNK         0.0600 
    203 H203       -1.3127  -26.8529  -47.1916 H         1 UNK         0.0600 
    204 H204       -1.7084  -25.5770  -48.3419 H         1 UNK         0.0600 
    205 H205       -4.8148  -24.3588  -47.6803 H         1 UNK         0.3000 
    206 H206       -6.2203  -23.3619  -49.0209 H         1 UNK         0.0600 
    207 H207       -7.6855  -25.3634  -48.6604 H         1 UNK         0.0600 
    208 H208       -7.9650  -24.5979  -50.2152 H         1 UNK         0.0600 
    209 H209       -7.0446  -26.0907  -50.1343 H         1 UNK         0.0600 
    210 H210       -3.4309  -24.2455  -50.0269 H         1 UNK         0.3000 
    211 H211       -3.5384  -24.2154  -52.9081 H         1 UNK         0.0600 
    212 H212       -1.6126  -25.1784  -51.6529 H         1 UNK         0.0600 
    213 H213       -1.0764  -23.8806  -52.7079 H         1 UNK         0.0600 
    214 H214       -1.2330  -23.5947  -50.9775 H         1 UNK         0.0600 
    215 H215       -3.1400  -21.7481  -50.3693 H         1 UNK         0.3000 
    216 H216       -2.7458  -19.5094  -52.1549 H         1 UNK         0.0600 
    217 H217       -3.6448  -19.6364  -49.2299 H         1 UNK         0.0600 
    218 H218       -3.2203  -18.1656  -50.0902 H         1 UNK         0.0600 
    219 H219       -1.9989  -19.3932  -49.8168 H         1 UNK         0.0600 
    220 H220       -5.5967  -21.0906  -50.7709 H         1 UNK         0.3000 
    221 H221       -7.5040  -19.0563  -51.5253 H         1 UNK         0.0600 
    222 H222       -7.9219  -21.9901  -50.7341 H         1 UNK         0.0600 
    223 H223       -7.9086  -20.6166  -49.6288 H         1 UNK         0.0600 
    224 H224       -9.1733  -20.7611  -50.8391 H         1 UNK         0.0600 
    225 H225       -6.4787  -22.2015  -52.9207 H         1 UNK         0.3000 
    226 H226       -8.1798  -22.0558  -55.2389 H         1 UNK         0.0600 
    227 H227       -7.3350  -24.1944  -54.2785 H         1 UNK         0.0600 
    228 H228       -6.8190  -24.0286  -55.9499 H         1 UNK         0.0600 
    229 H229       -5.6756  -23.7276  -54.6463 H         1 UNK         0.0600 
    230 H230       -5.1877  -20.5560  -54.4644 H         1 UNK         0.3000 
    231 H231       -3.6225  -19.3858  -55.4799 H         1 UNK         0.0600 
    232 H232       -5.4172  -19.1871  -57.9563 H         1 UNK         0.0600 
    233 H233       -4.0408  -18.1670  -57.5679 H         1 UNK         0.0600 
    234 H234       -5.4835  -18.1003  -56.5689 H         1 UNK         0.0600 
    235 H235       -3.5010  -22.1345  -55.4129 H         1 UNK         0.3000 
    236 H236       -2.1715  -23.0801  -57.9031 H         1 UNK         0.0600 
    237 H237       -2.9958  -24.5499  -55.3369 H         1 UNK         0.0600 
    238 H238       -3.9061  -24.5445  -56.8466 H         1 UNK         0.0600 
    239 H239       -2.3193  -25.2957  -56.7800 H         1 UNK         0.0600 
    240 H240       -1.4482  -21.5584  -54.9647 H         1 UNK         0.3000 
    241 H241        0.9806  -22.7343  -54.1712 H         1 UNK         0.0600 
    242 H242        3.2379  -21.9012  -54.3088 H         1 UNK         0.3800 
    243 H243        3.7220  -21.0808  -55.7637 H         1 UNK         0.3800 
    244 H244       -0.2767  -21.3146  -52.6556 H         1 UNK         0.0800 
    245 H245        1.3086  -20.6548  -52.8680 H         1 UNK         0.0800 
    246 H246        1.8108  -18.3172  -53.6188 H         1 UNK         0.0800 
    247 H247        0.6012  -17.0647  -53.7346 H         1 UNK         0.0800 
@<TRIPOS>BOND
     1    1    2 1    
     2    1  127 1    
     3    1  128 1    
     4    1  129 1    
     5    2    3 2    
     6    2    4 am   BACKBONE|DICT|INTERRES
     7    4    5 1    
     8    4  130 1    
     9    5    6 1    
    10    5   65 1    
    11    5  131 1    
    12    6    7 1    
    13    6  132 1    
    14    6  133 1    
    15    7    8 1    
    16    8    9 1    
    17    8  134 1    
    18    8  135 1    
    19    9   10 ar   
    20    9   14 ar   
    21   10   11 ar   
    22   10  136 1    
    23   11   12 ar   
    24   11  126 1    
    25   12   13 ar   
    26   12  137 1    
    27   13   14 ar   
    28   13   15 1    
    29   14  138 1    
    30   15   16 1    
    31   15  139 1    
    32   15  140 1    
    33   16   17 1    
    34   17   18 1    
    35   17  141 1    
    36   17  142 1    
    37   18   19 1    
    38   18   67 1    
    39   18  143 1    
    40   19   20 am   BACKBONE|DICT|INTERRES
    41   19  144 1    
    42   20   21 2    
    43   20   22 1    
    44   22   23 1    
    45   22   24 1    
    46   22  145 1    
    47   23  146 1    
    48   23  147 1    
    49   23  148 1    
    50   24   25 am   BACKBONE|DICT|INTERRES
    51   24  149 1    
    52   25   26 2    
    53   25   27 1    
    54   27   28 1    
    55   27   29 1    
    56   27  150 1    
    57   28  151 1    
    58   28  152 1    
    59   28  153 1    
    60   29   30 am   BACKBONE|DICT|INTERRES
    61   29  154 1    
    62   30   31 2    
    63   30   32 1    
    64   32   33 1    
    65   32   34 1    
    66   32  155 1    
    67   33  156 1    
    68   33  157 1    
    69   33  158 1    
    70   34   35 am   BACKBONE|DICT|INTERRES
    71   34  159 1    
    72   35   36 2    
    73   35   37 1    
    74   37   38 1    
    75   37   39 1    
    76   37  160 1    
    77   38  161 1    
    78   38  162 1    
    79   38  163 1    
    80   39   40 am   BACKBONE|DICT|INTERRES
    81   39  164 1    
    82   40   41 2    
    83   40   42 1    
    84   42   43 1    
    85   42   44 1    
    86   42  165 1    
    87   43  166 1    
    88   43  167 1    
    89   43  168 1    
    90   44   45 am   BACKBONE|DICT|INTERRES
    91   44  169 1    
    92   45   46 2    
    93   45   47 1    
    94   47   48 1    
    95   47   49 1    
    96   47  170 1    
    97   48  171 1    
    98   48  172 1    
    99   48  173 1    
   100   49   50 am   BACKBONE|DICT|INTERRES
   101   49  174 1    
   102   50   51 2    
   103   50   52 1    
   104   52   53 1    
   105   52   54 1    
   106   52  175 1    
   107   53  176 1    
   108   53  177 1    
   109   53  178 1    
   110   54   55 am   BACKBONE|DICT|INTERRES
   111   54  179 1    
   112   55   56 2    
   113   55   57 1    
   114   57   58 1    
   115   57   59 1    
   116   57  180 1    
   117   58  181 1    
   118   58  182 1    
   119   58  183 1    
   120   59   60 am   BACKBONE|DICT|INTERRES
   121   59  184 1    
   122   60   61 2    
   123   60   62 1    
   124   62   63 1    
   125   62   64 1    
   126   62  185 1    
   127   63  186 1    
   128   63  187 1    
   129   63  188 1    
   130   64   65 am   BACKBONE|DICT|INTERRES
   131   64  189 1    
   132   65   66 2    
   133   67   68 2    
   134   67   69 am   BACKBONE|DICT|INTERRES
   135   69   70 1    
   136   69  190 1    
   137   70   71 1    
   138   70   72 1    
   139   70  191 1    
   140   71  192 1    
   141   71  193 1    
   142   71  194 1    
   143   72   73 2    
   144   72   74 am   BACKBONE|DICT|INTERRES
   145   74   75 1    
   146   74  195 1    
   147   75   76 1    
   148   75   77 1    
   149   75  196 1    
   150   76  197 1    
   151   76  198 1    
   152   76  199 1    
   153   77   78 2    
   154   77   79 am   BACKBONE|DICT|INTERRES
   155   79   80 1    
   156   79  200 1    
   157   80   81 1    
   158   80   82 1    
   159   80  201 1    
   160   81  202 1    
   161   81  203 1    
   162   81  204 1    
   163   82   83 2    
   164   82   84 am   BACKBONE|DICT|INTERRES
   165   84   85 1    
   166   84  205 1    
   167   85   86 1    
   168   85   87 1    
   169   85  206 1    
   170   86  207 1    
   171   86  208 1    
   172   86  209 1    
   173   87   88 2    
   174   87   89 am   BACKBONE|DICT|INTERRES
   175   89   90 1    
   176   89  210 1    
   177   90   91 1    
   178   90   92 1    
   179   90  211 1    
   180   91  212 1    
   181   91  213 1    
   182   91  214 1    
   183   92   93 2    
   184   92   94 am   BACKBONE|DICT|INTERRES
   185   94   95 1    
   186   94  215 1    
   187   95   96 1    
   188   95   97 1    
   189   95  216 1    
   190   96  217 1    
   191   96  218 1    
   192   96  219 1    
   193   97   98 2    
   194   97   99 am   BACKBONE|DICT|INTERRES
   195   99  100 1    
   196   99  220 1    
   197  100  101 1    
   198  100  102 1    
   199  100  221 1    
   200  101  222 1    
   201  101  223 1    
   202  101  224 1    
   203  102  103 2    
   204  102  104 am   BACKBONE|DICT|INTERRES
   205  104  105 1    
   206  104  225 1    
   207  105  106 1    
   208  105  107 1    
   209  105  226 1    
   210  106  227 1    
   211  106  228 1    
   212  106  229 1    
   213  107  108 2    
   214  107  109 am   BACKBONE|DICT|INTERRES
   215  109  110 1    
   216  109  230 1    
   217  110  111 1    
   218  110  112 1    
   219  110  231 1    
   220  111  232 1    
   221  111  233 1    
   222  111  234 1    
   223  112  113 2    
   224  112  114 am   BACKBONE|DICT|INTERRES
   225  114  115 1    
   226  114  235 1    
   227  115  116 1    
   228  115  117 1    
   229  115  236 1    
   230  116  237 1    
   231  116  238 1    
   232  116  239 1    
   233  117  118 2    
   234  117  119 am   BACKBONE|DICT|INTERRES
   235  119  120 1    
   236  119  240 1    
   237  120  121 1    
   238  120  124 1    
   239  120  241 1    
   240  121  122 am   BACKBONE|DICT|INTERRES
   241  121  123 2    
   242  122  242 1    
   243  122  243 1    
   244  124  125 1    
   245  124  244 1    
   246  124  245 1    
   247  125  126 1    
   248  126  246 1    
   249  126  247 1    
@<TRIPOS>SUBSTRUCTURE
     1 UNK         1 GROUP             0       ****    0 ROOT    
