@<TRIPOS>MOLECULE
3R540
247   249    1
SMALL
USER_CHARGES


@<TRIPOS>ATOM
      1 CA          1.0924  -10.7423  -48.1178 C.3       0 UNK        -0.1800 
      2 C           0.6848  -11.9134  -47.2364 C.2       0 UNK         0.5000 
      3 O           1.4370  -12.2952  -46.3373 O.2       0 UNK        -0.5000 
      4 N          -0.4918  -12.4980  -47.5008 N.am      1 UNK        -0.5000 
      5 CA         -1.0103  -13.6942  -46.8259 C.3       1 UNK         0.1400 
      6 C6         -2.3135  -14.2369  -47.4627 C.3       23 UNK        -0.0398 
      7 S7         -2.1428  -14.5474  -49.2544 S.3       23 UNK        -0.2404 
      8 C8         -2.3123  -16.3638  -49.3641 C.3       23 UNK        -0.0205 
      9 C9         -3.6929  -16.9173  -49.0171 C.ar      23 UNK        -0.0193 
     10 C10        -4.8646  -16.1794  -49.2229 C.ar      23 UNK        -0.1150 
     11 C11        -6.1177  -16.7308  -48.9396 C.ar      23 UNK        -0.0193 
     12 C12        -6.1948  -18.0330  -48.4361 C.ar      23 UNK        -0.1150 
     13 C13        -5.0347  -18.7815  -48.2208 C.ar      23 UNK        -0.0193 
     14 C14        -3.7903  -18.2191  -48.5163 C.ar      23 UNK        -0.1150 
     15 C15        -5.1219  -20.1889  -47.6520 C.3       23 UNK        -0.0205 
     16 S16        -4.9009  -20.1452  -45.8510 S.3       23 UNK        -0.2404 
     17 C17        -5.1830  -21.8741  -45.3427 C.3       23 UNK        -0.0398 
     18 CA         -4.1465  -22.8907  -45.8806 C.3       11 UNK         0.1400 
     19 N          -2.7499  -22.4750  -45.6723 N.am      11 UNK        -0.5000 
     20 C          -1.6755  -23.1264  -46.1468 C.2       10 UNK         0.5000 
     21 O          -1.7545  -24.1864  -46.7709 O.2       10 UNK        -0.5000 
     22 CA         -0.2854  -22.5089  -45.9231 C.3       10 UNK         0.1400 
     23 CB          0.2718  -21.9933  -47.2577 C.3       10 UNK        -0.1800 
     24 N          -0.2699  -21.4246  -44.9410 N.am      10 UNK        -0.5000 
     25 C          -0.2797  -21.6048  -43.6105 C.2       9 UNK         0.5000 
     26 O          -0.3564  -22.7136  -43.0804 O.2       9 UNK        -0.5000 
     27 CA         -0.1925  -20.3473  -42.7176 C.3       9 UNK         0.1400 
     28 CB          1.2446  -20.1485  -42.2137 C.3       9 UNK        -0.1800 
     29 N          -0.6303  -19.1278  -43.3984 N.am      9 UNK        -0.5000 
     30 C          -1.8985  -18.8876  -43.7635 C.2       8 UNK         0.5000 
     31 O          -2.8351  -19.6041  -43.4133 O.2       8 UNK        -0.5000 
     32 CA         -2.1673  -17.6860  -44.6985 C.3       8 UNK         0.1400 
     33 CB         -2.8902  -16.5643  -43.9384 C.3       8 UNK        -0.1800 
     34 N          -0.9565  -17.1572  -45.3403 N.am      8 UNK        -0.5000 
     35 C          -0.2114  -17.8429  -46.2225 C.2       7 UNK         0.5000 
     36 O          -0.5529  -18.9363  -46.6678 O.2       7 UNK        -0.5000 
     37 CA          1.1700  -17.2808  -46.6241 C.3       7 UNK         0.1400 
     38 CB          1.2230  -16.8849  -48.1083 C.3       7 UNK        -0.1800 
     39 N           1.6494  -16.1657  -45.8056 N.am      7 UNK        -0.5000 
     40 C           1.9572  -16.2337  -44.5027 C.2       6 UNK         0.5000 
     41 O           1.8071  -17.2523  -43.8254 O.2       6 UNK        -0.5000 
     42 CA          2.4874  -14.9370  -43.8561 C.3       6 UNK         0.1400 
     43 CB          3.3634  -15.1974  -42.6135 C.3       6 UNK        -0.1800 
     44 N           3.1649  -14.0475  -44.8082 N.am      6 UNK        -0.5000 
     45 C           4.3216  -14.2669  -45.4525 C.2       5 UNK         0.5000 
     46 O           4.9747  -15.3075  -45.3734 O.2       5 UNK        -0.5000 
     47 CA          4.8494  -13.1054  -46.3170 C.3       5 UNK         0.1400 
     48 CB          4.3776  -13.2398  -47.7737 C.3       5 UNK        -0.1800 
     49 N           4.4770  -11.7886  -45.7813 N.am      5 UNK        -0.5000 
     50 C           5.0309  -11.2611  -44.6790 C.2       4 UNK         0.5000 
     51 O           5.9056  -11.8295  -44.0248 O.2       4 UNK        -0.5000 
     52 CA          4.5506   -9.8751  -44.2100 C.3       4 UNK         0.1400 
     53 CB          5.6087   -8.8143  -44.5528 C.3       4 UNK        -0.1800 
     54 N           3.2708   -9.4417  -44.7790 N.am      4 UNK        -0.5000 
     55 C           2.0245   -9.7281  -44.3716 C.2       3 UNK         0.5000 
     56 O           1.0623   -9.1952  -44.9238 O.2       3 UNK        -0.5000 
     57 CA          1.7847  -10.7287  -43.2119 C.3       3 UNK         0.1400 
     58 CB          1.9158  -10.0624  -41.8234 C.3       3 UNK        -0.1800 
     59 N           0.4944  -11.4240  -43.3521 N.am      3 UNK        -0.5000 
     60 C          -0.7455  -10.9645  -43.1151 C.2       2 UNK         0.5000 
     61 O          -1.0008   -9.8665  -42.6171 O.2       2 UNK        -0.5000 
     62 CA         -1.8971  -11.9028  -43.5310 C.3       2 UNK         0.1400 
     63 CB         -3.2855  -11.2542  -43.3805 C.3       2 UNK        -0.1800 
     64 N          -1.7286  -12.3278  -44.9202 N.am      2 UNK        -0.5000 
     65 C          -1.1809  -13.4837  -45.3102 C.2       1 UNK         0.5000 
     66 O          -0.7568  -14.3376  -44.5332 O.2       1 UNK        -0.5000 
     67 C          -4.4443  -24.3025  -45.3281 C.2       11 UNK         0.5000 
     68 O          -5.2395  -25.0302  -45.9228 O.2       11 UNK        -0.5000 
     69 N          -3.7494  -24.6864  -44.2469 N.am      12 UNK        -0.5000 
     70 CA         -3.7919  -26.0189  -43.6382 C.3       12 UNK         0.1400 
     71 CB         -3.0500  -25.9692  -42.2939 C.3       12 UNK        -0.1800 
     72 C          -3.2084  -27.1339  -44.5328 C.2       12 UNK         0.5000 
     73 O          -3.5600  -28.2991  -44.3483 O.2       12 UNK        -0.5000 
     74 N          -2.3538  -26.7611  -45.4947 N.am      13 UNK        -0.5000 
     75 CA         -1.7559  -27.6382  -46.5014 C.3       13 UNK         0.1400 
     76 CB         -0.2481  -27.3354  -46.5828 C.3       13 UNK        -0.1800 
     77 C          -2.4542  -27.4623  -47.8657 C.2       13 UNK         0.5000 
     78 O          -1.8097  -27.6042  -48.9060 O.2       13 UNK        -0.5000 
     79 N          -3.7512  -27.1152  -47.8435 N.am      14 UNK        -0.5000 
     80 CA         -4.6116  -26.8292  -48.9980 C.3       14 UNK         0.1400 
     81 CB         -4.8505  -28.1040  -49.8341 C.3       14 UNK        -0.1800 
     82 C          -4.0886  -25.6458  -49.8373 C.2       14 UNK         0.5000 
     83 O          -4.0829  -25.7086  -51.0673 O.2       14 UNK        -0.5000 
     84 N          -3.6138  -24.6038  -49.1390 N.am      15 UNK        -0.5000 
     85 CA         -2.9581  -23.4082  -49.6780 C.3       15 UNK         0.1400 
     86 CB         -3.9420  -22.5805  -50.5248 C.3       15 UNK        -0.1800 
     87 C          -1.6538  -23.7703  -50.4140 C.2       15 UNK         0.5000 
     88 O          -1.4311  -23.3203  -51.5377 O.2       15 UNK        -0.5000 
     89 N          -0.8461  -24.6285  -49.7708 N.am      16 UNK        -0.5000 
     90 CA          0.3669  -25.2705  -50.2937 C.3       16 UNK         0.1400 
     91 CB          1.5080  -24.2423  -50.4513 C.3       16 UNK        -0.1800 
     92 C           0.0908  -26.0571  -51.5927 C.2       16 UNK         0.5000 
     93 O           0.7866  -25.8672  -52.5896 O.2       16 UNK        -0.5000 
     94 N          -0.9666  -26.8820  -51.5737 N.am      17 UNK        -0.5000 
     95 CA         -1.5378  -27.6005  -52.7212 C.3       17 UNK         0.1400 
     96 CB         -0.6112  -28.7560  -53.1511 C.3       17 UNK        -0.1800 
     97 C          -1.9052  -26.6494  -53.8845 C.2       17 UNK         0.5000 
     98 O          -1.5655  -26.9084  -55.0403 O.2       17 UNK        -0.5000 
     99 N          -2.5641  -25.5400  -53.5256 N.am      18 UNK        -0.5000 
    100 CA        -2.9841  -24.4103  -54.3587 C.3       18 UNK         0.1400 
    101 CB        -3.9895  -24.8621  -55.4374 C.3       18 UNK        -0.1800 
    102 C         -1.8399  -23.5519  -54.9456 C.2       18 UNK         0.5000 
    103 O         -2.1204  -22.6713  -55.7604 O.2       18 UNK        -0.5000 
    104 N         -0.5849  -23.7653  -54.5215 N.am      19 UNK        -0.5000 
    105 CA         0.5631  -22.9531  -54.9414 C.3       19 UNK         0.1400 
    106 CB         1.8691  -23.7064  -54.6516 C.3       19 UNK        -0.1800 
    107 C          0.5919  -21.5610  -54.2793 C.2       19 UNK         0.5000 
    108 O          1.1691  -20.6349  -54.8501 O.2       19 UNK        -0.5000 
    109 N         -0.0330  -21.4352  -53.1030 N.am      20 UNK        -0.5000 
    110 CA        -0.1603  -20.2080  -52.3200 C.3       20 UNK         0.1400 
    111 CB         0.5629  -20.4009  -50.9733 C.3       20 UNK        -0.1800 
    112 C         -1.6473  -19.8453  -52.1444 C.2       20 UNK         0.5000 
    113 O         -2.0415  -19.3707  -51.0795 O.2       20 UNK        -0.5000 
    114 N         -2.4545  -20.1029  -53.1840 N.am      21 UNK        -0.5000 
    115 CA        -3.8894  -19.8171  -53.2382 C.3       21 UNK         0.1400 
    116 CB        -4.4710  -20.4593  -54.5078 C.3       21 UNK        -0.1800 
    117 C         -4.2203  -18.3121  -53.1907 C.2       21 UNK         0.5000 
    118 O         -3.3733  -17.4740  -53.5100 O.2       21 UNK        -0.5000 
    119 N         -5.4730  -18.0117  -52.8252 N.am      22 UNK        -0.5000 
    120 CA        -6.0220  -16.6493  -52.7156 C.3       22 UNK         0.1400 
    121 C         -6.1804  -15.8851  -54.0666 C.2       22 UNK         0.5000 
    122 N         -6.1513  -16.5516  -55.2147 N.am      22 UNK        -0.7600 
    123 O         -6.3255  -14.6661  -54.0762 O.2       22 UNK        -0.5000 
    124 C124       -7.3510  -16.6491  -51.9067 C.3       23 UNK        -0.0398 
    125 S125       -7.5133  -15.1859  -50.8264 S.3       23 UNK        -0.2404 
    126 C126       -7.3921  -15.9220  -49.1598 C.3       23 UNK        -0.0205 
    127 H127        2.0826  -10.9175  -48.5380 H         1 UNK         0.0600 
    128 H128        1.1266   -9.8233  -47.5343 H         1 UNK         0.0600 
    129 H129        0.3950  -10.5959  -48.9427 H         1 UNK         0.0600 
    130 H130       -1.0558  -12.1512  -48.2639 H         1 UNK         0.3000 
    131 H131       -0.2488  -14.4632  -46.9417 H         1 UNK         0.0600 
    132 H132       -3.1332  -13.5301  -47.3236 H         1 UNK         0.0800 
    133 H133       -2.6229  -15.1600  -46.9692 H         1 UNK         0.0800 
    134 H134       -1.5628  -16.8263  -48.7238 H         1 UNK         0.0800 
    135 H135       -2.0751  -16.6692  -50.3840 H         1 UNK         0.0800 
    136 H136       -4.8113  -15.1763  -49.6202 H         1 UNK         0.1150 
    137 H137       -7.1580  -18.4644  -48.2026 H         1 UNK         0.1150 
    138 H138       -2.8921  -18.8008  -48.3581 H         1 UNK         0.1150 
    139 H139       -6.0825  -20.6440  -47.8978 H         1 UNK         0.0800 
    140 H140       -4.3490  -20.8137  -48.1003 H         1 UNK         0.0800 
    141 H141       -6.1907  -22.1581  -45.6521 H         1 UNK         0.0800 
    142 H142       -5.1876  -21.8850  -44.2511 H         1 UNK         0.0800 
    143 H143       -4.2930  -22.9500  -46.9592 H         1 UNK         0.0600 
    144 H144       -2.6125  -21.6038  -45.1781 H         1 UNK         0.3000 
    145 H145        0.3720  -23.3061  -45.5699 H         1 UNK         0.0600 
    146 H146       -0.4007  -21.2772  -47.7305 H         1 UNK         0.0600 
    147 H147        1.2426  -21.5143  -47.1300 H         1 UNK         0.0600 
    148 H148        0.4046  -22.8154  -47.9581 H         1 UNK         0.0600 
    149 H149       -0.2512  -20.4835  -45.3181 H         1 UNK         0.3000 
    150 H150       -0.8388  -20.5096  -41.8525 H         1 UNK         0.0600 
    151 H151        1.5902  -21.0226  -41.6602 H         1 UNK         0.0600 
    152 H152        1.3133  -19.2910  -41.5439 H         1 UNK         0.0600 
    153 H153        1.9400  -19.9849  -43.0381 H         1 UNK         0.0600 
    154 H154        0.0973  -18.4782  -43.6771 H         1 UNK         0.3000 
    155 H155       -2.8323  -18.0357  -45.4901 H         1 UNK         0.0600 
    156 H156       -3.8015  -16.9361  -43.4680 H         1 UNK         0.0600 
    157 H157       -3.1839  -15.7568  -44.6079 H         1 UNK         0.0600 
    158 H158       -2.2634  -16.1433  -43.1516 H         1 UNK         0.0600 
    159 H159       -0.6225  -16.2634  -44.9950 H         1 UNK         0.3000 
    160 H160        1.8754  -18.1027  -46.4851 H         1 UNK         0.0600 
    161 H161        2.2455  -16.6669  -48.4172 H         1 UNK         0.0600 
    162 H162        0.6191  -16.0060  -48.3257 H         1 UNK         0.0600 
    163 H163        0.8627  -17.6951  -48.7431 H         1 UNK         0.0600 
    164 H164        1.8091  -15.2884  -46.2778 H         1 UNK         0.3000 
    165 H165        1.6098  -14.3921  -43.5107 H         1 UNK         0.0600 
    166 H166        4.2302  -15.8152  -42.8489 H         1 UNK         0.0600 
    167 H167        3.7232  -14.2632  -42.1822 H         1 UNK         0.0600 
    168 H168        2.7970  -15.7149  -41.8384 H         1 UNK         0.0600 
    169 H169        2.6611  -13.2047  -45.0653 H         1 UNK         0.3000 
    170 H170        5.9397  -13.1712  -46.3202 H         1 UNK         0.0600 
    171 H171        4.7496  -14.1657  -48.2142 H         1 UNK         0.0600 
    172 H172        3.2925  -13.2598  -47.8564 H         1 UNK         0.0600 
    173 H173        4.7474  -12.4181  -48.3870 H         1 UNK         0.0600 
    174 H174        3.7354  -11.2900  -46.2527 H         1 UNK         0.3000 
    175 H175        4.4772   -9.9136  -43.1250 H         1 UNK         0.0600 
    176 H176        5.7454   -8.7145  -45.6304 H         1 UNK         0.0600 
    177 H177        5.3303   -7.8371  -44.1575 H         1 UNK         0.0600 
    178 H178        6.5777   -9.0709  -44.1221 H         1 UNK         0.0600 
    179 H179        3.3578   -8.7979  -45.5510 H         1 UNK         0.3000 
    180 H180        2.5325  -11.5179  -43.2771 H         1 UNK         0.0600 
    181 H181        1.3170   -9.1544  -41.7495 H         1 UNK         0.0600 
    182 H182        2.9418   -9.7777  -41.5996 H         1 UNK         0.0600 
    183 H183        1.5970  -10.7385  -41.0300 H         1 UNK         0.0600 
    184 H184        0.5454  -12.3161  -43.8233 H         1 UNK         0.3000 
    185 H185       -1.8641  -12.7673  -42.8643 H         1 UNK         0.0600 
    186 H186       -4.0763  -11.9494  -43.6629 H         1 UNK         0.0600 
    187 H187       -3.4702  -10.9580  -42.3471 H         1 UNK         0.0600 
    188 H188       -3.3844  -10.3636  -44.0024 H         1 UNK         0.0600 
    189 H189       -1.9720  -11.6479  -45.6266 H         1 UNK         0.3000 
    190 H190       -3.0997  -24.0286  -43.8394 H         1 UNK         0.3000 
    191 H191       -4.8373  -26.2684  -43.4452 H         1 UNK         0.0600 
    192 H192       -2.0020  -25.6954  -42.4235 H         1 UNK         0.0600 
    193 H193       -3.5052  -25.2447  -41.6184 H         1 UNK         0.0600 
    194 H194       -3.0776  -26.9387  -41.7946 H         1 UNK         0.0600 
    195 H195       -2.1568  -25.7739  -45.6169 H         1 UNK         0.3000 
    196 H196       -1.8748  -28.6846  -46.2143 H         1 UNK         0.0600 
    197 H197        0.2292  -27.4549  -45.6102 H         1 UNK         0.0600 
    198 H198       -0.0577  -26.3178  -46.9253 H         1 UNK         0.0600 
    199 H199        0.2537  -28.0145  -47.2732 H         1 UNK         0.0600 
    200 H200       -4.1845  -26.9816  -46.9395 H         1 UNK         0.3000 
    201 H201       -5.5746  -26.5130  -48.5943 H         1 UNK         0.0600 
    202 H202       -5.5792  -27.9215  -50.6247 H         1 UNK         0.0600 
    203 H203       -5.2399  -28.9126  -49.2157 H         1 UNK         0.0600 
    204 H204       -3.9356  -28.4576  -50.3099 H         1 UNK         0.0600 
    205 H205       -3.5849  -24.6983  -48.1334 H         1 UNK         0.3000 
    206 H206       -2.6698  -22.7856  -48.8325 H         1 UNK         0.0600 
    207 H207       -4.8823  -22.4193  -49.9982 H         1 UNK         0.0600 
    208 H208       -4.1697  -23.0554  -51.4787 H         1 UNK         0.0600 
    209 H209       -3.5180  -21.6013  -50.7329 H         1 UNK         0.0600 
    210 H210       -1.1385  -24.9346  -48.8515 H         1 UNK         0.3000 
    211 H211        0.6797  -26.0052  -49.5505 H         1 UNK         0.0600 
    212 H212        1.7571  -23.7736  -49.5012 H         1 UNK         0.0600 
    213 H213        2.4180  -24.7212  -50.8145 H         1 UNK         0.0600 
    214 H214        1.2516  -23.4539  -51.1591 H         1 UNK         0.0600 
    215 H215       -1.4499  -27.0081  -50.6875 H         1 UNK         0.3000 
    216 H216       -2.4752  -28.0380  -52.3752 H         1 UNK         0.0600 
    217 H217       -1.0762  -29.3596  -53.9313 H         1 UNK         0.0600 
    218 H218        0.3386  -28.3902  -53.5425 H         1 UNK         0.0600 
    219 H219       -0.3955  -29.4191  -52.3134 H         1 UNK         0.0600 
    220 H220       -2.8276  -25.4585  -52.5471 H         1 UNK         0.3000 
    221 H221       -3.5191  -23.7459  -53.6802 H         1 UNK         0.0600 
    222 H222       -3.5154  -25.4793  -56.2007 H         1 UNK         0.0600 
    223 H223       -4.8062  -25.4357  -54.9991 H         1 UNK         0.0600 
    224 H224       -4.4340  -24.0042  -55.9432 H         1 UNK         0.0600 
    225 H225       -0.4080  -24.4892  -53.8347 H         1 UNK         0.3000 
    226 H226        0.4988  -22.8047  -56.0215 H         1 UNK         0.0600 
    227 H227        1.8531  -24.7096  -55.0781 H         1 UNK         0.0600 
    228 H228        2.7229  -23.1819  -55.0821 H         1 UNK         0.0600 
    229 H229        2.0519  -23.7971  -53.5807 H         1 UNK         0.0600 
    230 H230       -0.5097  -22.2450  -52.7077 H         1 UNK         0.3000 
    231 H231        0.3062  -19.3691  -52.8396 H         1 UNK         0.0600 
    232 H232        0.5400  -19.4866  -50.3801 H         1 UNK         0.0600 
    233 H233        1.6098  -20.6650  -51.1221 H         1 UNK         0.0600 
    234 H234        0.1007  -21.1892  -50.3785 H         1 UNK         0.0600 
    235 H235       -2.0418  -20.4886  -54.0206 H         1 UNK         0.3000 
    236 H236       -4.3603  -20.2831  -52.3722 H         1 UNK         0.0600 
    237 H237       -4.3402  -21.5406  -54.4965 H         1 UNK         0.0600 
    238 H238       -5.5413  -20.2700  -54.5966 H         1 UNK         0.0600 
    239 H239       -3.9926  -20.0732  -55.4088 H         1 UNK         0.0600 
    240 H240       -6.1099  -18.7630  -52.6053 H         1 UNK         0.3000 
    241 H241       -5.2787  -16.0862  -52.1476 H         1 UNK         0.0600 
    242 H242       -6.0259  -17.5505  -55.2272 H         1 UNK         0.3800 
    243 H243       -6.2490  -16.0479  -56.0825 H         1 UNK         0.3800 
    244 H244       -8.2204  -16.7011  -52.5648 H         1 UNK         0.0800 
    245 H245       -7.4203  -17.5391  -51.2803 H         1 UNK         0.0800 
    246 H246       -8.2755  -16.5393  -48.9893 H         1 UNK         0.0800 
    247 H247       -7.4296  -15.1220  -48.4195 H         1 UNK         0.0800 
@<TRIPOS>BOND
     1    1    2 1    
     2    1  127 1    
     3    1  128 1    
     4    1  129 1    
     5    2    3 2    
     6    2    4 am   BACKBONE|DICT|INTERRES
     7    4    5 1    
     8    4  130 1    
     9    5    6 1    
    10    5   65 1    
    11    5  131 1    
    12    6    7 1    
    13    6  132 1    
    14    6  133 1    
    15    7    8 1    
    16    8    9 1    
    17    8  134 1    
    18    8  135 1    
    19    9   10 ar   
    20    9   14 ar   
    21   10   11 ar   
    22   10  136 1    
    23   11   12 ar   
    24   11  126 1    
    25   12   13 ar   
    26   12  137 1    
    27   13   14 ar   
    28   13   15 1    
    29   14  138 1    
    30   15   16 1    
    31   15  139 1    
    32   15  140 1    
    33   16   17 1    
    34   17   18 1    
    35   17  141 1    
    36   17  142 1    
    37   18   19 1    
    38   18   67 1    
    39   18  143 1    
    40   19   20 am   BACKBONE|DICT|INTERRES
    41   19  144 1    
    42   20   21 2    
    43   20   22 1    
    44   22   23 1    
    45   22   24 1    
    46   22  145 1    
    47   23  146 1    
    48   23  147 1    
    49   23  148 1    
    50   24   25 am   BACKBONE|DICT|INTERRES
    51   24  149 1    
    52   25   26 2    
    53   25   27 1    
    54   27   28 1    
    55   27   29 1    
    56   27  150 1    
    57   28  151 1    
    58   28  152 1    
    59   28  153 1    
    60   29   30 am   BACKBONE|DICT|INTERRES
    61   29  154 1    
    62   30   31 2    
    63   30   32 1    
    64   32   33 1    
    65   32   34 1    
    66   32  155 1    
    67   33  156 1    
    68   33  157 1    
    69   33  158 1    
    70   34   35 am   BACKBONE|DICT|INTERRES
    71   34  159 1    
    72   35   36 2    
    73   35   37 1    
    74   37   38 1    
    75   37   39 1    
    76   37  160 1    
    77   38  161 1    
    78   38  162 1    
    79   38  163 1    
    80   39   40 am   BACKBONE|DICT|INTERRES
    81   39  164 1    
    82   40   41 2    
    83   40   42 1    
    84   42   43 1    
    85   42   44 1    
    86   42  165 1    
    87   43  166 1    
    88   43  167 1    
    89   43  168 1    
    90   44   45 am   BACKBONE|DICT|INTERRES
    91   44  169 1    
    92   45   46 2    
    93   45   47 1    
    94   47   48 1    
    95   47   49 1    
    96   47  170 1    
    97   48  171 1    
    98   48  172 1    
    99   48  173 1    
   100   49   50 am   BACKBONE|DICT|INTERRES
   101   49  174 1    
   102   50   51 2    
   103   50   52 1    
   104   52   53 1    
   105   52   54 1    
   106   52  175 1    
   107   53  176 1    
   108   53  177 1    
   109   53  178 1    
   110   54   55 am   BACKBONE|DICT|INTERRES
   111   54  179 1    
   112   55   56 2    
   113   55   57 1    
   114   57   58 1    
   115   57   59 1    
   116   57  180 1    
   117   58  181 1    
   118   58  182 1    
   119   58  183 1    
   120   59   60 am   BACKBONE|DICT|INTERRES
   121   59  184 1    
   122   60   61 2    
   123   60   62 1    
   124   62   63 1    
   125   62   64 1    
   126   62  185 1    
   127   63  186 1    
   128   63  187 1    
   129   63  188 1    
   130   64   65 am   BACKBONE|DICT|INTERRES
   131   64  189 1    
   132   65   66 2    
   133   67   68 2    
   134   67   69 am   BACKBONE|DICT|INTERRES
   135   69   70 1    
   136   69  190 1    
   137   70   71 1    
   138   70   72 1    
   139   70  191 1    
   140   71  192 1    
   141   71  193 1    
   142   71  194 1    
   143   72   73 2    
   144   72   74 am   BACKBONE|DICT|INTERRES
   145   74   75 1    
   146   74  195 1    
   147   75   76 1    
   148   75   77 1    
   149   75  196 1    
   150   76  197 1    
   151   76  198 1    
   152   76  199 1    
   153   77   78 2    
   154   77   79 am   BACKBONE|DICT|INTERRES
   155   79   80 1    
   156   79  200 1    
   157   80   81 1    
   158   80   82 1    
   159   80  201 1    
   160   81  202 1    
   161   81  203 1    
   162   81  204 1    
   163   82   83 2    
   164   82   84 am   BACKBONE|DICT|INTERRES
   165   84   85 1    
   166   84  205 1    
   167   85   86 1    
   168   85   87 1    
   169   85  206 1    
   170   86  207 1    
   171   86  208 1    
   172   86  209 1    
   173   87   88 2    
   174   87   89 am   BACKBONE|DICT|INTERRES
   175   89   90 1    
   176   89  210 1    
   177   90   91 1    
   178   90   92 1    
   179   90  211 1    
   180   91  212 1    
   181   91  213 1    
   182   91  214 1    
   183   92   93 2    
   184   92   94 am   BACKBONE|DICT|INTERRES
   185   94   95 1    
   186   94  215 1    
   187   95   96 1    
   188   95   97 1    
   189   95  216 1    
   190   96  217 1    
   191   96  218 1    
   192   96  219 1    
   193   97   98 2    
   194   97   99 am   BACKBONE|DICT|INTERRES
   195   99  100 1    
   196   99  220 1    
   197  100  101 1    
   198  100  102 1    
   199  100  221 1    
   200  101  222 1    
   201  101  223 1    
   202  101  224 1    
   203  102  103 2    
   204  102  104 am   BACKBONE|DICT|INTERRES
   205  104  105 1    
   206  104  225 1    
   207  105  106 1    
   208  105  107 1    
   209  105  226 1    
   210  106  227 1    
   211  106  228 1    
   212  106  229 1    
   213  107  108 2    
   214  107  109 am   BACKBONE|DICT|INTERRES
   215  109  110 1    
   216  109  230 1    
   217  110  111 1    
   218  110  112 1    
   219  110  231 1    
   220  111  232 1    
   221  111  233 1    
   222  111  234 1    
   223  112  113 2    
   224  112  114 am   BACKBONE|DICT|INTERRES
   225  114  115 1    
   226  114  235 1    
   227  115  116 1    
   228  115  117 1    
   229  115  236 1    
   230  116  237 1    
   231  116  238 1    
   232  116  239 1    
   233  117  118 2    
   234  117  119 am   BACKBONE|DICT|INTERRES
   235  119  120 1    
   236  119  240 1    
   237  120  121 1    
   238  120  124 1    
   239  120  241 1    
   240  121  122 am   BACKBONE|DICT|INTERRES
   241  121  123 2    
   242  122  242 1    
   243  122  243 1    
   244  124  125 1    
   245  124  244 1    
   246  124  245 1    
   247  125  126 1    
   248  126  246 1    
   249  126  247 1    
@<TRIPOS>SUBSTRUCTURE
     1 UNK         1 GROUP             0       ****    0 ROOT    
