@<TRIPOS>MOLECULE
3R540
247   249    1
SMALL
USER_CHARGES


@<TRIPOS>ATOM
      1 CA         -2.7327  -12.2612  -43.3690 C.3       0 UNK        -0.1800 
      2 C          -1.2167  -12.3590  -43.4502 C.2       0 UNK         0.5000 
      3 O          -0.5157  -11.7170  -42.6693 O.2       0 UNK        -0.5000 
      4 N          -0.7049  -13.1829  -44.3742 N.am      1 UNK        -0.5000 
      5 CA          0.7278  -13.3815  -44.6529 C.3       1 UNK         0.1400 
      6 C6          0.9602  -14.2702  -45.9012 C.3       23 UNK        -0.0398 
      7 S7          0.0959  -13.6407  -47.3858 S.3       23 UNK        -0.2404 
      8 C8         -1.3632  -14.7347  -47.4785 C.3       23 UNK        -0.0205 
      9 C9         -1.2829  -15.7158  -48.6404 C.ar      23 UNK        -0.0193 
     10 C10        -2.2443  -15.6873  -49.6547 C.ar      23 UNK        -0.1150 
     11 C11        -2.1777  -16.5843  -50.7255 C.ar      23 UNK        -0.0193 
     12 C12        -1.1373  -17.5156  -50.7794 C.ar      23 UNK        -0.1150 
     13 C13        -0.1741  -17.5594  -49.7676 C.ar      23 UNK        -0.0193 
     14 C14        -0.2572  -16.6620  -48.7005 C.ar      23 UNK        -0.1150 
     15 C15         0.9727  -18.5552  -49.8350 C.3       23 UNK        -0.0205 
     16 S16         0.7759  -19.9115  -48.6382 S.3       23 UNK        -0.2404 
     17 C17        -0.6192  -20.8392  -49.3536 C.3       23 UNK        -0.0398 
     18 CA         -1.7785  -21.0174  -48.3496 C.3       11 UNK         0.1400 
     19 N          -2.3279  -19.7418  -47.8632 N.am      11 UNK        -0.5000 
     20 C          -3.2328  -19.6358  -46.8810 C.2       10 UNK         0.5000 
     21 O          -3.7403  -20.6126  -46.3228 O.2       10 UNK        -0.5000 
     22 CA         -3.6892  -18.2189  -46.5005 C.3       10 UNK         0.1400 
     23 CB         -4.6867  -17.6921  -47.5436 C.3       10 UNK        -0.1800 
     24 N          -4.3640  -18.2716  -45.2016 N.am      10 UNK        -0.5000 
     25 C          -3.9374  -17.8578  -44.0015 C.2       9 UNK         0.5000 
     26 O          -4.5643  -18.1454  -42.9821 O.2       9 UNK        -0.5000 
     27 CA         -2.6385  -17.0388  -43.8634 C.3       9 UNK         0.1400 
     28 CB         -2.7040  -16.0730  -42.6659 C.3       9 UNK        -0.1800 
     29 N          -1.5145  -17.9543  -43.6688 N.am      9 UNK        -0.5000 
     30 C          -0.5341  -18.1589  -44.5543 C.2       8 UNK         0.5000 
     31 O          -0.4712  -17.5858  -45.6409 O.2       8 UNK        -0.5000 
     32 CA          0.5376  -19.2030  -44.1866 C.3       8 UNK         0.1400 
     33 CB          0.0709  -20.6084  -44.5970 C.3       8 UNK        -0.1800 
     34 N           1.8088  -18.9140  -44.8557 N.am      8 UNK        -0.5000 
     35 C           2.6030  -17.8819  -44.5450 C.2       7 UNK         0.5000 
     36 O           2.4268  -17.1672  -43.5570 O.2       7 UNK        -0.5000 
     37 CA          3.7776  -17.5863  -45.4946 C.3       7 UNK         0.1400 
     38 CB          3.3063  -17.4655  -46.9589 C.3       7 UNK        -0.1800 
     39 N           4.4175  -16.3434  -45.0692 N.am      7 UNK        -0.5000 
     40 C           5.5658  -15.8391  -45.5351 C.2       6 UNK         0.5000 
     41 O           6.2857  -16.4116  -46.3540 O.2       6 UNK        -0.5000 
     42 CA          5.9802  -14.4566  -45.0064 C.3       6 UNK         0.1400 
     43 CB          5.3816  -13.3452  -45.8833 C.3       6 UNK        -0.1800 
     44 N           5.5565  -14.2391  -43.6263 N.am      6 UNK        -0.5000 
     45 C           6.2695  -14.5796  -42.5454 C.2       5 UNK         0.5000 
     46 O           7.3472  -15.1751  -42.6004 O.2       5 UNK        -0.5000 
     47 CA          5.6773  -14.1672  -41.1800 C.3       5 UNK         0.1400 
     48 CB          6.7348  -14.0779  -40.0607 C.3       5 UNK        -0.1800 
     49 N           4.8877  -12.9327  -41.2558 N.am      5 UNK        -0.5000 
     50 C           5.2972  -11.7029  -41.6072 C.2       4 UNK         0.5000 
     51 O           6.4697  -11.4058  -41.8376 O.2       4 UNK        -0.5000 
     52 CA          4.2035  -10.6245  -41.7603 C.3       4 UNK         0.1400 
     53 CB          3.9913  -10.2879  -43.2456 C.3       4 UNK        -0.1800 
     54 N           2.9205  -11.0418  -41.1918 N.am      4 UNK        -0.5000 
     55 C           2.6022  -10.9859  -39.8911 C.2       3 UNK         0.5000 
     56 O           3.3113  -10.4614  -39.0321 O.2       3 UNK        -0.5000 
     57 CA          1.2899  -11.6800  -39.4812 C.3       3 UNK         0.1400 
     58 CB          0.1107  -10.6973  -39.5384 C.3       3 UNK        -0.1800 
     59 N           1.0074  -12.8483  -40.3228 N.am      3 UNK        -0.5000 
     60 C           1.6720  -14.0113  -40.2278 C.2       2 UNK         0.5000 
     61 O           2.5450  -14.2229  -39.3869 O.2       2 UNK        -0.5000 
     62 CA          1.3552  -15.1118  -41.2561 C.3       2 UNK         0.1400 
     63 CB          0.3689  -16.1326  -40.6703 C.3       2 UNK        -0.1800 
     64 N           0.8183  -14.5927  -42.5124 N.am      2 UNK        -0.5000 
     65 C           1.5187  -13.9285  -43.4419 C.2       1 UNK         0.5000 
     66 O           2.7286  -13.7111  -43.3570 O.2       1 UNK        -0.5000 
     67 C          -2.8427  -21.9783  -48.9218 C.2       11 UNK         0.5000 
     68 O          -2.6208  -23.1876  -48.9041 O.2       11 UNK        -0.5000 
     69 N          -4.0025  -21.4515  -49.3411 N.am      12 UNK        -0.5000 
     70 CA         -5.1772  -22.2320  -49.7367 C.3       12 UNK         0.1400 
     71 CB         -6.2861  -21.2744  -50.1964 C.3       12 UNK        -0.1800 
     72 C          -5.7176  -23.1635  -48.6309 C.2       12 UNK         0.5000 
     73 O          -6.2866  -24.2082  -48.9463 O.2       12 UNK        -0.5000 
     74 N          -5.5226  -22.7818  -47.3603 N.am      13 UNK        -0.5000 
     75 CA         -5.8626  -23.6027  -46.1985 C.3       13 UNK         0.1400 
     76 CB         -6.1427  -22.6810  -45.0009 C.3       13 UNK        -0.1800 
     77 C          -4.7523  -24.6139  -45.8519 C.2       13 UNK         0.5000 
     78 O          -5.0294  -25.5932  -45.1583 O.2       13 UNK        -0.5000 
     79 N          -3.5215  -24.3614  -46.3189 N.am      14 UNK        -0.5000 
     80 CA         -2.3527  -25.2022  -46.0726 C.3       14 UNK         0.1400 
     81 CB         -1.0782  -24.3426  -46.1117 C.3       14 UNK        -0.1800 
     82 C          -2.2586  -26.3688  -47.0701 C.2       14 UNK         0.5000 
     83 O          -1.8856  -27.4699  -46.6620 O.2       14 UNK        -0.5000 
     84 N          -2.5967  -26.1272  -48.3448 N.am      15 UNK        -0.5000 
     85 CA         -2.5454  -27.1311  -49.4039 C.3       15 UNK         0.1400 
     86 CB         -1.1198  -27.2072  -49.9804 C.3       15 UNK        -0.1800 
     87 C          -3.5497  -26.8074  -50.5157 C.2       15 UNK         0.5000 
     88 O          -3.6734  -25.6494  -50.9197 O.2       15 UNK        -0.5000 
     89 N          -4.1843  -27.8556  -51.0575 N.am      16 UNK        -0.5000 
     90 CA         -5.0767  -27.7814  -52.2186 C.3       16 UNK         0.1400 
     91 CB         -5.8148  -29.1187  -52.3773 C.3       16 UNK        -0.1800 
     92 C          -4.3367  -27.4149  -53.5206 C.2       16 UNK         0.5000 
     93 O          -4.9233  -26.7839  -54.3992 O.2       16 UNK        -0.5000 
     94 N          -3.0489  -27.7797  -53.6043 N.am      17 UNK        -0.5000 
     95 CA         -2.1461  -27.4032  -54.6932 C.3       17 UNK         0.1400 
     96 CB         -0.8408  -28.2028  -54.5667 C.3       17 UNK        -0.1800 
     97 C          -1.8541  -25.8910  -54.7208 C.2       17 UNK         0.5000 
     98 O          -1.7126  -25.3200  -55.8016 O.2       17 UNK        -0.5000 
     99 N          -1.8008  -25.2647  -53.5367 N.am      18 UNK        -0.5000 
    100 CA        -1.6624  -23.8183  -53.3839 C.3       18 UNK         0.1400 
    101 CB        -1.0852  -23.4951  -52.0019 C.3       18 UNK        -0.1800 
    102 C         -2.9984  -23.0923  -53.6106 C.2       18 UNK         0.5000 
    103 O         -2.9964  -22.0055  -54.1862 O.2       18 UNK        -0.5000 
    104 N         -4.1183  -23.7179  -53.2155 N.am      19 UNK        -0.5000 
    105 CA        -5.4852  -23.2260  -53.4365 C.3       19 UNK         0.1400 
    106 CB        -6.4877  -24.1484  -52.7242 C.3       19 UNK        -0.1800 
    107 C         -5.8695  -23.0857  -54.9238 C.2       19 UNK         0.5000 
    108 O         -6.7655  -22.3066  -55.2453 O.2       19 UNK        -0.5000 
    109 N         -5.1823  -23.8229  -55.8075 N.am      20 UNK        -0.5000 
    110 CA        -5.3111  -23.7084  -57.2605 C.3       20 UNK         0.1400 
    111 CB        -4.5927  -24.8926  -57.9239 C.3       20 UNK        -0.1800 
    112 C         -4.7756  -22.3689  -57.8092 C.2       20 UNK         0.5000 
    113 O         -5.2697  -21.9008  -58.8357 O.2       20 UNK        -0.5000 
    114 N         -3.7912  -21.7760  -57.1187 N.am      21 UNK        -0.5000 
    115 CA        -3.2430  -20.4537  -57.4172 C.3       21 UNK         0.1400 
    116 CB        -1.7237  -20.4670  -57.1820 C.3       21 UNK        -0.1800 
    117 C         -3.9248  -19.3829  -56.5500 C.2       21 UNK         0.5000 
    118 O         -4.3885  -18.3698  -57.0762 O.2       21 UNK        -0.5000 
    119 N         -3.9930  -19.6382  -55.2380 N.am      22 UNK        -0.5000 
    120 CA        -4.6620  -18.8125  -54.2269 C.3       22 UNK         0.1400 
    121 C         -6.2094  -18.9858  -54.2766 C.2       22 UNK         0.5000 
    122 N         -6.8524  -18.5386  -55.3469 N.am      22 UNK        -0.7600 
    123 O         -6.8309  -19.5249  -53.3655 O.2       22 UNK        -0.5000 
    124 C124       -4.0271  -19.0511  -52.8292 C.3       23 UNK        -0.0398 
    125 S125       -4.5107  -17.7909  -51.5980 S.3       23 UNK        -0.2404 
    126 C126       -3.2202  -16.5293  -51.8305 C.3       23 UNK        -0.0205 
    127 H127       -3.0746  -12.5650  -42.3797 H         1 UNK         0.0600 
    128 H128       -3.2211  -12.8969  -44.1080 H         1 UNK         0.0600 
    129 H129       -3.0508  -11.2329  -43.5402 H         1 UNK         0.0600 
    130 H130       -1.3333  -13.6588  -45.0032 H         1 UNK         0.3000 
    131 H131        1.1442  -12.3950  -44.8677 H         1 UNK         0.0600 
    132 H132        2.0245  -14.3104  -46.1387 H         1 UNK         0.0800 
    133 H133        0.6639  -15.3003  -45.7063 H         1 UNK         0.0800 
    134 H134       -1.4886  -15.2915  -46.5517 H         1 UNK         0.0800 
    135 H135       -2.2505  -14.1071  -47.5741 H         1 UNK         0.0800 
    136 H136       -3.0464  -14.9637  -49.6142 H         1 UNK         0.1150 
    137 H137       -1.0749  -18.2012  -51.6122 H         1 UNK         0.1150 
    138 H138        0.4822  -16.6960  -47.9148 H         1 UNK         0.1150 
    139 H139        1.0737  -18.9681  -50.8399 H         1 UNK         0.0800 
    140 H140        1.9083  -18.0344  -49.6279 H         1 UNK         0.0800 
    141 H141       -0.2259  -21.8120  -49.6535 H         1 UNK         0.0800 
    142 H142       -0.9711  -20.3568  -50.2663 H         1 UNK         0.0800 
    143 H143       -1.3699  -21.5257  -47.4745 H         1 UNK         0.0600 
    144 H144       -1.9315  -18.9045  -48.2688 H         1 UNK         0.3000 
    145 H145       -2.8244  -17.5620  -46.5035 H         1 UNK         0.0600 
    146 H146       -5.0315  -16.6905  -47.2863 H         1 UNK         0.0600 
    147 H147       -4.2269  -17.6290  -48.5301 H         1 UNK         0.0600 
    148 H148       -5.5630  -18.3361  -47.6306 H         1 UNK         0.0600 
    149 H149       -5.1834  -18.8608  -45.2053 H         1 UNK         0.3000 
    150 H150       -2.5090  -16.4117  -44.7438 H         1 UNK         0.0600 
    151 H151       -2.7586  -16.6030  -41.7142 H         1 UNK         0.0600 
    152 H152       -3.5792  -15.4254  -42.7330 H         1 UNK         0.0600 
    153 H153       -1.8299  -15.4269  -42.6373 H         1 UNK         0.0600 
    154 H154       -1.5398  -18.5058  -42.8225 H         1 UNK         0.3000 
    155 H155        0.6947  -19.1815  -43.1061 H         1 UNK         0.0600 
    156 H156       -0.0714  -20.6817  -45.6750 H         1 UNK         0.0600 
    157 H157       -0.8779  -20.8648  -44.1238 H         1 UNK         0.0600 
    158 H158        0.7962  -21.3673  -44.3030 H         1 UNK         0.0600 
    159 H159        1.9873  -19.4263  -45.7067 H         1 UNK         0.3000 
    160 H160        4.4964  -18.4027  -45.4046 H         1 UNK         0.0600 
    161 H161        2.5910  -16.6528  -47.0796 H         1 UNK         0.0600 
    162 H162        2.8311  -18.3835  -47.2985 H         1 UNK         0.0600 
    163 H163        4.1358  -17.2793  -47.6401 H         1 UNK         0.0600 
    164 H164        3.9111  -15.8501  -44.3429 H         1 UNK         0.3000 
    165 H165        7.0684  -14.3855  -45.0681 H         1 UNK         0.0600 
    166 H166        5.6779  -13.4664  -46.9260 H         1 UNK         0.0600 
    167 H167        4.2918  -13.3456  -45.8480 H         1 UNK         0.0600 
    168 H168        5.7248  -12.3623  -45.5594 H         1 UNK         0.0600 
    169 H169        4.6449  -13.8110  -43.4903 H         1 UNK         0.3000 
    170 H170        4.9764  -14.9572  -40.9070 H         1 UNK         0.0600 
    171 H171        7.2199  -15.0419  -39.9033 H         1 UNK         0.0600 
    172 H172        7.5156  -13.3543  -40.2959 H         1 UNK         0.0600 
    173 H173        6.2805  -13.7865  -39.1136 H         1 UNK         0.0600 
    174 H174        3.8981  -13.0514  -41.0968 H         1 UNK         0.3000 
    175 H175        4.5489   -9.7239  -41.2485 H         1 UNK         0.0600 
    176 H176        3.2464   -9.5017  -43.3696 H         1 UNK         0.0600 
    177 H177        4.9160   -9.9329  -43.7023 H         1 UNK         0.0600 
    178 H178        3.6595  -11.1575  -43.8141 H         1 UNK         0.0600 
    179 H179        2.2673  -11.4796  -41.8258 H         1 UNK         0.3000 
    180 H180        1.3967  -12.0163  -38.4475 H         1 UNK         0.0600 
    181 H181       -0.0094  -10.2639  -40.5315 H         1 UNK         0.0600 
    182 H182        0.2607   -9.8725  -38.8407 H         1 UNK         0.0600 
    183 H183       -0.8258  -11.1858  -39.2685 H         1 UNK         0.0600 
    184 H184        0.3344  -12.7139  -41.0695 H         1 UNK         0.3000 
    185 H185        2.2926  -15.6280  -41.4705 H         1 UNK         0.0600 
    186 H186        0.7650  -16.5764  -39.7560 H         1 UNK         0.0600 
    187 H187       -0.5889  -15.6735  -40.4234 H         1 UNK         0.0600 
    188 H188        0.1853  -16.9471  -41.3711 H         1 UNK         0.0600 
    189 H189       -0.1694  -14.7183  -42.6671 H         1 UNK         0.3000 
    190 H190       -4.1120  -20.4487  -49.3161 H         1 UNK         0.3000 
    191 H191       -4.8748  -22.8583  -50.5759 H         1 UNK         0.0600 
    192 H192       -5.9562  -20.6434  -51.0186 H         1 UNK         0.0600 
    193 H193       -7.1592  -21.8266  -50.5464 H         1 UNK         0.0600 
    194 H194       -6.6132  -20.6203  -49.3871 H         1 UNK         0.0600 
    195 H195       -5.0238  -21.9191  -47.1670 H         1 UNK         0.3000 
    196 H196       -6.7736  -24.1673  -46.4081 H         1 UNK         0.0600 
    197 H197       -6.4667  -23.2575  -44.1336 H         1 UNK         0.0600 
    198 H198       -6.9329  -21.9655  -45.2289 H         1 UNK         0.0600 
    199 H199       -5.2556  -22.1196  -44.7061 H         1 UNK         0.0600 
    200 H200       -3.3895  -23.5792  -46.9452 H         1 UNK         0.3000 
    201 H201       -2.4309  -25.6257  -45.0688 H         1 UNK         0.0600 
    202 H202       -0.2097  -24.9283  -45.8083 H         1 UNK         0.0600 
    203 H203       -0.8733  -23.9585  -47.1106 H         1 UNK         0.0600 
    204 H204       -1.1509  -23.4934  -45.4318 H         1 UNK         0.0600 
    205 H205       -2.8735  -25.1919  -48.6323 H         1 UNK         0.3000 
    206 H206       -2.8103  -28.1050  -48.9863 H         1 UNK         0.0600 
    207 H207       -0.4014  -27.5128  -49.2196 H         1 UNK         0.0600 
    208 H208       -1.0591  -27.9341  -50.7911 H         1 UNK         0.0600 
    209 H209       -0.7959  -26.2433  -50.3752 H         1 UNK         0.0600 
    210 H210       -4.0254  -28.7768  -50.6749 H         1 UNK         0.3000 
    211 H211       -5.8178  -27.0041  -52.0249 H         1 UNK         0.0600 
    212 H212       -5.1232  -29.9434  -52.5538 H         1 UNK         0.0600 
    213 H213       -6.5069  -29.0844  -53.2199 H         1 UNK         0.0600 
    214 H214       -6.3998  -29.3542  -51.4880 H         1 UNK         0.0600 
    215 H215       -2.6521  -28.3171  -52.8483 H         1 UNK         0.3000 
    216 H216       -2.6227  -27.6682  -55.6394 H         1 UNK         0.0600 
    217 H217       -0.1536  -27.9581  -55.3779 H         1 UNK         0.0600 
    218 H218       -1.0291  -29.2755  -54.6149 H         1 UNK         0.0600 
    219 H219       -0.3277  -27.9931  -53.6273 H         1 UNK         0.0600 
    220 H220       -1.9633  -25.7958  -52.6942 H         1 UNK         0.3000 
    221 H221       -0.9570  -23.4488  -54.1316 H         1 UNK         0.0600 
    222 H222       -1.7144  -23.8854  -51.2042 H         1 UNK         0.0600 
    223 H223       -0.0893  -23.9209  -51.8802 H         1 UNK         0.0600 
    224 H224       -0.9999  -22.4173  -51.8635 H         1 UNK         0.0600 
    225 H225       -4.0262  -24.5799  -52.6904 H         1 UNK         0.3000 
    226 H226       -5.5498  -22.2336  -52.9871 H         1 UNK         0.0600 
    227 H227       -7.4691  -23.6764  -52.6675 H         1 UNK         0.0600 
    228 H228       -6.6152  -25.0904  -53.2565 H         1 UNK         0.0600 
    229 H229       -6.1802  -24.3829  -51.7064 H         1 UNK         0.0600 
    230 H230       -4.5059  -24.4868  -55.4567 H         1 UNK         0.3000 
    231 H231       -6.3721  -23.7701  -57.5113 H         1 UNK         0.0600 
    232 H232       -3.5187  -24.8663  -57.7387 H         1 UNK         0.0600 
    233 H233       -4.7382  -24.8797  -59.0048 H         1 UNK         0.0600 
    234 H234       -4.9743  -25.8449  -57.5547 H         1 UNK         0.0600 
    235 H235       -3.4744  -22.2093  -56.2607 H         1 UNK         0.3000 
    236 H236       -3.4163  -20.2007  -58.4653 H         1 UNK         0.0600 
    237 H237       -1.2329  -21.1877  -57.8362 H         1 UNK         0.0600 
    238 H238       -1.2885  -19.4890  -57.3910 H         1 UNK         0.0600 
    239 H239       -1.4712  -20.7261  -56.1531 H         1 UNK         0.0600 
    240 H240       -3.6004  -20.5123  -54.8933 H         1 UNK         0.3000 
    241 H241       -4.4660  -17.7690  -54.4812 H         1 UNK         0.0600 
    242 H242       -6.3294  -18.1554  -56.1240 H         1 UNK         0.3800 
    243 H243       -7.8520  -18.6480  -55.4110 H         1 UNK         0.3800 
    244 H244       -2.9397  -19.0547  -52.9093 H         1 UNK         0.0800 
    245 H245       -4.2897  -20.0399  -52.4535 H         1 UNK         0.0800 
    246 H246       -3.6968  -15.5479  -51.8451 H         1 UNK         0.0800 
    247 H247       -2.7410  -16.6411  -52.8042 H         1 UNK         0.0800 
@<TRIPOS>BOND
     1    1    2 1    
     2    1  127 1    
     3    1  128 1    
     4    1  129 1    
     5    2    3 2    
     6    2    4 am   BACKBONE|DICT|INTERRES
     7    4    5 1    
     8    4  130 1    
     9    5    6 1    
    10    5   65 1    
    11    5  131 1    
    12    6    7 1    
    13    6  132 1    
    14    6  133 1    
    15    7    8 1    
    16    8    9 1    
    17    8  134 1    
    18    8  135 1    
    19    9   10 ar   
    20    9   14 ar   
    21   10   11 ar   
    22   10  136 1    
    23   11   12 ar   
    24   11  126 1    
    25   12   13 ar   
    26   12  137 1    
    27   13   14 ar   
    28   13   15 1    
    29   14  138 1    
    30   15   16 1    
    31   15  139 1    
    32   15  140 1    
    33   16   17 1    
    34   17   18 1    
    35   17  141 1    
    36   17  142 1    
    37   18   19 1    
    38   18   67 1    
    39   18  143 1    
    40   19   20 am   BACKBONE|DICT|INTERRES
    41   19  144 1    
    42   20   21 2    
    43   20   22 1    
    44   22   23 1    
    45   22   24 1    
    46   22  145 1    
    47   23  146 1    
    48   23  147 1    
    49   23  148 1    
    50   24   25 am   BACKBONE|DICT|INTERRES
    51   24  149 1    
    52   25   26 2    
    53   25   27 1    
    54   27   28 1    
    55   27   29 1    
    56   27  150 1    
    57   28  151 1    
    58   28  152 1    
    59   28  153 1    
    60   29   30 am   BACKBONE|DICT|INTERRES
    61   29  154 1    
    62   30   31 2    
    63   30   32 1    
    64   32   33 1    
    65   32   34 1    
    66   32  155 1    
    67   33  156 1    
    68   33  157 1    
    69   33  158 1    
    70   34   35 am   BACKBONE|DICT|INTERRES
    71   34  159 1    
    72   35   36 2    
    73   35   37 1    
    74   37   38 1    
    75   37   39 1    
    76   37  160 1    
    77   38  161 1    
    78   38  162 1    
    79   38  163 1    
    80   39   40 am   BACKBONE|DICT|INTERRES
    81   39  164 1    
    82   40   41 2    
    83   40   42 1    
    84   42   43 1    
    85   42   44 1    
    86   42  165 1    
    87   43  166 1    
    88   43  167 1    
    89   43  168 1    
    90   44   45 am   BACKBONE|DICT|INTERRES
    91   44  169 1    
    92   45   46 2    
    93   45   47 1    
    94   47   48 1    
    95   47   49 1    
    96   47  170 1    
    97   48  171 1    
    98   48  172 1    
    99   48  173 1    
   100   49   50 am   BACKBONE|DICT|INTERRES
   101   49  174 1    
   102   50   51 2    
   103   50   52 1    
   104   52   53 1    
   105   52   54 1    
   106   52  175 1    
   107   53  176 1    
   108   53  177 1    
   109   53  178 1    
   110   54   55 am   BACKBONE|DICT|INTERRES
   111   54  179 1    
   112   55   56 2    
   113   55   57 1    
   114   57   58 1    
   115   57   59 1    
   116   57  180 1    
   117   58  181 1    
   118   58  182 1    
   119   58  183 1    
   120   59   60 am   BACKBONE|DICT|INTERRES
   121   59  184 1    
   122   60   61 2    
   123   60   62 1    
   124   62   63 1    
   125   62   64 1    
   126   62  185 1    
   127   63  186 1    
   128   63  187 1    
   129   63  188 1    
   130   64   65 am   BACKBONE|DICT|INTERRES
   131   64  189 1    
   132   65   66 2    
   133   67   68 2    
   134   67   69 am   BACKBONE|DICT|INTERRES
   135   69   70 1    
   136   69  190 1    
   137   70   71 1    
   138   70   72 1    
   139   70  191 1    
   140   71  192 1    
   141   71  193 1    
   142   71  194 1    
   143   72   73 2    
   144   72   74 am   BACKBONE|DICT|INTERRES
   145   74   75 1    
   146   74  195 1    
   147   75   76 1    
   148   75   77 1    
   149   75  196 1    
   150   76  197 1    
   151   76  198 1    
   152   76  199 1    
   153   77   78 2    
   154   77   79 am   BACKBONE|DICT|INTERRES
   155   79   80 1    
   156   79  200 1    
   157   80   81 1    
   158   80   82 1    
   159   80  201 1    
   160   81  202 1    
   161   81  203 1    
   162   81  204 1    
   163   82   83 2    
   164   82   84 am   BACKBONE|DICT|INTERRES
   165   84   85 1    
   166   84  205 1    
   167   85   86 1    
   168   85   87 1    
   169   85  206 1    
   170   86  207 1    
   171   86  208 1    
   172   86  209 1    
   173   87   88 2    
   174   87   89 am   BACKBONE|DICT|INTERRES
   175   89   90 1    
   176   89  210 1    
   177   90   91 1    
   178   90   92 1    
   179   90  211 1    
   180   91  212 1    
   181   91  213 1    
   182   91  214 1    
   183   92   93 2    
   184   92   94 am   BACKBONE|DICT|INTERRES
   185   94   95 1    
   186   94  215 1    
   187   95   96 1    
   188   95   97 1    
   189   95  216 1    
   190   96  217 1    
   191   96  218 1    
   192   96  219 1    
   193   97   98 2    
   194   97   99 am   BACKBONE|DICT|INTERRES
   195   99  100 1    
   196   99  220 1    
   197  100  101 1    
   198  100  102 1    
   199  100  221 1    
   200  101  222 1    
   201  101  223 1    
   202  101  224 1    
   203  102  103 2    
   204  102  104 am   BACKBONE|DICT|INTERRES
   205  104  105 1    
   206  104  225 1    
   207  105  106 1    
   208  105  107 1    
   209  105  226 1    
   210  106  227 1    
   211  106  228 1    
   212  106  229 1    
   213  107  108 2    
   214  107  109 am   BACKBONE|DICT|INTERRES
   215  109  110 1    
   216  109  230 1    
   217  110  111 1    
   218  110  112 1    
   219  110  231 1    
   220  111  232 1    
   221  111  233 1    
   222  111  234 1    
   223  112  113 2    
   224  112  114 am   BACKBONE|DICT|INTERRES
   225  114  115 1    
   226  114  235 1    
   227  115  116 1    
   228  115  117 1    
   229  115  236 1    
   230  116  237 1    
   231  116  238 1    
   232  116  239 1    
   233  117  118 2    
   234  117  119 am   BACKBONE|DICT|INTERRES
   235  119  120 1    
   236  119  240 1    
   237  120  121 1    
   238  120  124 1    
   239  120  241 1    
   240  121  122 am   BACKBONE|DICT|INTERRES
   241  121  123 2    
   242  122  242 1    
   243  122  243 1    
   244  124  125 1    
   245  124  244 1    
   246  124  245 1    
   247  125  126 1    
   248  126  246 1    
   249  126  247 1    
@<TRIPOS>SUBSTRUCTURE
     1 UNK         1 GROUP             0       ****    0 ROOT    
