@<TRIPOS>MOLECULE
3R540
247   249    1
SMALL
USER_CHARGES


@<TRIPOS>ATOM
      1 CA         -1.8952  -12.7404  -45.1513 C.3       0 UNK        -0.1800 
      2 C          -1.1541  -12.0143  -46.2653 C.2       0 UNK         0.5000 
      3 O          -1.4951  -10.8754  -46.5845 O.2       0 UNK        -0.5000 
      4 N          -0.1443  -12.6666  -46.8577 N.am      1 UNK        -0.5000 
      5 CA          0.6969  -12.1217  -47.9345 C.3       1 UNK         0.1400 
      6 C6          1.5986  -13.2066  -48.5723 C.3       23 UNK        -0.0398 
      7 S7          0.6732  -14.5727  -49.3458 S.3       23 UNK        -0.2404 
      8 C8          2.0278  -15.7725  -49.5281 C.3       23 UNK        -0.0205 
      9 C9          1.6747  -16.8849  -50.5015 C.ar      23 UNK        -0.0193 
     10 C10         1.9227  -16.7235  -51.8682 C.ar      23 UNK        -0.1150 
     11 C11         1.6339  -17.7526  -52.7689 C.ar      23 UNK        -0.0193 
     12 C12         1.1087  -18.9561  -52.2907 C.ar      23 UNK        -0.1150 
     13 C13         0.8555  -19.1293  -50.9273 C.ar      23 UNK        -0.0193 
     14 C14         1.1293  -18.0853  -50.0378 C.ar      23 UNK        -0.1150 
     15 C15         0.2836  -20.4444  -50.4244 C.3       23 UNK        -0.0205 
     16 S16         1.5524  -21.4616  -49.5985 S.3       23 UNK        -0.2404 
     17 C17         1.1935  -21.1295  -47.8371 C.3       23 UNK        -0.0398 
     18 CA          0.3292  -22.2279  -47.1690 C.3       11 UNK         0.1400 
     19 N           0.2191  -22.0364  -45.7223 N.am      11 UNK        -0.5000 
     20 C          -0.3635  -22.8971  -44.8745 C.2       10 UNK         0.5000 
     21 O          -0.8004  -23.9999  -45.2059 O.2       10 UNK        -0.5000 
     22 CA         -0.5452  -22.4159  -43.4238 C.3       10 UNK         0.1400 
     23 CB          0.7522  -22.5889  -42.6207 C.3       10 UNK        -0.1800 
     24 N          -0.9956  -21.0238  -43.3519 N.am      10 UNK        -0.5000 
     25 C          -2.1686  -20.5852  -43.8326 C.2       9 UNK         0.5000 
     26 O          -3.0187  -21.3226  -44.3312 O.2       9 UNK        -0.5000 
     27 CA         -2.4205  -19.0675  -43.7924 C.3       9 UNK         0.1400 
     28 CB         -2.8920  -18.6308  -42.3978 C.3       9 UNK        -0.1800 
     29 N          -1.2475  -18.2867  -44.1889 N.am      9 UNK        -0.5000 
     30 C          -0.6953  -18.3053  -45.4105 C.2       8 UNK         0.5000 
     31 O          -1.1462  -18.9557  -46.3521 O.2       8 UNK        -0.5000 
     32 CA          0.6124  -17.5128  -45.6015 C.3       8 UNK         0.1400 
     33 CB          0.3347  -16.0192  -45.8134 C.3       8 UNK        -0.1800 
     34 N           1.5397  -17.6869  -44.4841 N.am      8 UNK        -0.5000 
     35 C           2.0963  -18.8578  -44.1433 C.2       7 UNK         0.5000 
     36 O           1.9362  -19.9018  -44.7755 O.2       7 UNK        -0.5000 
     37 CA          2.9234  -18.8744  -42.8477 C.3       7 UNK         0.1400 
     38 CB          4.3510  -18.3673  -43.0998 C.3       7 UNK        -0.1800 
     39 N           2.2902  -18.0800  -41.7942 N.am      7 UNK        -0.5000 
     40 C           1.1630  -18.4363  -41.1608 C.2       6 UNK         0.5000 
     41 O           0.5629  -19.4887  -41.3770 O.2       6 UNK        -0.5000 
     42 CA          0.5871  -17.4304  -40.1470 C.3       6 UNK         0.1400 
     43 CB          1.2739  -17.5831  -38.7819 C.3       6 UNK        -0.1800 
     44 N           0.7061  -16.0435  -40.5989 N.am      6 UNK        -0.5000 
     45 C           0.0637  -15.5340  -41.6594 C.2       5 UNK         0.5000 
     46 O          -0.7310  -16.1719  -42.3467 O.2       5 UNK        -0.5000 
     47 CA          0.4027  -14.0858  -42.0510 C.3       5 UNK         0.1400 
     48 CB         -0.5359  -13.0954  -41.3481 C.3       5 UNK        -0.1800 
     49 N           1.7905  -13.7203  -41.7692 N.am      5 UNK        -0.5000 
     50 C           2.8704  -14.2759  -42.3326 C.2       4 UNK         0.5000 
     51 O           2.8048  -15.2176  -43.1262 O.2       4 UNK        -0.5000 
     52 CA          4.2364  -13.6645  -41.9449 C.3       4 UNK         0.1400 
     53 CB          5.4007  -14.2599  -42.7561 C.3       4 UNK        -0.1800 
     54 N           4.2450  -12.2086  -42.1095 N.am      4 UNK        -0.5000 
     55 C           3.6953  -11.3165  -41.2725 C.2       3 UNK         0.5000 
     56 O           3.1818  -11.6246  -40.1964 O.2       3 UNK        -0.5000 
     57 CA          3.6524   -9.8481  -41.7439 C.3       3 UNK         0.1400 
     58 CB          4.8588   -9.0715  -41.1953 C.3       3 UNK        -0.1800 
     59 N           3.6087   -9.7012  -43.2033 N.am      3 UNK        -0.5000 
     60 C           2.6282  -10.1580  -43.9958 C.2       2 UNK         0.5000 
     61 O           1.6155  -10.7209  -43.5700 O.2       2 UNK        -0.5000 
     62 CA          2.8248   -9.9933  -45.5136 C.3       2 UNK         0.1400 
     63 CB          4.2909  -10.2033  -45.9551 C.3       2 UNK        -0.1800 
     64 N           1.9573  -10.9560  -46.1812 N.am      2 UNK        -0.5000 
     65 C           1.5835  -10.9464  -47.4645 C.2       1 UNK         0.5000 
     66 O           1.9222  -10.0784  -48.2704 O.2       1 UNK        -0.5000 
     67 C          -1.0626  -22.3508  -47.8224 C.2       11 UNK         0.5000 
     68 O          -1.2908  -23.3028  -48.5644 O.2       11 UNK        -0.5000 
     69 N          -1.9738  -21.4145  -47.5185 N.am      12 UNK        -0.5000 
     70 CA         -3.3470  -21.4016  -48.0256 C.3       12 UNK         0.1400 
     71 CB         -4.0699  -20.1319  -47.5557 C.3       12 UNK        -0.1800 
     72 C          -4.1431  -22.6603  -47.6408 C.2       12 UNK         0.5000 
     73 O          -4.8389  -23.2128  -48.4928 O.2       12 UNK        -0.5000 
     74 N          -3.9935  -23.1150  -46.3894 N.am      13 UNK        -0.5000 
     75 CA         -4.5736  -24.3580  -45.8820 C.3       13 UNK         0.1400 
     76 CB         -4.3335  -24.4622  -44.3684 C.3       13 UNK        -0.1800 
     77 C          -4.0378  -25.6009  -46.6164 C.2       13 UNK         0.5000 
     78 O          -4.8339  -26.4303  -47.0593 O.2       13 UNK        -0.5000 
     79 N          -2.7086  -25.6817  -46.7803 N.am      14 UNK        -0.5000 
     80 CA         -2.0234  -26.7398  -47.5304 C.3       14 UNK         0.1400 
     81 CB         -0.5054  -26.5980  -47.3435 C.3       14 UNK        -0.1800 
     82 C          -2.3903  -26.7541  -49.0280 C.2       14 UNK         0.5000 
     83 O          -2.4996  -27.8272  -49.6211 O.2       14 UNK        -0.5000 
     84 N          -2.6230  -25.5639  -49.5939 N.am      15 UNK        -0.5000 
     85 CA         -3.0806  -25.3243  -50.9615 C.3       15 UNK         0.1400 
     86 CB         -2.6327  -23.9162  -51.3899 C.3       15 UNK        -0.1800 
     87 C          -4.6010  -25.5136  -51.1580 C.2       15 UNK         0.5000 
     88 O          -5.1157  -25.1071  -52.2011 O.2       15 UNK        -0.5000 
     89 N          -5.2897  -26.1154  -50.1756 N.am      16 UNK        -0.5000 
     90 CA         -6.7119  -26.4703  -50.1685 C.3       16 UNK         0.1400 
     91 CB         -7.0195  -27.5232  -51.2544 C.3       16 UNK        -0.1800 
     92 C          -7.6226  -25.2311  -50.2472 C.2       16 UNK         0.5000 
     93 O          -8.4298  -25.1065  -51.1688 O.2       16 UNK        -0.5000 
     94 N          -7.4438  -24.3254  -49.2759 N.am      17 UNK        -0.5000 
     95 CA         -8.0993  -23.0183  -49.1495 C.3       17 UNK         0.1400 
     96 CB         -9.6251  -23.1630  -48.9676 C.3       17 UNK        -0.1800 
     97 C          -7.6999  -22.0690  -50.2969 C.2       17 UNK         0.5000 
     98 O          -8.5501  -21.3944  -50.8801 O.2       17 UNK        -0.5000 
     99 N          -6.3919  -22.0578  -50.5911 N.am      18 UNK        -0.5000 
    100 CA        -5.7064  -21.2671  -51.6168 C.3       18 UNK         0.1400 
    101 CB        -5.7833  -19.7616  -51.2876 C.3       18 UNK        -0.1800 
    102 C         -6.1412  -21.5863  -53.0641 C.2       18 UNK         0.5000 
    103 O         -5.9649  -20.7493  -53.9497 O.2       18 UNK        -0.5000 
    104 N         -6.6659  -22.7962  -53.2997 N.am      19 UNK        -0.5000 
    105 CA        -7.0606  -23.2834  -54.6221 C.3       19 UNK         0.1400 
    106 CB        -7.9369  -24.5345  -54.4642 C.3       19 UNK        -0.1800 
    107 C         -5.8463  -23.5802  -55.5202 C.2       19 UNK         0.5000 
    108 O         -5.8806  -23.2735  -56.7122 O.2       19 UNK        -0.5000 
    109 N         -4.7917  -24.1519  -54.9246 N.am      20 UNK        -0.5000 
    110 CA        -3.5283  -24.4791  -55.5911 C.3       20 UNK         0.1400 
    111 CB        -2.9905  -25.7916  -54.9979 C.3       20 UNK        -0.1800 
    112 C         -2.4774  -23.3536  -55.4796 C.2       20 UNK         0.5000 
    113 O         -1.3713  -23.5110  -55.9993 O.2       20 UNK        -0.5000 
    114 N         -2.8165  -22.2547  -54.7917 N.am      21 UNK        -0.5000 
    115 CA        -1.9582  -21.0850  -54.6019 C.3       21 UNK         0.1400 
    116 CB        -2.4301  -20.3259  -53.3494 C.3       21 UNK        -0.1800 
    117 C         -1.9455  -20.1663  -55.8413 C.2       21 UNK         0.5000 
    118 O         -2.6916  -20.3884  -56.7982 O.2       21 UNK        -0.5000 
    119 N         -1.0979  -19.1326  -55.7883 N.am      22 UNK        -0.5000 
    120 CA        -0.9425  -18.0993  -56.8274 C.3       22 UNK         0.1400 
    121 C         -2.1478  -17.1231  -56.9964 C.2       22 UNK         0.5000 
    122 N         -3.1254  -17.1024  -56.0985 N.am      22 UNK        -0.7600 
    123 O         -2.2006  -16.3773  -57.9708 O.2       22 UNK        -0.5000 
    124 C124        0.3976  -17.3320  -56.6642 C.3       23 UNK        -0.0398 
    125 S125        0.5894  -16.5504  -55.0201 S.3       23 UNK        -0.2404 
    126 C126        1.8914  -17.5689  -54.2560 C.3       23 UNK        -0.0205 
    127 H127       -1.6448  -12.2987  -44.1868 H         1 UNK         0.0600 
    128 H128       -1.6464  -13.8001  -45.1188 H         1 UNK         0.0600 
    129 H129       -2.9719  -12.6541  -45.2972 H         1 UNK         0.0600 
    130 H130        0.0675  -13.6124  -46.5781 H         1 UNK         0.3000 
    131 H131        0.0327  -11.7327  -48.7093 H         1 UNK         0.0600 
    132 H132        2.2769  -13.6213  -47.8238 H         1 UNK         0.0800 
    133 H133        2.2307  -12.7686  -49.3477 H         1 UNK         0.0800 
    134 H134        2.2750  -16.1887  -48.5502 H         1 UNK         0.0800 
    135 H135        2.9254  -15.2601  -49.8783 H         1 UNK         0.0800 
    136 H136        2.3367  -15.7938  -52.2333 H         1 UNK         0.1150 
    137 H137        0.8974  -19.7611  -52.9801 H         1 UNK         0.1150 
    138 H138        0.9317  -18.2103  -48.9835 H         1 UNK         0.1150 
    139 H139       -0.5560  -20.2427  -49.7590 H         1 UNK         0.0800 
    140 H140       -0.1278  -21.0213  -51.2541 H         1 UNK         0.0800 
    141 H141        0.7327  -20.1490  -47.7278 H         1 UNK         0.0800 
    142 H142        2.1526  -21.0616  -47.3221 H         1 UNK         0.0800 
    143 H143        0.8385  -23.1826  -47.3172 H         1 UNK         0.0600 
    144 H144        0.6009  -21.1713  -45.3502 H         1 UNK         0.3000 
    145 H145       -1.3143  -23.0386  -42.9623 H         1 UNK         0.0600 
    146 H146        0.6058  -22.3211  -41.5742 H         1 UNK         0.0600 
    147 H147        1.0920  -23.6249  -42.6470 H         1 UNK         0.0600 
    148 H148        1.5575  -21.9689  -43.0146 H         1 UNK         0.0600 
    149 H149       -0.3707  -20.3647  -42.8984 H         1 UNK         0.3000 
    150 H150       -3.2203  -18.8459  -44.5016 H         1 UNK         0.0600 
    151 H151       -3.7740  -19.1935  -42.0893 H         1 UNK         0.0600 
    152 H152       -3.1604  -17.5743  -42.3862 H         1 UNK         0.0600 
    153 H153       -2.1209  -18.7882  -41.6436 H         1 UNK         0.0600 
    154 H154       -0.8571  -17.6689  -43.4822 H         1 UNK         0.3000 
    155 H155        1.1012  -17.8938  -46.5002 H         1 UNK         0.0600 
    156 H156       -0.1196  -15.5721  -44.9308 H         1 UNK         0.0600 
    157 H157       -0.3460  -15.8663  -46.6519 H         1 UNK         0.0600 
    158 H158        1.2550  -15.4766  -46.0307 H         1 UNK         0.0600 
    159 H159        1.7566  -16.8670  -43.9282 H         1 UNK         0.3000 
    160 H160        2.9886  -19.9087  -42.5033 H         1 UNK         0.0600 
    161 H161        4.9439  -18.3822  -42.1853 H         1 UNK         0.0600 
    162 H162        4.3578  -17.3495  -43.4895 H         1 UNK         0.0600 
    163 H163        4.8617  -18.9975  -43.8289 H         1 UNK         0.0600 
    164 H164        2.6910  -17.1730  -41.6058 H         1 UNK         0.3000 
    165 H165       -0.4741  -17.6554  -40.0218 H         1 UNK         0.0600 
    166 H166        0.8194  -16.9298  -38.0369 H         1 UNK         0.0600 
    167 H167        1.1848  -18.6058  -38.4132 H         1 UNK         0.0600 
    168 H168        2.3369  -17.3444  -38.8349 H         1 UNK         0.0600 
    169 H169        1.3419  -15.4470  -40.0904 H         1 UNK         0.3000 
    170 H170        0.2506  -13.9903  -43.1275 H         1 UNK         0.0600 
    171 H171       -1.5801  -13.3282  -41.5610 H         1 UNK         0.0600 
    172 H172       -0.4067  -13.1166  -40.2653 H         1 UNK         0.0600 
    173 H173       -0.3551  -12.0753  -41.6884 H         1 UNK         0.0600 
    174 H174        1.9414  -12.9484  -41.1292 H         1 UNK         0.3000 
    175 H175        4.4082  -13.9010  -40.8929 H         1 UNK         0.0600 
    176 H176        5.2748  -14.0901  -43.8262 H         1 UNK         0.0600 
    177 H177        6.3539  -13.8239  -42.4567 H         1 UNK         0.0600 
    178 H178        5.4768  -15.3363  -42.5994 H         1 UNK         0.0600 
    179 H179        4.6153  -11.8638  -42.9823 H         1 UNK         0.3000 
    180 H180        2.7430   -9.4013  -41.3369 H         1 UNK         0.0600 
    181 H181        5.7997   -9.4579  -41.5893 H         1 UNK         0.0600 
    182 H182        4.9056   -9.1400  -40.1076 H         1 UNK         0.0600 
    183 H183        4.7964   -8.0134  -41.4499 H         1 UNK         0.0600 
    184 H184        4.4037   -9.2483  -43.6304 H         1 UNK         0.3000 
    185 H185        2.5045   -8.9843  -45.7800 H         1 UNK         0.0600 
    186 H186        4.9500   -9.4433  -45.5348 H         1 UNK         0.0600 
    187 H187        4.6664  -11.1797  -45.6463 H         1 UNK         0.0600 
    188 H188        4.3954  -10.1380  -47.0380 H         1 UNK         0.0600 
    189 H189        1.5582  -11.6476  -45.5592 H         1 UNK         0.3000 
    190 H190       -1.7013  -20.6317  -46.9282 H         1 UNK         0.3000 
    191 H191       -3.2915  -21.3690  -49.1151 H         1 UNK         0.0600 
    192 H192       -5.0959  -20.1061  -47.9245 H         1 UNK         0.0600 
    193 H193       -3.5683  -19.2355  -47.9206 H         1 UNK         0.0600 
    194 H194       -4.1134  -20.0716  -46.4687 H         1 UNK         0.0600 
    195 H195       -3.4422  -22.5667  -45.7344 H         1 UNK         0.3000 
    196 H196       -5.6516  -24.3127  -46.0498 H         1 UNK         0.0600 
    197 H197       -4.7744  -25.3743  -43.9644 H         1 UNK         0.0600 
    198 H198       -4.7835  -23.6211  -43.8407 H         1 UNK         0.0600 
    199 H199       -3.2705  -24.4753  -44.1270 H         1 UNK         0.0600 
    200 H200       -2.1189  -24.9619  -46.3725 H         1 UNK         0.3000 
    201 H201       -2.3300  -27.6984  -47.1070 H         1 UNK         0.0600 
    202 H202       -0.2306  -26.6619  -46.2905 H         1 UNK         0.0600 
    203 H203       -0.1399  -25.6445  -47.7259 H         1 UNK         0.0600 
    204 H204        0.0294  -27.3901  -47.8688 H         1 UNK         0.0600 
    205 H205       -2.4239  -24.7314  -49.0444 H         1 UNK         0.3000 
    206 H206       -2.5892  -26.0467  -51.6151 H         1 UNK         0.0600 
    207 H207       -1.5485  -23.8148  -51.3376 H         1 UNK         0.0600 
    208 H208       -2.9258  -23.6960  -52.4149 H         1 UNK         0.0600 
    209 H209       -3.0691  -23.1502  -50.7508 H         1 UNK         0.0600 
    210 H210       -4.7841  -26.3562  -49.3325 H         1 UNK         0.3000 
    211 H211       -6.9067  -26.9349  -49.2007 H         1 UNK         0.0600 
    212 H212       -6.3854  -28.4023  -51.1401 H         1 UNK         0.0600 
    213 H213       -6.8690  -27.1311  -52.2604 H         1 UNK         0.0600 
    214 H214       -8.0550  -27.8588  -51.1880 H         1 UNK         0.0600 
    215 H215       -6.6806  -24.4818  -48.6292 H         1 UNK         0.3000 
    216 H216       -7.7052  -22.5697  -48.2364 H         1 UNK         0.0600 
    217 H217      -10.0802  -22.2003  -48.7322 H         1 UNK         0.0600 
    218 H218       -9.8617  -23.8422  -48.1487 H         1 UNK         0.0600 
    219 H219      -10.1115  -23.5393  -49.8678 H         1 UNK         0.0600 
    220 H220       -5.7936  -22.6454  -50.0153 H         1 UNK         0.3000 
    221 H221       -4.6579  -21.5566  -51.5573 H         1 UNK         0.0600 
    222 H222       -6.8009  -19.3802  -51.3737 H         1 UNK         0.0600 
    223 H223       -5.4342  -19.5601  -50.2757 H         1 UNK         0.0600 
    224 H224       -5.1598  -19.1751  -51.9626 H         1 UNK         0.0600 
    225 H225       -6.7374  -23.4561  -52.5356 H         1 UNK         0.3000 
    226 H226       -7.6581  -22.5100  -55.1094 H         1 UNK         0.0600 
    227 H227       -8.2561  -24.9149  -55.4352 H         1 UNK         0.0600 
    228 H228       -7.4033  -25.3376  -53.9543 H         1 UNK         0.0600 
    229 H229       -8.8362  -24.3143  -53.8886 H         1 UNK         0.0600 
    230 H230       -4.8729  -24.4095  -53.9431 H         1 UNK         0.3000 
    231 H231       -3.7090  -24.6449  -56.6550 H         1 UNK         0.0600 
    232 H232       -3.7286  -26.5905  -55.0717 H         1 UNK         0.0600 
    233 H233       -2.7235  -25.6780  -53.9485 H         1 UNK         0.0600 
    234 H234       -2.0978  -26.1253  -55.5282 H         1 UNK         0.0600 
    235 H235       -3.7722  -22.1713  -54.4798 H         1 UNK         0.3000 
    236 H236       -0.9356  -21.4271  -54.4283 H         1 UNK         0.0600 
    237 H237       -2.4553  -20.9792  -52.4774 H         1 UNK         0.0600 
    238 H238       -1.7625  -19.4989  -53.1065 H         1 UNK         0.0600 
    239 H239       -3.4261  -19.9072  -53.4893 H         1 UNK         0.0600 
    240 H240       -0.5455  -18.9879  -54.9567 H         1 UNK         0.3000 
    241 H241       -0.8810  -18.6295  -57.7798 H         1 UNK         0.0600 
    242 H242       -3.0977  -17.7095  -55.2963 H         1 UNK         0.3800 
    243 H243       -3.9006  -16.4707  -56.2243 H         1 UNK         0.3800 
    244 H244        1.2303  -18.0114  -56.8483 H         1 UNK         0.0800 
    245 H245        0.4936  -16.5567  -57.4264 H         1 UNK         0.0800 
    246 H246        2.8596  -17.0905  -54.4104 H         1 UNK         0.0800 
    247 H247        1.9513  -18.5435  -54.7424 H         1 UNK         0.0800 
@<TRIPOS>BOND
     1    1    2 1    
     2    1  127 1    
     3    1  128 1    
     4    1  129 1    
     5    2    3 2    
     6    2    4 am   BACKBONE|DICT|INTERRES
     7    4    5 1    
     8    4  130 1    
     9    5    6 1    
    10    5   65 1    
    11    5  131 1    
    12    6    7 1    
    13    6  132 1    
    14    6  133 1    
    15    7    8 1    
    16    8    9 1    
    17    8  134 1    
    18    8  135 1    
    19    9   10 ar   
    20    9   14 ar   
    21   10   11 ar   
    22   10  136 1    
    23   11   12 ar   
    24   11  126 1    
    25   12   13 ar   
    26   12  137 1    
    27   13   14 ar   
    28   13   15 1    
    29   14  138 1    
    30   15   16 1    
    31   15  139 1    
    32   15  140 1    
    33   16   17 1    
    34   17   18 1    
    35   17  141 1    
    36   17  142 1    
    37   18   19 1    
    38   18   67 1    
    39   18  143 1    
    40   19   20 am   BACKBONE|DICT|INTERRES
    41   19  144 1    
    42   20   21 2    
    43   20   22 1    
    44   22   23 1    
    45   22   24 1    
    46   22  145 1    
    47   23  146 1    
    48   23  147 1    
    49   23  148 1    
    50   24   25 am   BACKBONE|DICT|INTERRES
    51   24  149 1    
    52   25   26 2    
    53   25   27 1    
    54   27   28 1    
    55   27   29 1    
    56   27  150 1    
    57   28  151 1    
    58   28  152 1    
    59   28  153 1    
    60   29   30 am   BACKBONE|DICT|INTERRES
    61   29  154 1    
    62   30   31 2    
    63   30   32 1    
    64   32   33 1    
    65   32   34 1    
    66   32  155 1    
    67   33  156 1    
    68   33  157 1    
    69   33  158 1    
    70   34   35 am   BACKBONE|DICT|INTERRES
    71   34  159 1    
    72   35   36 2    
    73   35   37 1    
    74   37   38 1    
    75   37   39 1    
    76   37  160 1    
    77   38  161 1    
    78   38  162 1    
    79   38  163 1    
    80   39   40 am   BACKBONE|DICT|INTERRES
    81   39  164 1    
    82   40   41 2    
    83   40   42 1    
    84   42   43 1    
    85   42   44 1    
    86   42  165 1    
    87   43  166 1    
    88   43  167 1    
    89   43  168 1    
    90   44   45 am   BACKBONE|DICT|INTERRES
    91   44  169 1    
    92   45   46 2    
    93   45   47 1    
    94   47   48 1    
    95   47   49 1    
    96   47  170 1    
    97   48  171 1    
    98   48  172 1    
    99   48  173 1    
   100   49   50 am   BACKBONE|DICT|INTERRES
   101   49  174 1    
   102   50   51 2    
   103   50   52 1    
   104   52   53 1    
   105   52   54 1    
   106   52  175 1    
   107   53  176 1    
   108   53  177 1    
   109   53  178 1    
   110   54   55 am   BACKBONE|DICT|INTERRES
   111   54  179 1    
   112   55   56 2    
   113   55   57 1    
   114   57   58 1    
   115   57   59 1    
   116   57  180 1    
   117   58  181 1    
   118   58  182 1    
   119   58  183 1    
   120   59   60 am   BACKBONE|DICT|INTERRES
   121   59  184 1    
   122   60   61 2    
   123   60   62 1    
   124   62   63 1    
   125   62   64 1    
   126   62  185 1    
   127   63  186 1    
   128   63  187 1    
   129   63  188 1    
   130   64   65 am   BACKBONE|DICT|INTERRES
   131   64  189 1    
   132   65   66 2    
   133   67   68 2    
   134   67   69 am   BACKBONE|DICT|INTERRES
   135   69   70 1    
   136   69  190 1    
   137   70   71 1    
   138   70   72 1    
   139   70  191 1    
   140   71  192 1    
   141   71  193 1    
   142   71  194 1    
   143   72   73 2    
   144   72   74 am   BACKBONE|DICT|INTERRES
   145   74   75 1    
   146   74  195 1    
   147   75   76 1    
   148   75   77 1    
   149   75  196 1    
   150   76  197 1    
   151   76  198 1    
   152   76  199 1    
   153   77   78 2    
   154   77   79 am   BACKBONE|DICT|INTERRES
   155   79   80 1    
   156   79  200 1    
   157   80   81 1    
   158   80   82 1    
   159   80  201 1    
   160   81  202 1    
   161   81  203 1    
   162   81  204 1    
   163   82   83 2    
   164   82   84 am   BACKBONE|DICT|INTERRES
   165   84   85 1    
   166   84  205 1    
   167   85   86 1    
   168   85   87 1    
   169   85  206 1    
   170   86  207 1    
   171   86  208 1    
   172   86  209 1    
   173   87   88 2    
   174   87   89 am   BACKBONE|DICT|INTERRES
   175   89   90 1    
   176   89  210 1    
   177   90   91 1    
   178   90   92 1    
   179   90  211 1    
   180   91  212 1    
   181   91  213 1    
   182   91  214 1    
   183   92   93 2    
   184   92   94 am   BACKBONE|DICT|INTERRES
   185   94   95 1    
   186   94  215 1    
   187   95   96 1    
   188   95   97 1    
   189   95  216 1    
   190   96  217 1    
   191   96  218 1    
   192   96  219 1    
   193   97   98 2    
   194   97   99 am   BACKBONE|DICT|INTERRES
   195   99  100 1    
   196   99  220 1    
   197  100  101 1    
   198  100  102 1    
   199  100  221 1    
   200  101  222 1    
   201  101  223 1    
   202  101  224 1    
   203  102  103 2    
   204  102  104 am   BACKBONE|DICT|INTERRES
   205  104  105 1    
   206  104  225 1    
   207  105  106 1    
   208  105  107 1    
   209  105  226 1    
   210  106  227 1    
   211  106  228 1    
   212  106  229 1    
   213  107  108 2    
   214  107  109 am   BACKBONE|DICT|INTERRES
   215  109  110 1    
   216  109  230 1    
   217  110  111 1    
   218  110  112 1    
   219  110  231 1    
   220  111  232 1    
   221  111  233 1    
   222  111  234 1    
   223  112  113 2    
   224  112  114 am   BACKBONE|DICT|INTERRES
   225  114  115 1    
   226  114  235 1    
   227  115  116 1    
   228  115  117 1    
   229  115  236 1    
   230  116  237 1    
   231  116  238 1    
   232  116  239 1    
   233  117  118 2    
   234  117  119 am   BACKBONE|DICT|INTERRES
   235  119  120 1    
   236  119  240 1    
   237  120  121 1    
   238  120  124 1    
   239  120  241 1    
   240  121  122 am   BACKBONE|DICT|INTERRES
   241  121  123 2    
   242  122  242 1    
   243  122  243 1    
   244  124  125 1    
   245  124  244 1    
   246  124  245 1    
   247  125  126 1    
   248  126  246 1    
   249  126  247 1    
@<TRIPOS>SUBSTRUCTURE
     1 UNK         1 GROUP             0       ****    0 ROOT    
