@<TRIPOS>MOLECULE
3R540
247   249    1
SMALL
USER_CHARGES


@<TRIPOS>ATOM
      1 CA          5.3777  -10.5701  -46.1648 C.3       0 UNK        -0.1800 
      2 C           4.0598  -11.3214  -46.2796 C.2       0 UNK         0.5000 
      3 O           3.0009  -10.7389  -46.0448 O.2       0 UNK        -0.5000 
      4 N           4.1140  -12.6025  -46.6693 N.am      1 UNK        -0.5000 
      5 CA          2.9552  -13.4994  -46.7999 C.3       1 UNK         0.1400 
      6 C6          3.3873  -14.9784  -46.9525 C.3       23 UNK        -0.0398 
      7 S7          4.3197  -15.3396  -48.4820 S.3       23 UNK        -0.2404 
      8 C8          4.8104  -17.0776  -48.2005 C.3       23 UNK        -0.0205 
      9 C9          4.0375  -18.1474  -48.9791 C.ar      23 UNK        -0.0193 
     10 C10         2.9813  -17.8635  -49.8585 C.ar      23 UNK        -0.1150 
     11 C11         2.3434  -18.8897  -50.5685 C.ar      23 UNK        -0.0193 
     12 C12         2.7755  -20.2071  -50.3978 C.ar      23 UNK        -0.1150 
     13 C13         3.8123  -20.5138  -49.5130 C.ar      23 UNK        -0.0193 
     14 C14         4.4337  -19.4780  -48.8109 C.ar      23 UNK        -0.1150 
     15 C15         4.2846  -21.9535  -49.3193 C.3       23 UNK        -0.0205 
     16 S16         2.9290  -23.1609  -49.1205 S.3       23 UNK        -0.2404 
     17 C17         2.0077  -22.4222  -47.7308 C.3       23 UNK        -0.0398 
     18 CA          0.9663  -23.3612  -47.0779 C.3       11 UNK         0.1400 
     19 N           0.4048  -22.7509  -45.8716 N.am      11 UNK        -0.5000 
     20 C          -0.4171  -23.3552  -45.0031 C.2       10 UNK         0.5000 
     21 O          -0.7696  -24.5319  -45.0955 O.2       10 UNK        -0.5000 
     22 CA         -0.9741  -22.4763  -43.8667 C.3       10 UNK         0.1400 
     23 CB          0.0857  -22.2445  -42.7793 C.3       10 UNK        -0.1800 
     24 N          -1.4680  -21.1843  -44.3473 N.am      10 UNK        -0.5000 
     25 C          -2.4970  -21.0344  -45.1940 C.2       9 UNK         0.5000 
     26 O          -3.1670  -21.9661  -45.6340 O.2       9 UNK        -0.5000 
     27 CA         -2.7938  -19.6070  -45.6764 C.3       9 UNK         0.1400 
     28 CB         -3.6239  -18.8353  -44.6401 C.3       9 UNK        -0.1800 
     29 N          -1.5701  -18.8734  -45.9968 N.am      9 UNK        -0.5000 
     30 C          -0.7544  -19.1910  -47.0131 C.2       8 UNK         0.5000 
     31 O          -0.9456  -20.1295  -47.7811 O.2       8 UNK        -0.5000 
     32 CA          0.5129  -18.3448  -47.1766 C.3       8 UNK         0.1400 
     33 CB          0.1613  -17.0380  -47.9003 C.3       8 UNK        -0.1800 
     34 N           1.1752  -18.0819  -45.8975 N.am      8 UNK        -0.5000 
     35 C           1.7192  -19.0425  -45.1326 C.2       7 UNK         0.5000 
     36 O           1.7474  -20.2306  -45.4496 O.2       7 UNK        -0.5000 
     37 CA          2.2866  -18.6303  -43.7621 C.3       7 UNK         0.1400 
     38 CB          3.7617  -18.2250  -43.8994 C.3       7 UNK        -0.1800 
     39 N           1.5478  -17.5434  -43.1220 N.am      7 UNK        -0.5000 
     40 C           0.2436  -17.5537  -42.8132 C.2       6 UNK         0.5000 
     41 O          -0.4949  -18.5249  -42.9898 O.2       6 UNK        -0.5000 
     42 CA         -0.3472  -16.2334  -42.2712 C.3       6 UNK         0.1400 
     43 CB          0.6970  -15.3311  -41.5775 C.3       6 UNK        -0.1800 
     44 N          -1.0546  -15.4661  -43.3045 N.am      6 UNK        -0.5000 
     45 C          -0.5937  -15.1208  -44.5171 C.2       5 UNK         0.5000 
     46 O           0.5112  -15.4433  -44.9569 O.2       5 UNK        -0.5000 
     47 CA         -1.5328  -14.2761  -45.3991 C.3       5 UNK         0.1400 
     48 CB         -2.9418  -14.8856  -45.4934 C.3       5 UNK        -0.1800 
     49 N          -1.6319  -12.8573  -45.0390 N.am      5 UNK        -0.5000 
     50 C          -0.6164  -12.0240  -44.7673 C.2       4 UNK         0.5000 
     51 O           0.5474  -12.3665  -44.5631 O.2       4 UNK        -0.5000 
     52 CA         -0.9397  -10.5275  -44.7781 C.3       4 UNK         0.1400 
     53 CB         -0.7399   -9.8867  -43.3948 C.3       4 UNK        -0.1800 
     54 N          -0.0385   -9.9169  -45.7485 N.am      4 UNK        -0.5000 
     55 C          -0.3433   -8.9003  -46.5609 C.2       3 UNK         0.5000 
     56 O          -1.4096   -8.2854  -46.5203 O.2       3 UNK        -0.5000 
     57 CA          0.7095   -8.5264  -47.6169 C.3       3 UNK         0.1400 
     58 CB          1.8209   -7.6601  -47.0024 C.3       3 UNK        -0.1800 
     59 N           1.2962   -9.7191  -48.2325 N.am      3 UNK        -0.5000 
     60 C           0.7836  -10.3457  -49.3028 C.2       2 UNK         0.5000 
     61 O          -0.2328   -9.9654  -49.8849 O.2       2 UNK        -0.5000 
     62 CA          1.5297  -11.5869  -49.8363 C.3       2 UNK         0.1400 
     63 CB          2.3964  -11.2138  -51.0486 C.3       2 UNK        -0.1800 
     64 N           2.3804  -12.2165  -48.8281 N.am      2 UNK        -0.5000 
     65 C           1.9402  -13.0599  -47.8843 C.2       1 UNK         0.5000 
     66 O           0.7824  -13.4704  -47.8391 O.2       1 UNK        -0.5000 
     67 C          -0.1450  -23.7827  -48.0622 C.2       11 UNK         0.5000 
     68 O          -0.1580  -24.9281  -48.5125 O.2       11 UNK        -0.5000 
     69 N          -1.0863  -22.8708  -48.3389 N.am      12 UNK        -0.5000 
     70 CA         -2.2317  -23.1027  -49.2128 C.3       12 UNK         0.1400 
     71 CB         -2.9615  -21.7791  -49.4605 C.3       12 UNK        -0.1800 
     72 C          -3.1982  -24.1713  -48.6787 C.2       12 UNK         0.5000 
     73 O          -3.7352  -24.9358  -49.4760 O.2       12 UNK        -0.5000 
     74 N          -3.3962  -24.2334  -47.3553 N.am      13 UNK        -0.5000 
     75 CA         -4.1865  -25.2731  -46.6947 C.3       13 UNK         0.1400 
     76 CB         -4.3945  -24.9197  -45.2147 C.3       13 UNK        -0.1800 
     77 C          -3.5486  -26.6654  -46.8431 C.2       13 UNK         0.5000 
     78 O          -4.2545  -27.6210  -47.1655 O.2       13 UNK        -0.5000 
     79 N          -2.2223  -26.7449  -46.6598 N.am      14 UNK        -0.5000 
     80 CA         -1.4293  -27.9609  -46.8583 C.3       14 UNK         0.1400 
     81 CB         -0.0084  -27.7390  -46.3181 C.3       14 UNK        -0.1800 
     82 C          -1.3949  -28.4208  -48.3297 C.2       14 UNK         0.5000 
     83 O          -1.4543  -29.6221  -48.5938 O.2       14 UNK        -0.5000 
     84 N          -1.3336  -27.4575  -49.2588 N.am      15 UNK        -0.5000 
     85 CA         -1.3753  -27.6734  -50.7074 C.3       15 UNK         0.1400 
     86 CB         -0.8221  -26.4212  -51.4065 C.3       15 UNK        -0.1800 
     87 C          -2.7807  -28.0072  -51.2520 C.2       15 UNK         0.5000 
     88 O          -2.8901  -28.3915  -52.4171 O.2       15 UNK        -0.5000 
     89 N          -3.8205  -27.8374  -50.4210 N.am      16 UNK        -0.5000 
     90 CA         -5.2475  -27.9777  -50.7315 C.3       16 UNK         0.1400 
     91 CB         -5.5991  -29.4305  -51.1141 C.3       16 UNK        -0.1800 
     92 C          -5.7412  -26.9359  -51.7603 C.2       16 UNK         0.5000 
     93 O          -6.6048  -27.2327  -52.5870 O.2       16 UNK        -0.5000 
     94 N          -5.2018  -25.7153  -51.6628 N.am      17 UNK        -0.5000 
     95 CA         -5.5297  -24.5437  -52.4740 C.3       17 UNK         0.1400 
     96 CB         -4.2188  -23.8479  -52.8834 C.3       17 UNK        -0.1800 
     97 C          -6.4820  -23.6036  -51.7061 C.2       17 UNK         0.5000 
     98 O          -6.2987  -22.3837  -51.7175 O.2       17 UNK        -0.5000 
     99 N          -7.4646  -24.1997  -51.0114 N.am      18 UNK        -0.5000 
    100 CA        -8.5720  -23.5701  -50.2747 C.3       18 UNK         0.1400 
    101 CB        -9.5428  -22.9010  -51.2699 C.3       18 UNK        -0.1800 
    102 C         -8.1502  -22.5979  -49.1490 C.2       18 UNK         0.5000 
    103 O         -8.9722  -21.7941  -48.7067 O.2       18 UNK        -0.5000 
    104 N         -6.8774  -22.6671  -48.7270 N.am      19 UNK        -0.5000 
    105 CA        -6.1905  -21.7249  -47.8332 C.3       19 UNK         0.1400 
    106 CB        -6.7892  -21.7724  -46.4123 C.3       19 UNK        -0.1800 
    107 C         -6.1170  -20.2851  -48.4039 C.2       19 UNK         0.5000 
    108 O         -5.9960  -19.3341  -47.6305 O.2       19 UNK        -0.5000 
    109 N         -6.2188  -20.1443  -49.7359 N.am      20 UNK        -0.5000 
    110 CA        -6.5056  -18.8763  -50.4118 C.3       20 UNK         0.1400 
    111 CB        -7.8000  -19.0607  -51.2226 C.3       20 UNK        -0.1800 
    112 C         -5.3762  -18.3739  -51.3298 C.2       20 UNK         0.5000 
    113 O         -5.4705  -17.2422  -51.8113 O.2       20 UNK        -0.5000 
    114 N         -4.3470  -19.1944  -51.5902 N.am      21 UNK        -0.5000 
    115 CA        -3.2273  -18.8354  -52.4698 C.3       21 UNK         0.1400 
    116 CB        -2.3518  -20.0685  -52.7477 C.3       21 UNK        -0.1800 
    117 C         -2.3793  -17.6790  -51.9013 C.2       21 UNK         0.5000 
    118 O         -2.2519  -17.5505  -50.6827 O.2       21 UNK        -0.5000 
    119 N         -1.8174  -16.8684  -52.8063 N.am      22 UNK        -0.5000 
    120 CA        -1.0163  -15.6564  -52.5347 C.3       22 UNK         0.1400 
    121 C         -1.8111  -14.4634  -51.9167 C.2       22 UNK         0.5000 
    122 N         -3.1303  -14.5305  -51.7795 N.am      22 UNK        -0.7600 
    123 O         -1.2260  -13.4334  -51.5958 O.2       22 UNK        -0.5000 
    124 C124        0.3125  -15.9288  -51.7685 C.3       23 UNK        -0.0398 
    125 S125        1.3711  -17.1755  -52.5844 S.3       23 UNK        -0.2404 
    126 C126        1.1570  -18.6197  -51.4898 C.3       23 UNK        -0.0205 
    127 H127        5.3728   -9.7028  -46.8249 H         1 UNK         0.0600 
    128 H128        6.2277  -11.1983  -46.4328 H         1 UNK         0.0600 
    129 H129        5.5207  -10.2206  -45.1423 H         1 UNK         0.0600 
    130 H130        5.0099  -13.0206  -46.8781 H         1 UNK         0.3000 
    131 H131        2.4211  -13.4404  -45.8517 H         1 UNK         0.0600 
    132 H132        4.0103  -15.2522  -46.1001 H         1 UNK         0.0800 
    133 H133        2.5208  -15.6333  -46.8919 H         1 UNK         0.0800 
    134 H134        5.8642  -17.1629  -48.4694 H         1 UNK         0.0800 
    135 H135        4.7527  -17.3070  -47.1355 H         1 UNK         0.0800 
    136 H136        2.6464  -16.8472  -49.9992 H         1 UNK         0.1150 
    137 H137        2.2902  -21.0045  -50.9429 H         1 UNK         0.1150 
    138 H138        5.2452  -19.7071  -48.1341 H         1 UNK         0.1150 
    139 H139        4.8866  -22.2414  -50.1819 H         1 UNK         0.0800 
    140 H140        4.9388  -22.0274  -48.4491 H         1 UNK         0.0800 
    141 H141        1.5301  -21.5021  -48.0714 H         1 UNK         0.0800 
    142 H142        2.7412  -22.1221  -46.9814 H         1 UNK         0.0800 
    143 H143        1.4841  -24.2698  -46.7635 H         1 UNK         0.0600 
    144 H144        0.6722  -21.7852  -45.7003 H         1 UNK         0.3000 
    145 H145       -1.8146  -23.0085  -43.4163 H         1 UNK         0.0600 
    146 H146       -0.3235  -21.6729  -41.9460 H         1 UNK         0.0600 
    147 H147        0.4467  -23.1925  -42.3786 H         1 UNK         0.0600 
    148 H148        0.9483  -21.7007  -43.1649 H         1 UNK         0.0600 
    149 H149       -0.9863  -20.3546  -44.0200 H         1 UNK         0.3000 
    150 H150       -3.3872  -19.6850  -46.5896 H         1 UNK         0.0600 
    151 H151       -4.5211  -19.3937  -44.3697 H         1 UNK         0.0600 
    152 H152       -3.9547  -17.8760  -45.0354 H         1 UNK         0.0600 
    153 H153       -3.0645  -18.6499  -43.7231 H         1 UNK         0.0600 
    154 H154       -1.2947  -18.1407  -45.3601 H         1 UNK         0.3000 
    155 H155        1.2050  -18.9083  -47.8050 H         1 UNK         0.0600 
    156 H156       -0.4340  -17.2456  -48.7881 H         1 UNK         0.0600 
    157 H157        1.0464  -16.5034  -48.2344 H         1 UNK         0.0600 
    158 H158       -0.4278  -16.3700  -47.2763 H         1 UNK         0.0600 
    159 H159        1.1315  -17.1302  -45.5408 H         1 UNK         0.3000 
    160 H160        2.2277  -19.5002  -43.1052 H         1 UNK         0.0600 
    161 H161        4.3449  -19.0230  -44.3612 H         1 UNK         0.0600 
    162 H162        4.2073  -18.0197  -42.9260 H         1 UNK         0.0600 
    163 H163        3.8778  -17.3340  -44.5176 H         1 UNK         0.0600 
    164 H164        2.0517  -16.6792  -42.9873 H         1 UNK         0.3000 
    165 H165       -1.0896  -16.5159  -41.5234 H         1 UNK         0.0600 
    166 H166        0.2113  -14.4920  -41.0792 H         1 UNK         0.0600 
    167 H167        1.2501  -15.8804  -40.8144 H         1 UNK         0.0600 
    168 H168        1.4187  -14.9154  -42.2819 H         1 UNK         0.0600 
    169 H169       -1.9846  -15.1629  -43.0536 H         1 UNK         0.3000 
    170 H170       -1.1180  -14.3023  -46.4056 H         1 UNK         0.0600 
    171 H171       -2.8893  -15.9351  -45.7833 H         1 UNK         0.0600 
    172 H172       -3.4829  -14.8247  -44.5488 H         1 UNK         0.0600 
    173 H173       -3.5386  -14.3773  -46.2510 H         1 UNK         0.0600 
    174 H174       -2.5478  -12.4505  -45.1601 H         1 UNK         0.3000 
    175 H175       -1.9767  -10.3874  -45.0904 H         1 UNK         0.0600 
    176 H176        0.2881   -9.9938  -43.0465 H         1 UNK         0.0600 
    177 H177       -0.9762   -8.8228  -43.4162 H         1 UNK         0.0600 
    178 H178       -1.3900  -10.3518  -42.6531 H         1 UNK         0.0600 
    179 H179        0.8631  -10.3757  -45.8410 H         1 UNK         0.3000 
    180 H180        0.2158   -7.9285  -48.3861 H         1 UNK         0.0600 
    181 H181        2.3411   -8.1744  -46.1942 H         1 UNK         0.0600 
    182 H182        1.4098   -6.7381  -46.5897 H         1 UNK         0.0600 
    183 H183        2.5611   -7.3792  -47.7516 H         1 UNK         0.0600 
    184 H184        2.0898  -10.1266  -47.7515 H         1 UNK         0.3000 
    185 H185        0.7789  -12.3070  -50.1672 H         1 UNK         0.0600 
    186 H186        1.7904  -10.7680  -51.8386 H         1 UNK         0.0600 
    187 H187        3.1724  -10.4946  -50.7837 H         1 UNK         0.0600 
    188 H188        2.8819  -12.0938  -51.4710 H         1 UNK         0.0600 
    189 H189        3.3512  -11.9412  -48.8084 H         1 UNK         0.3000 
    190 H190       -1.0008  -21.9301  -47.9574 H         1 UNK         0.3000 
    191 H191       -1.8490  -23.4566  -50.1715 H         1 UNK         0.0600 
    192 H192       -2.3085  -21.0672  -49.9583 H         1 UNK         0.0600 
    193 H193       -3.8437  -21.9192  -50.0852 H         1 UNK         0.0600 
    194 H194       -3.2684  -21.3128  -48.5262 H         1 UNK         0.0600 
    195 H195       -2.9862  -23.5234  -46.7547 H         1 UNK         0.3000 
    196 H196       -5.1676  -25.3032  -47.1735 H         1 UNK         0.0600 
    197 H197       -4.9833  -25.6857  -44.7089 H         1 UNK         0.0600 
    198 H198       -4.9289  -23.9765  -45.1060 H         1 UNK         0.0600 
    199 H199       -3.4471  -24.8283  -44.6834 H         1 UNK         0.0600 
    200 H200       -1.7170  -25.9123  -46.3748 H         1 UNK         0.3000 
    201 H201       -1.8915  -28.7592  -46.2740 H         1 UNK         0.0600 
    202 H202       -0.0260  -27.4790  -45.2595 H         1 UNK         0.0600 
    203 H203        0.5059  -26.9374  -46.8487 H         1 UNK         0.0600 
    204 H204        0.5945  -28.6418  -46.4224 H         1 UNK         0.0600 
    205 H205       -1.1969  -26.4990  -48.9492 H         1 UNK         0.3000 
    206 H206       -0.7228  -28.5149  -50.9487 H         1 UNK         0.0600 
    207 H207        0.1830  -26.1832  -51.0576 H         1 UNK         0.0600 
    208 H208       -0.7650  -26.5666  -52.4859 H         1 UNK         0.0600 
    209 H209       -1.4551  -25.5524  -51.2270 H         1 UNK         0.0600 
    210 H210       -3.6149  -27.4946  -49.4918 H         1 UNK         0.3000 
    211 H211       -5.7740  -27.7512  -49.8032 H         1 UNK         0.0600 
    212 H212       -5.1722  -29.7141  -52.0763 H         1 UNK         0.0600 
    213 H213       -6.6790  -29.5640  -51.1860 H         1 UNK         0.0600 
    214 H214       -5.2356  -30.1336  -50.3646 H         1 UNK         0.0600 
    215 H215       -4.5494  -25.5437  -50.8974 H         1 UNK         0.3000 
    216 H216       -6.0466  -24.8507  -53.3851 H         1 UNK         0.0600 
    217 H217       -4.4132  -22.9970  -53.5374 H         1 UNK         0.0600 
    218 H218       -3.5654  -24.5309  -53.4265 H         1 UNK         0.0600 
    219 H219       -3.6691  -23.4809  -52.0170 H         1 UNK         0.0600 
    220 H220       -7.4983  -25.2086  -51.0521 H         1 UNK         0.3000 
    221 H221       -9.1094  -24.3815  -49.7819 H         1 UNK         0.0600 
    222 H222       -9.0872  -22.0395  -51.7593 H         1 UNK         0.0600 
    223 H223       -9.8562  -23.5998  -52.0456 H         1 UNK         0.0600 
    224 H224      -10.4464  -22.5524  -50.7686 H         1 UNK         0.0600 
    225 H225       -6.2928  -23.3668  -49.1611 H         1 UNK         0.3000 
    226 H226       -5.1692  -22.0838  -47.7448 H         1 UNK         0.0600 
    227 H227       -6.8793  -22.7982  -46.0558 H         1 UNK         0.0600 
    228 H228       -6.1518  -21.2397  -45.7055 H         1 UNK         0.0600 
    229 H229       -7.7775  -21.3142  -46.3708 H         1 UNK         0.0600 
    230 H230       -6.2982  -20.9765  -50.3138 H         1 UNK         0.3000 
    231 H231       -6.6836  -18.0857  -49.6801 H         1 UNK         0.0600 
    232 H232       -7.6839  -19.8228  -51.9944 H         1 UNK         0.0600 
    233 H233       -8.0934  -18.1334  -51.7163 H         1 UNK         0.0600 
    234 H234       -8.6279  -19.3609  -50.5795 H         1 UNK         0.0600 
    235 H235       -4.3186  -20.0971  -51.1435 H         1 UNK         0.3000 
    236 H236       -3.6609  -18.5132  -53.4193 H         1 UNK         0.0600 
    237 H237       -2.9532  -20.9464  -52.9840 H         1 UNK         0.0600 
    238 H238       -1.6973  -19.8858  -53.6007 H         1 UNK         0.0600 
    239 H239       -1.7054  -20.3114  -51.9061 H         1 UNK         0.0600 
    240 H240       -1.9792  -17.0566  -53.7853 H         1 UNK         0.3000 
    241 H241       -0.7326  -15.2937  -53.5233 H         1 UNK         0.0600 
    242 H242       -3.6259  -13.7420  -51.3949 H         1 UNK         0.3800 
    243 H243       -3.6357  -15.3702  -52.0198 H         1 UNK         0.3800 
    244 H244        0.9022  -15.0128  -51.7026 H         1 UNK         0.0800 
    245 H245        0.1115  -16.2168  -50.7385 H         1 UNK         0.0800 
    246 H246        0.2625  -18.5155  -50.8771 H         1 UNK         0.0800 
    247 H247        0.9776  -19.4842  -52.1307 H         1 UNK         0.0800 
@<TRIPOS>BOND
     1    1    2 1    
     2    1  127 1    
     3    1  128 1    
     4    1  129 1    
     5    2    3 2    
     6    2    4 am   BACKBONE|DICT|INTERRES
     7    4    5 1    
     8    4  130 1    
     9    5    6 1    
    10    5   65 1    
    11    5  131 1    
    12    6    7 1    
    13    6  132 1    
    14    6  133 1    
    15    7    8 1    
    16    8    9 1    
    17    8  134 1    
    18    8  135 1    
    19    9   10 ar   
    20    9   14 ar   
    21   10   11 ar   
    22   10  136 1    
    23   11   12 ar   
    24   11  126 1    
    25   12   13 ar   
    26   12  137 1    
    27   13   14 ar   
    28   13   15 1    
    29   14  138 1    
    30   15   16 1    
    31   15  139 1    
    32   15  140 1    
    33   16   17 1    
    34   17   18 1    
    35   17  141 1    
    36   17  142 1    
    37   18   19 1    
    38   18   67 1    
    39   18  143 1    
    40   19   20 am   BACKBONE|DICT|INTERRES
    41   19  144 1    
    42   20   21 2    
    43   20   22 1    
    44   22   23 1    
    45   22   24 1    
    46   22  145 1    
    47   23  146 1    
    48   23  147 1    
    49   23  148 1    
    50   24   25 am   BACKBONE|DICT|INTERRES
    51   24  149 1    
    52   25   26 2    
    53   25   27 1    
    54   27   28 1    
    55   27   29 1    
    56   27  150 1    
    57   28  151 1    
    58   28  152 1    
    59   28  153 1    
    60   29   30 am   BACKBONE|DICT|INTERRES
    61   29  154 1    
    62   30   31 2    
    63   30   32 1    
    64   32   33 1    
    65   32   34 1    
    66   32  155 1    
    67   33  156 1    
    68   33  157 1    
    69   33  158 1    
    70   34   35 am   BACKBONE|DICT|INTERRES
    71   34  159 1    
    72   35   36 2    
    73   35   37 1    
    74   37   38 1    
    75   37   39 1    
    76   37  160 1    
    77   38  161 1    
    78   38  162 1    
    79   38  163 1    
    80   39   40 am   BACKBONE|DICT|INTERRES
    81   39  164 1    
    82   40   41 2    
    83   40   42 1    
    84   42   43 1    
    85   42   44 1    
    86   42  165 1    
    87   43  166 1    
    88   43  167 1    
    89   43  168 1    
    90   44   45 am   BACKBONE|DICT|INTERRES
    91   44  169 1    
    92   45   46 2    
    93   45   47 1    
    94   47   48 1    
    95   47   49 1    
    96   47  170 1    
    97   48  171 1    
    98   48  172 1    
    99   48  173 1    
   100   49   50 am   BACKBONE|DICT|INTERRES
   101   49  174 1    
   102   50   51 2    
   103   50   52 1    
   104   52   53 1    
   105   52   54 1    
   106   52  175 1    
   107   53  176 1    
   108   53  177 1    
   109   53  178 1    
   110   54   55 am   BACKBONE|DICT|INTERRES
   111   54  179 1    
   112   55   56 2    
   113   55   57 1    
   114   57   58 1    
   115   57   59 1    
   116   57  180 1    
   117   58  181 1    
   118   58  182 1    
   119   58  183 1    
   120   59   60 am   BACKBONE|DICT|INTERRES
   121   59  184 1    
   122   60   61 2    
   123   60   62 1    
   124   62   63 1    
   125   62   64 1    
   126   62  185 1    
   127   63  186 1    
   128   63  187 1    
   129   63  188 1    
   130   64   65 am   BACKBONE|DICT|INTERRES
   131   64  189 1    
   132   65   66 2    
   133   67   68 2    
   134   67   69 am   BACKBONE|DICT|INTERRES
   135   69   70 1    
   136   69  190 1    
   137   70   71 1    
   138   70   72 1    
   139   70  191 1    
   140   71  192 1    
   141   71  193 1    
   142   71  194 1    
   143   72   73 2    
   144   72   74 am   BACKBONE|DICT|INTERRES
   145   74   75 1    
   146   74  195 1    
   147   75   76 1    
   148   75   77 1    
   149   75  196 1    
   150   76  197 1    
   151   76  198 1    
   152   76  199 1    
   153   77   78 2    
   154   77   79 am   BACKBONE|DICT|INTERRES
   155   79   80 1    
   156   79  200 1    
   157   80   81 1    
   158   80   82 1    
   159   80  201 1    
   160   81  202 1    
   161   81  203 1    
   162   81  204 1    
   163   82   83 2    
   164   82   84 am   BACKBONE|DICT|INTERRES
   165   84   85 1    
   166   84  205 1    
   167   85   86 1    
   168   85   87 1    
   169   85  206 1    
   170   86  207 1    
   171   86  208 1    
   172   86  209 1    
   173   87   88 2    
   174   87   89 am   BACKBONE|DICT|INTERRES
   175   89   90 1    
   176   89  210 1    
   177   90   91 1    
   178   90   92 1    
   179   90  211 1    
   180   91  212 1    
   181   91  213 1    
   182   91  214 1    
   183   92   93 2    
   184   92   94 am   BACKBONE|DICT|INTERRES
   185   94   95 1    
   186   94  215 1    
   187   95   96 1    
   188   95   97 1    
   189   95  216 1    
   190   96  217 1    
   191   96  218 1    
   192   96  219 1    
   193   97   98 2    
   194   97   99 am   BACKBONE|DICT|INTERRES
   195   99  100 1    
   196   99  220 1    
   197  100  101 1    
   198  100  102 1    
   199  100  221 1    
   200  101  222 1    
   201  101  223 1    
   202  101  224 1    
   203  102  103 2    
   204  102  104 am   BACKBONE|DICT|INTERRES
   205  104  105 1    
   206  104  225 1    
   207  105  106 1    
   208  105  107 1    
   209  105  226 1    
   210  106  227 1    
   211  106  228 1    
   212  106  229 1    
   213  107  108 2    
   214  107  109 am   BACKBONE|DICT|INTERRES
   215  109  110 1    
   216  109  230 1    
   217  110  111 1    
   218  110  112 1    
   219  110  231 1    
   220  111  232 1    
   221  111  233 1    
   222  111  234 1    
   223  112  113 2    
   224  112  114 am   BACKBONE|DICT|INTERRES
   225  114  115 1    
   226  114  235 1    
   227  115  116 1    
   228  115  117 1    
   229  115  236 1    
   230  116  237 1    
   231  116  238 1    
   232  116  239 1    
   233  117  118 2    
   234  117  119 am   BACKBONE|DICT|INTERRES
   235  119  120 1    
   236  119  240 1    
   237  120  121 1    
   238  120  124 1    
   239  120  241 1    
   240  121  122 am   BACKBONE|DICT|INTERRES
   241  121  123 2    
   242  122  242 1    
   243  122  243 1    
   244  124  125 1    
   245  124  244 1    
   246  124  245 1    
   247  125  126 1    
   248  126  246 1    
   249  126  247 1    
@<TRIPOS>SUBSTRUCTURE
     1 UNK         1 GROUP             0       ****    0 ROOT    
