@<TRIPOS>MOLECULE
3R540
247   249    1
SMALL
USER_CHARGES


@<TRIPOS>ATOM
      1 CA          6.2198  -15.3307  -46.6399 C.3       0 UNK        -0.1800 
      2 C           4.8450  -14.8901  -46.1608 C.2       0 UNK         0.5000 
      3 O           4.3009  -15.4906  -45.2332 O.2       0 UNK        -0.5000 
      4 N           4.2842  -13.8525  -46.7930 N.am      1 UNK        -0.5000 
      5 CA          2.9910  -13.2510  -46.4524 C.3       1 UNK         0.1400 
      6 C6          2.4778  -12.3084  -47.5670 C.3       23 UNK        -0.0398 
      7 S7          2.1059  -13.2179  -49.1043 S.3       23 UNK        -0.2404 
      8 C8          0.2851  -13.3240  -49.0607 C.3       23 UNK        -0.0205 
      9 C9         -0.1991  -14.7488  -49.2851 C.ar      23 UNK        -0.0193 
     10 C10        -0.0308  -15.3623  -50.5301 C.ar      23 UNK        -0.1150 
     11 C11        -0.4791  -16.6684  -50.7431 C.ar      23 UNK        -0.0193 
     12 C12        -1.0946  -17.3625  -49.6982 C.ar      23 UNK        -0.1150 
     13 C13        -1.2907  -16.7550  -48.4521 C.ar      23 UNK        -0.0193 
     14 C14        -0.8360  -15.4479  -48.2554 C.ar      23 UNK        -0.1150 
     15 C15        -1.9615  -17.5078  -47.3068 C.3       23 UNK        -0.0205 
     16 S16        -3.4427  -18.4290  -47.8421 S.3       23 UNK        -0.2404 
     17 C17        -3.4525  -19.8697  -46.7235 C.3       23 UNK        -0.0398 
     18 CA         -2.6324  -21.0556  -47.2926 C.3       11 UNK         0.1400 
     19 N          -1.1883  -20.8143  -47.2023 N.am      11 UNK        -0.5000 
     20 C          -0.2515  -21.5316  -47.8348 C.2       10 UNK         0.5000 
     21 O          -0.5011  -22.4972  -48.5519 O.2       10 UNK        -0.5000 
     22 CA          1.2134  -21.1318  -47.5809 C.3       10 UNK         0.1400 
     23 CB          1.6173  -19.9688  -48.4995 C.3       10 UNK        -0.1800 
     24 N           1.5072  -20.7687  -46.1912 N.am      10 UNK        -0.5000 
     25 C           1.2924  -21.5403  -45.1148 C.2       9 UNK         0.5000 
     26 O           0.7231  -22.6311  -45.1652 O.2       9 UNK        -0.5000 
     27 CA          1.7731  -20.9830  -43.7578 C.3       9 UNK         0.1400 
     28 CB          1.9943  -22.0863  -42.7027 C.3       9 UNK        -0.1800 
     29 N           2.9545  -20.1178  -43.8632 N.am      9 UNK        -0.5000 
     30 C           4.1846  -20.4531  -44.2885 C.2       8 UNK         0.5000 
     31 O           4.4907  -21.5791  -44.6807 O.2       8 UNK        -0.5000 
     32 CA          5.2564  -19.3403  -44.2978 C.3       8 UNK         0.1400 
     33 CB          5.6402  -18.9760  -45.7408 C.3       8 UNK        -0.1800 
     34 N           4.8351  -18.1181  -43.6103 N.am      8 UNK        -0.5000 
     35 C           4.7362  -17.9678  -42.2804 C.2       7 UNK         0.5000 
     36 O           5.0901  -18.8191  -41.4650 O.2       7 UNK        -0.5000 
     37 CA          4.0761  -16.6650  -41.7904 C.3       7 UNK         0.1400 
     38 CB          5.1356  -15.5832  -41.5329 C.3       7 UNK        -0.1800 
     39 N           3.1125  -16.1652  -42.7707 N.am      7 UNK        -0.5000 
     40 C           1.9015  -16.6867  -42.9900 C.2       6 UNK         0.5000 
     41 O           1.3830  -17.5619  -42.2951 O.2       6 UNK        -0.5000 
     42 CA          1.1829  -16.1963  -44.2479 C.3       6 UNK         0.1400 
     43 CB          1.2574  -17.2393  -45.3742 C.3       6 UNK        -0.1800 
     44 N          -0.2081  -15.9057  -43.9262 N.am      6 UNK        -0.5000 
     45 C          -0.8419  -14.7912  -44.3018 C.2       5 UNK         0.5000 
     46 O          -0.3368  -13.9520  -45.0525 O.2       5 UNK        -0.5000 
     47 CA         -2.2530  -14.5717  -43.7261 C.3       5 UNK         0.1400 
     48 CB         -2.2437  -14.5926  -42.1868 C.3       5 UNK        -0.1800 
     49 N          -2.7835  -13.2832  -44.1659 N.am      5 UNK        -0.5000 
     50 C          -3.5276  -13.0933  -45.2630 C.2       4 UNK         0.5000 
     51 O          -3.9357  -14.0095  -45.9778 O.2       4 UNK        -0.5000 
     52 CA         -3.8918  -11.6381  -45.6230 C.3       4 UNK         0.1400 
     53 CB         -5.3154  -11.3081  -45.1478 C.3       4 UNK        -0.1800 
     54 N          -2.9658  -10.6534  -45.0587 N.am      4 UNK        -0.5000 
     55 C          -1.7365  -10.4110  -45.5314 C.2       3 UNK         0.5000 
     56 O          -1.2731  -10.9515  -46.5369 O.2       3 UNK        -0.5000 
     57 CA         -0.8574   -9.4067  -44.7570 C.3       3 UNK         0.1400 
     58 CB         -1.6001   -8.6048  -43.6629 C.3       3 UNK        -0.1800 
     59 N           0.3258  -10.0811  -44.2157 N.am      3 UNK        -0.5000 
     60 C           0.3419  -11.0782  -43.3190 C.2       2 UNK         0.5000 
     61 O          -0.6568  -11.4912  -42.7263 O.2       2 UNK        -0.5000 
     62 CA          1.6965  -11.7808  -43.1462 C.3       2 UNK         0.1400 
     63 CB          1.7262  -12.7690  -41.9657 C.3       2 UNK        -0.1800 
     64 N           1.9395  -12.5074  -44.3850 N.am      2 UNK        -0.5000 
     65 C           3.0600  -12.4962  -45.1087 C.2       1 UNK         0.5000 
     66 O           4.0873  -11.8975  -44.7814 O.2       1 UNK        -0.5000 
     67 C          -3.0375  -22.3839  -46.6197 C.2       11 UNK         0.5000 
     68 O          -3.9195  -23.0754  -47.1317 O.2       11 UNK        -0.5000 
     69 N          -2.3716  -22.7290  -45.5079 N.am      12 UNK        -0.5000 
     70 CA         -2.5719  -23.9834  -44.7834 C.3       12 UNK         0.1400 
     71 CB         -2.0281  -23.8511  -43.3531 C.3       12 UNK        -0.1800 
     72 C          -1.9207  -25.1684  -45.5144 C.2       12 UNK         0.5000 
     73 O          -2.5353  -26.2300  -45.6088 O.2       12 UNK        -0.5000 
     74 N          -0.7165  -24.9542  -46.0643 N.am      13 UNK        -0.5000 
     75 CA          0.0119  -25.9193  -46.8928 C.3       13 UNK         0.1400 
     76 CB          1.4152  -25.3725  -47.1945 C.3       13 UNK        -0.1800 
     77 C          -0.7345  -26.2649  -48.1965 C.2       13 UNK         0.5000 
     78 O          -0.7462  -27.4254  -48.6071 O.2       13 UNK        -0.5000 
     79 N          -1.3867  -25.2569  -48.7893 N.am      14 UNK        -0.5000 
     80 CA         -2.2688  -25.3741  -49.9505 C.3       14 UNK         0.1400 
     81 CB         -2.3290  -24.0053  -50.6395 C.3       14 UNK        -0.1800 
     82 C          -3.6889  -25.8746  -49.6022 C.2       14 UNK         0.5000 
     83 O          -4.5171  -26.0055  -50.5066 O.2       14 UNK        -0.5000 
     84 N          -3.9533  -26.1235  -48.3091 N.am      15 UNK        -0.5000 
     85 CA         -5.1896  -26.6526  -47.7236 C.3       15 UNK         0.1400 
     86 CB         -5.3603  -28.1368  -48.1074 C.3       15 UNK        -0.1800 
     87 C          -6.4382  -25.8072  -48.0464 C.2       15 UNK         0.5000 
     88 O          -7.5225  -26.3625  -48.2330 O.2       15 UNK        -0.5000 
     89 N          -6.2535  -24.4824  -48.1522 N.am      16 UNK        -0.5000 
     90 CA         -7.2065  -23.4412  -48.5612 C.3       16 UNK         0.1400 
     91 CB         -8.3881  -23.3478  -47.5784 C.3       16 UNK        -0.1800 
     92 C          -7.7063  -23.5468  -50.0196 C.2       16 UNK         0.5000 
     93 O          -7.8668  -22.5174  -50.6737 O.2       16 UNK        -0.5000 
     94 N          -7.9350  -24.7688  -50.5134 N.am      17 UNK        -0.5000 
     95 CA         -8.4655  -25.0808  -51.8396 C.3       17 UNK         0.1400 
     96 CB         -8.7353  -26.5906  -51.9274 C.3       17 UNK        -0.1800 
     97 C          -7.5573  -24.6262  -52.9955 C.2       17 UNK         0.5000 
     98 O          -8.0645  -24.1055  -53.9897 O.2       17 UNK        -0.5000 
     99 N          -6.2393  -24.8134  -52.8429 N.am      18 UNK        -0.5000 
    100 CA        -5.2366  -24.4291  -53.8404 C.3       18 UNK         0.1400 
    101 CB        -4.1963  -25.5549  -53.9652 C.3       18 UNK        -0.1800 
    102 C         -4.5647  -23.0830  -53.5120 C.2       18 UNK         0.5000 
    103 O         -3.6510  -22.6758  -54.2322 O.2       18 UNK        -0.5000 
    104 N         -4.9965  -22.4103  -52.4332 N.am      19 UNK        -0.5000 
    105 CA        -4.3954  -21.1725  -51.9244 C.3       19 UNK         0.1400 
    106 CB        -4.9893  -20.8309  -50.5528 C.3       19 UNK        -0.1800 
    107 C         -4.5173  -19.9770  -52.8867 C.2       19 UNK         0.5000 
    108 O         -3.6732  -19.0838  -52.8414 O.2       19 UNK        -0.5000 
    109 N         -5.5086  -20.0133  -53.7886 N.am      20 UNK        -0.5000 
    110 CA        -5.6749  -19.0634  -54.8930 C.3       20 UNK         0.1400 
    111 CB        -7.0192  -19.3345  -55.5849 C.3       20 UNK        -0.1800 
    112 C         -4.5209  -19.1075  -55.9185 C.2       20 UNK         0.5000 
    113 O         -4.2366  -18.0911  -56.5525 O.2       20 UNK        -0.5000 
    114 N         -3.8661  -20.2703  -56.0403 N.am      21 UNK        -0.5000 
    115 CA        -2.6578  -20.4889  -56.8381 C.3       21 UNK         0.1400 
    116 CB        -2.8265  -21.8054  -57.6154 C.3       21 UNK        -0.1800 
    117 C         -1.3914  -20.5335  -55.9558 C.2       21 UNK         0.5000 
    118 O         -0.2996  -20.7651  -56.4767 O.2       21 UNK        -0.5000 
    119 N         -1.5548  -20.3256  -54.6418 N.am      22 UNK        -0.5000 
    120 CA        -0.5307  -20.4559  -53.5956 C.3       22 UNK         0.1400 
    121 C         -0.0136  -21.9121  -53.3804 C.2       22 UNK         0.5000 
    122 N         -0.7997  -22.9336  -53.7019 N.am      22 UNK        -0.7600 
    123 O          1.0979  -22.1275  -52.9053 O.2       22 UNK        -0.5000 
    124 C124        0.5921  -19.3831  -53.7265 C.3       23 UNK        -0.0398 
    125 S125        0.9674  -18.5881  -52.1284 S.3       23 UNK        -0.2404 
    126 C126       -0.3386  -17.3211  -52.1084 C.3       23 UNK        -0.0205 
    127 H127        6.8745  -15.5131  -45.7877 H         1 UNK         0.0600 
    128 H128        6.6878  -14.5754  -47.2716 H         1 UNK         0.0600 
    129 H129        6.1372  -16.2532  -47.2139 H         1 UNK         0.0600 
    130 H130        4.7884  -13.4005  -47.5416 H         1 UNK         0.3000 
    131 H131        2.2685  -14.0625  -46.3523 H         1 UNK         0.0600 
    132 H132        1.5868  -11.7655  -47.2457 H         1 UNK         0.0800 
    133 H133        3.2233  -11.5439  -47.7927 H         1 UNK         0.0800 
    134 H134       -0.1274  -12.6755  -49.8347 H         1 UNK         0.0800 
    135 H135       -0.1021  -12.9475  -48.1127 H         1 UNK         0.0800 
    136 H136        0.4485  -14.8188  -51.3322 H         1 UNK         0.1150 
    137 H137       -1.4324  -18.3759  -49.8643 H         1 UNK         0.1150 
    138 H138       -0.9800  -14.9708  -47.2978 H         1 UNK         0.1150 
    139 H139       -1.2269  -18.1813  -46.8715 H         1 UNK         0.0800 
    140 H140       -2.2560  -16.8184  -46.5138 H         1 UNK         0.0800 
    141 H141       -4.4999  -20.1529  -46.6002 H         1 UNK         0.0800 
    142 H142       -3.1009  -19.5786  -45.7323 H         1 UNK         0.0800 
    143 H143       -2.8792  -21.1634  -48.3510 H         1 UNK         0.0600 
    144 H144       -0.8885  -20.0546  -46.6128 H         1 UNK         0.3000 
    145 H145        1.8352  -21.9939  -47.8295 H         1 UNK         0.0600 
    146 H146        2.6798  -19.7426  -48.4088 H         1 UNK         0.0600 
    147 H147        1.4282  -20.2161  -49.5450 H         1 UNK         0.0600 
    148 H148        1.0601  -19.0589  -48.2726 H         1 UNK         0.0600 
    149 H149        2.0003  -19.9006  -46.0536 H         1 UNK         0.3000 
    150 H150        0.9659  -20.3449  -43.3955 H         1 UNK         0.0600 
    151 H151        1.0682  -22.6224  -42.4950 H         1 UNK         0.0600 
    152 H152        2.3406  -21.6649  -41.7589 H         1 UNK         0.0600 
    153 H153        2.7291  -22.8213  -43.0323 H         1 UNK         0.0600 
    154 H154        2.8245  -19.1740  -43.5291 H         1 UNK         0.3000 
    155 H155        6.1414  -19.7360  -43.7954 H         1 UNK         0.0600 
    156 H156        4.8028  -18.5337  -46.2822 H         1 UNK         0.0600 
    157 H157        5.9644  -19.8561  -46.2975 H         1 UNK         0.0600 
    158 H158        6.4654  -18.2642  -45.7569 H         1 UNK         0.0600 
    159 H159        4.5645  -17.3391  -44.2000 H         1 UNK         0.3000 
    160 H160        3.5563  -16.8757  -40.8534 H         1 UNK         0.0600 
    161 H161        4.6823  -14.6743  -41.1374 H         1 UNK         0.0600 
    162 H162        5.6729  -15.3200  -42.4453 H         1 UNK         0.0600 
    163 H163        5.8716  -15.9231  -40.8033 H         1 UNK         0.0600 
    164 H164        3.4884  -15.5294  -43.4683 H         1 UNK         0.3000 
    165 H165        1.6927  -15.2941  -44.5795 H         1 UNK         0.0600 
    166 H166        0.8504  -16.8377  -46.3013 H         1 UNK         0.0600 
    167 H167        2.2899  -17.5252  -45.5781 H         1 UNK         0.0600 
    168 H168        0.7007  -18.1417  -45.1221 H         1 UNK         0.0600 
    169 H169       -0.6398  -16.5385  -43.2658 H         1 UNK         0.3000 
    170 H170       -2.8929  -15.3821  -44.0810 H         1 UNK         0.0600 
    171 H171       -1.9481  -15.5686  -41.8011 H         1 UNK         0.0600 
    172 H172       -1.5540  -13.8547  -41.7760 H         1 UNK         0.0600 
    173 H173       -3.2349  -14.3791  -41.7862 H         1 UNK         0.0600 
    174 H174       -2.4053  -12.4720  -43.6919 H         1 UNK         0.3000 
    175 H175       -3.8691  -11.5540  -46.7117 H         1 UNK         0.0600 
    176 H176       -5.4012  -11.3667  -44.0621 H         1 UNK         0.0600 
    177 H177       -5.6119  -10.3051  -45.4555 H         1 UNK         0.0600 
    178 H178       -6.0401  -12.0043  -45.5723 H         1 UNK         0.0600 
    179 H179       -3.2648  -10.1749  -44.2214 H         1 UNK         0.3000 
    180 H180       -0.4942   -8.6903  -45.4953 H         1 UNK         0.0600 
    181 H181       -0.9325   -7.8817  -43.1943 H         1 UNK         0.0600 
    182 H182       -2.0000   -9.2399  -42.8723 H         1 UNK         0.0600 
    183 H183       -2.4316   -8.0413  -44.0882 H         1 UNK         0.0600 
    184 H184        1.1946   -9.8555  -44.6789 H         1 UNK         0.3000 
    185 H185        2.4563  -11.0135  -42.9838 H         1 UNK         0.0600 
    186 H186        1.5075  -12.2606  -41.0261 H         1 UNK         0.0600 
    187 H187        0.9952  -13.5688  -42.0864 H         1 UNK         0.0600 
    188 H188        2.7088  -13.2299  -41.8666 H         1 UNK         0.0600 
    189 H189        1.1172  -12.9915  -44.7500 H         1 UNK         0.3000 
    190 H190       -1.6084  -22.1469  -45.1948 H         1 UNK         0.3000 
    191 H191       -3.6448  -24.1783  -44.7181 H         1 UNK         0.0600 
    192 H192       -2.2167  -24.7604  -42.7809 H         1 UNK         0.0600 
    193 H193       -2.5074  -23.0282  -42.8228 H         1 UNK         0.0600 
    194 H194       -0.9525  -23.6770  -43.3424 H         1 UNK         0.0600 
    195 H195       -0.2560  -24.0639  -45.8910 H         1 UNK         0.3000 
    196 H196        0.1196  -26.8398  -46.3156 H         1 UNK         0.0600 
    197 H197        1.3708  -24.4486  -47.7713 H         1 UNK         0.0600 
    198 H198        1.9645  -25.1661  -46.2756 H         1 UNK         0.0600 
    199 H199        1.9990  -26.0917  -47.7700 H         1 UNK         0.0600 
    200 H200       -1.2495  -24.3161  -48.4316 H         1 UNK         0.3000 
    201 H201       -1.8335  -26.0894  -50.6510 H         1 UNK         0.0600 
    202 H202       -2.8320  -23.2627  -50.0192 H         1 UNK         0.0600 
    203 H203       -2.8645  -24.0733  -51.5811 H         1 UNK         0.0600 
    204 H204       -1.3312  -23.6320  -50.8701 H         1 UNK         0.0600 
    205 H205       -3.2088  -25.9643  -47.6422 H         1 UNK         0.3000 
    206 H206       -5.0644  -26.6020  -46.6414 H         1 UNK         0.0600 
    207 H207       -4.4718  -28.7136  -47.8505 H         1 UNK         0.0600 
    208 H208       -6.2009  -28.5864  -47.5777 H         1 UNK         0.0600 
    209 H209       -5.5420  -28.2584  -49.1758 H         1 UNK         0.0600 
    210 H210       -5.3198  -24.1334  -47.9485 H         1 UNK         0.3000 
    211 H211       -6.6555  -22.5028  -48.4898 H         1 UNK         0.0600 
    212 H212       -9.0293  -22.5000  -47.8228 H         1 UNK         0.0600 
    213 H213       -8.0389  -23.2068  -46.5555 H         1 UNK         0.0600 
    214 H214       -9.0112  -24.2422  -47.6008 H         1 UNK         0.0600 
    215 H215       -7.7961  -25.5507  -49.8788 H         1 UNK         0.3000 
    216 H216       -9.4183  -24.5578  -51.9439 H         1 UNK         0.0600 
    217 H217       -7.8225  -27.1706  -51.7837 H         1 UNK         0.0600 
    218 H218       -9.1475  -26.8595  -52.9008 H         1 UNK         0.0600 
    219 H219       -9.4545  -26.9068  -51.1715 H         1 UNK         0.0600 
    220 H220       -5.8896  -25.2440  -51.9925 H         1 UNK         0.3000 
    221 H221       -5.7036  -24.3106  -54.8201 H         1 UNK         0.0600 
    222 H222       -4.6691  -26.4928  -54.2565 H         1 UNK         0.0600 
    223 H223       -3.6659  -25.7284  -53.0300 H         1 UNK         0.0600 
    224 H224       -3.4506  -25.3206  -54.7261 H         1 UNK         0.0600 
    225 H225       -5.7805  -22.7831  -51.9161 H         1 UNK         0.3000 
    226 H226       -3.3287  -21.3617  -51.7868 H         1 UNK         0.0600 
    227 H227       -6.0543  -20.6085  -50.6180 H         1 UNK         0.0600 
    228 H228       -4.8517  -21.6494  -49.8469 H         1 UNK         0.0600 
    229 H229       -4.5013  -19.9523  -50.1318 H         1 UNK         0.0600 
    230 H230       -6.1592  -20.7844  -53.7505 H         1 UNK         0.3000 
    231 H231       -5.7016  -18.0571  -54.4699 H         1 UNK         0.0600 
    232 H232       -7.0587  -20.3392  -56.0079 H         1 UNK         0.0600 
    233 H233       -7.1891  -18.6284  -56.3989 H         1 UNK         0.0600 
    234 H234       -7.8505  -19.2302  -54.8874 H         1 UNK         0.0600 
    235 H235       -4.1461  -21.0531  -55.4606 H         1 UNK         0.3000 
    236 H236       -2.5244  -19.6800  -57.5590 H         1 UNK         0.0600 
    237 H237       -3.7129  -21.7776  -58.2492 H         1 UNK         0.0600 
    238 H238       -1.9704  -21.9914  -58.2650 H         1 UNK         0.0600 
    239 H239       -2.9211  -22.6598  -56.9439 H         1 UNK         0.0600 
    240 H240       -2.4806  -20.0934  -54.3088 H         1 UNK         0.3000 
    241 H241       -1.0841  -20.2503  -52.6790 H         1 UNK         0.0600 
    242 H242       -0.4625  -23.8726  -53.5694 H         1 UNK         0.3800 
    243 H243       -1.7400  -22.7790  -54.0528 H         1 UNK         0.3800 
    244 H244        0.3019  -18.5972  -54.4253 H         1 UNK         0.0800 
    245 H245        1.5072  -19.8077  -54.1422 H         1 UNK         0.0800 
    246 H246       -0.1243  -16.5728  -52.8730 H         1 UNK         0.0800 
    247 H247       -1.2935  -17.7726  -52.3812 H         1 UNK         0.0800 
@<TRIPOS>BOND
     1    1    2 1    
     2    1  127 1    
     3    1  128 1    
     4    1  129 1    
     5    2    3 2    
     6    2    4 am   BACKBONE|DICT|INTERRES
     7    4    5 1    
     8    4  130 1    
     9    5    6 1    
    10    5   65 1    
    11    5  131 1    
    12    6    7 1    
    13    6  132 1    
    14    6  133 1    
    15    7    8 1    
    16    8    9 1    
    17    8  134 1    
    18    8  135 1    
    19    9   10 ar   
    20    9   14 ar   
    21   10   11 ar   
    22   10  136 1    
    23   11   12 ar   
    24   11  126 1    
    25   12   13 ar   
    26   12  137 1    
    27   13   14 ar   
    28   13   15 1    
    29   14  138 1    
    30   15   16 1    
    31   15  139 1    
    32   15  140 1    
    33   16   17 1    
    34   17   18 1    
    35   17  141 1    
    36   17  142 1    
    37   18   19 1    
    38   18   67 1    
    39   18  143 1    
    40   19   20 am   BACKBONE|DICT|INTERRES
    41   19  144 1    
    42   20   21 2    
    43   20   22 1    
    44   22   23 1    
    45   22   24 1    
    46   22  145 1    
    47   23  146 1    
    48   23  147 1    
    49   23  148 1    
    50   24   25 am   BACKBONE|DICT|INTERRES
    51   24  149 1    
    52   25   26 2    
    53   25   27 1    
    54   27   28 1    
    55   27   29 1    
    56   27  150 1    
    57   28  151 1    
    58   28  152 1    
    59   28  153 1    
    60   29   30 am   BACKBONE|DICT|INTERRES
    61   29  154 1    
    62   30   31 2    
    63   30   32 1    
    64   32   33 1    
    65   32   34 1    
    66   32  155 1    
    67   33  156 1    
    68   33  157 1    
    69   33  158 1    
    70   34   35 am   BACKBONE|DICT|INTERRES
    71   34  159 1    
    72   35   36 2    
    73   35   37 1    
    74   37   38 1    
    75   37   39 1    
    76   37  160 1    
    77   38  161 1    
    78   38  162 1    
    79   38  163 1    
    80   39   40 am   BACKBONE|DICT|INTERRES
    81   39  164 1    
    82   40   41 2    
    83   40   42 1    
    84   42   43 1    
    85   42   44 1    
    86   42  165 1    
    87   43  166 1    
    88   43  167 1    
    89   43  168 1    
    90   44   45 am   BACKBONE|DICT|INTERRES
    91   44  169 1    
    92   45   46 2    
    93   45   47 1    
    94   47   48 1    
    95   47   49 1    
    96   47  170 1    
    97   48  171 1    
    98   48  172 1    
    99   48  173 1    
   100   49   50 am   BACKBONE|DICT|INTERRES
   101   49  174 1    
   102   50   51 2    
   103   50   52 1    
   104   52   53 1    
   105   52   54 1    
   106   52  175 1    
   107   53  176 1    
   108   53  177 1    
   109   53  178 1    
   110   54   55 am   BACKBONE|DICT|INTERRES
   111   54  179 1    
   112   55   56 2    
   113   55   57 1    
   114   57   58 1    
   115   57   59 1    
   116   57  180 1    
   117   58  181 1    
   118   58  182 1    
   119   58  183 1    
   120   59   60 am   BACKBONE|DICT|INTERRES
   121   59  184 1    
   122   60   61 2    
   123   60   62 1    
   124   62   63 1    
   125   62   64 1    
   126   62  185 1    
   127   63  186 1    
   128   63  187 1    
   129   63  188 1    
   130   64   65 am   BACKBONE|DICT|INTERRES
   131   64  189 1    
   132   65   66 2    
   133   67   68 2    
   134   67   69 am   BACKBONE|DICT|INTERRES
   135   69   70 1    
   136   69  190 1    
   137   70   71 1    
   138   70   72 1    
   139   70  191 1    
   140   71  192 1    
   141   71  193 1    
   142   71  194 1    
   143   72   73 2    
   144   72   74 am   BACKBONE|DICT|INTERRES
   145   74   75 1    
   146   74  195 1    
   147   75   76 1    
   148   75   77 1    
   149   75  196 1    
   150   76  197 1    
   151   76  198 1    
   152   76  199 1    
   153   77   78 2    
   154   77   79 am   BACKBONE|DICT|INTERRES
   155   79   80 1    
   156   79  200 1    
   157   80   81 1    
   158   80   82 1    
   159   80  201 1    
   160   81  202 1    
   161   81  203 1    
   162   81  204 1    
   163   82   83 2    
   164   82   84 am   BACKBONE|DICT|INTERRES
   165   84   85 1    
   166   84  205 1    
   167   85   86 1    
   168   85   87 1    
   169   85  206 1    
   170   86  207 1    
   171   86  208 1    
   172   86  209 1    
   173   87   88 2    
   174   87   89 am   BACKBONE|DICT|INTERRES
   175   89   90 1    
   176   89  210 1    
   177   90   91 1    
   178   90   92 1    
   179   90  211 1    
   180   91  212 1    
   181   91  213 1    
   182   91  214 1    
   183   92   93 2    
   184   92   94 am   BACKBONE|DICT|INTERRES
   185   94   95 1    
   186   94  215 1    
   187   95   96 1    
   188   95   97 1    
   189   95  216 1    
   190   96  217 1    
   191   96  218 1    
   192   96  219 1    
   193   97   98 2    
   194   97   99 am   BACKBONE|DICT|INTERRES
   195   99  100 1    
   196   99  220 1    
   197  100  101 1    
   198  100  102 1    
   199  100  221 1    
   200  101  222 1    
   201  101  223 1    
   202  101  224 1    
   203  102  103 2    
   204  102  104 am   BACKBONE|DICT|INTERRES
   205  104  105 1    
   206  104  225 1    
   207  105  106 1    
   208  105  107 1    
   209  105  226 1    
   210  106  227 1    
   211  106  228 1    
   212  106  229 1    
   213  107  108 2    
   214  107  109 am   BACKBONE|DICT|INTERRES
   215  109  110 1    
   216  109  230 1    
   217  110  111 1    
   218  110  112 1    
   219  110  231 1    
   220  111  232 1    
   221  111  233 1    
   222  111  234 1    
   223  112  113 2    
   224  112  114 am   BACKBONE|DICT|INTERRES
   225  114  115 1    
   226  114  235 1    
   227  115  116 1    
   228  115  117 1    
   229  115  236 1    
   230  116  237 1    
   231  116  238 1    
   232  116  239 1    
   233  117  118 2    
   234  117  119 am   BACKBONE|DICT|INTERRES
   235  119  120 1    
   236  119  240 1    
   237  120  121 1    
   238  120  124 1    
   239  120  241 1    
   240  121  122 am   BACKBONE|DICT|INTERRES
   241  121  123 2    
   242  122  242 1    
   243  122  243 1    
   244  124  125 1    
   245  124  244 1    
   246  124  245 1    
   247  125  126 1    
   248  126  246 1    
   249  126  247 1    
@<TRIPOS>SUBSTRUCTURE
     1 UNK         1 GROUP             0       ****    0 ROOT    
