@<TRIPOS>MOLECULE
3R540
247   249    1
SMALL
USER_CHARGES


@<TRIPOS>ATOM
      1 CA         -4.8022  -13.9202  -53.0327 C.3       0 UNK        -0.1800 
      2 C          -4.2251  -13.4219  -51.7150 C.2       0 UNK         0.5000 
      3 O          -4.5079  -12.2970  -51.3039 O.2       0 UNK        -0.5000 
      4 N          -3.4223  -14.2601  -51.0501 N.am      1 UNK        -0.5000 
      5 CA         -2.7770  -13.9762  -49.7592 C.3       1 UNK         0.1400 
      6 C6         -1.5812  -14.9362  -49.5410 C.3       23 UNK        -0.0398 
      7 S7         -0.1953  -14.2431  -48.5742 S.3       23 UNK        -0.2404 
      8 C8          1.2293  -14.4086  -49.7064 C.3       23 UNK        -0.0205 
      9 C9          1.4775  -15.8447  -50.1578 C.ar      23 UNK        -0.0193 
     10 C10         1.0938  -16.2430  -51.4422 C.ar      23 UNK        -0.1150 
     11 C11         1.2739  -17.5618  -51.8641 C.ar      23 UNK        -0.0193 
     12 C12         1.8910  -18.4765  -51.0085 C.ar      23 UNK        -0.1150 
     13 C13         2.3029  -18.0908  -49.7293 C.ar      23 UNK        -0.0193 
     14 C14         2.0870  -16.7734  -49.3053 C.ar      23 UNK        -0.1150 
     15 C15         2.9993  -19.1010  -48.8258 C.3       23 UNK        -0.0205 
     16 S16         1.9669  -20.5632  -48.4750 S.3       23 UNK        -0.2404 
     17 C17         0.8988  -19.9278  -47.1437 C.3       23 UNK        -0.0398 
     18 CA         -0.3869  -20.7652  -46.9307 C.3       11 UNK         0.1400 
     19 N          -0.0963  -22.1803  -46.7181 N.am      11 UNK        -0.5000 
     20 C          -0.9278  -23.1806  -47.0274 C.2       10 UNK         0.5000 
     21 O          -2.0488  -23.0152  -47.5078 O.2       10 UNK        -0.5000 
     22 CA         -0.4219  -24.6037  -46.7242 C.3       10 UNK         0.1400 
     23 CB          0.4379  -25.1225  -47.8858 C.3       10 UNK        -0.1800 
     24 N           0.3461  -24.6738  -45.4804 N.am      10 UNK        -0.5000 
     25 C          -0.1529  -24.3984  -44.2673 C.2       9 UNK         0.5000 
     26 O          -1.3364  -24.1275  -44.0629 O.2       9 UNK        -0.5000 
     27 CA          0.8433  -24.3625  -43.0938 C.3       9 UNK         0.1400 
     28 CB          0.8943  -25.7271  -42.3925 C.3       9 UNK        -0.1800 
     29 N           2.2003  -23.9614  -43.4813 N.am      9 UNK        -0.5000 
     30 C           2.5298  -22.7728  -44.0048 C.2       8 UNK         0.5000 
     31 O           1.7113  -21.8881  -44.2653 O.2       8 UNK        -0.5000 
     32 CA          4.0158  -22.5501  -44.3335 C.3       8 UNK         0.1400 
     33 CB          4.2051  -22.2937  -45.8367 C.3       8 UNK        -0.1800 
     34 N           4.5656  -21.4215  -43.5873 N.am      8 UNK        -0.5000 
     35 C           4.7706  -21.3964  -42.2631 C.2       7 UNK         0.5000 
     36 O           4.5488  -22.3543  -41.5212 O.2       7 UNK        -0.5000 
     37 CA          5.3436  -20.0947  -41.6642 C.3       7 UNK         0.1400 
     38 CB          6.8438  -20.2551  -41.3717 C.3       7 UNK        -0.1800 
     39 N           5.1530  -18.9205  -42.5216 N.am      7 UNK        -0.5000 
     40 C           3.9832  -18.2911  -42.6867 C.2       6 UNK         0.5000 
     41 O           2.9409  -18.6357  -42.1282 O.2       6 UNK        -0.5000 
     42 CA          3.9841  -17.1078  -43.6751 C.3       6 UNK         0.1400 
     43 CB          3.8859  -17.6254  -45.1204 C.3       6 UNK        -0.1800 
     44 N           2.8821  -16.1727  -43.4503 N.am      6 UNK        -0.5000 
     45 C           2.6814  -15.4281  -42.3534 C.2       5 UNK         0.5000 
     46 O           3.4636  -15.3920  -41.4021 O.2       5 UNK        -0.5000 
     47 CA          1.4083  -14.5517  -42.3219 C.3       5 UNK         0.1400 
     48 CB          1.7765  -13.0595  -42.2739 C.3       5 UNK        -0.1800 
     49 N           0.5289  -14.7763  -43.4740 N.am      5 UNK        -0.5000 
     50 C          -0.3478  -15.7820  -43.5830 C.2       4 UNK         0.5000 
     51 O          -0.5691  -16.6012  -42.6893 O.2       4 UNK        -0.5000 
     52 CA         -1.0165  -15.9274  -44.9628 C.3       4 UNK         0.1400 
     53 CB         -0.0634  -16.6591  -45.9180 C.3       4 UNK        -0.1800 
     54 N          -2.2878  -16.6493  -44.9273 N.am      4 UNK        -0.5000 
     55 C          -3.3994  -16.1999  -44.3354 C.2       3 UNK         0.5000 
     56 O          -3.4637  -15.1473  -43.6957 O.2       3 UNK        -0.5000 
     57 CA         -4.6847  -17.0078  -44.5880 C.3       3 UNK         0.1400 
     58 CB         -5.5352  -17.1491  -43.3145 C.3       3 UNK        -0.1800 
     59 N          -5.4643  -16.2974  -45.5981 N.am      3 UNK        -0.5000 
     60 C          -5.1828  -16.3051  -46.9059 C.2       2 UNK         0.5000 
     61 O          -4.4104  -17.1115  -47.4297 O.2       2 UNK        -0.5000 
     62 CA         -5.8564  -15.2268  -47.7840 C.3       2 UNK         0.1400 
     63 CB         -6.5017  -14.0637  -46.9959 C.3       2 UNK        -0.1800 
     64 N          -4.9093  -14.7355  -48.7895 N.am      2 UNK        -0.5000 
     65 C          -3.7618  -14.0722  -48.5696 C.2       1 UNK         0.5000 
     66 O          -3.4458  -13.5852  -47.4837 O.2       1 UNK        -0.5000 
     67 C          -1.2082  -20.1951  -45.7596 C.2       11 UNK         0.5000 
     68 O          -2.1241  -19.4051  -45.9870 O.2       11 UNK        -0.5000 
     69 N          -0.8424  -20.5777  -44.5300 N.am      12 UNK        -0.5000 
     70 CA         -1.3954  -20.0215  -43.2998 C.3       12 UNK         0.1400 
     71 CB         -0.3518  -20.1437  -42.1800 C.3       12 UNK        -0.1800 
     72 C          -2.7212  -20.6708  -42.8780 C.2       12 UNK         0.5000 
     73 O          -3.7006  -19.9576  -42.6652 O.2       12 UNK        -0.5000 
     74 N          -2.7210  -22.0000  -42.7193 N.am      13 UNK        -0.5000 
     75 CA         -3.8187  -22.7470  -42.1060 C.3       13 UNK         0.1400 
     76 CB         -3.2490  -23.8951  -41.2561 C.3       13 UNK        -0.1800 
     77 C          -4.8036  -23.2771  -43.1549 C.2       13 UNK         0.5000 
     78 O          -6.0122  -23.1123  -42.9850 O.2       13 UNK        -0.5000 
     79 N          -4.2784  -23.8968  -44.2216 N.am      14 UNK        -0.5000 
     80 CA         -5.0905  -24.4403  -45.3158 C.3       14 UNK         0.1400 
     81 CB         -4.2859  -25.4989  -46.0824 C.3       14 UNK        -0.1800 
     82 C          -5.5998  -23.3472  -46.2745 C.2       14 UNK         0.5000 
     83 O          -6.6132  -23.5564  -46.9420 O.2       14 UNK        -0.5000 
     84 N          -4.8895  -22.2098  -46.3139 N.am      15 UNK        -0.5000 
     85 CA         -5.1618  -21.0158  -47.1171 C.3       15 UNK         0.1400 
     86 CB         -6.4434  -20.3072  -46.6332 C.3       15 UNK        -0.1800 
     87 C          -5.1481  -21.2792  -48.6372 C.2       15 UNK         0.5000 
     88 O          -5.8948  -20.6429  -49.3802 O.2       15 UNK        -0.5000 
     89 N          -4.2524  -22.1661  -49.0983 N.am      16 UNK        -0.5000 
     90 CA         -4.0007  -22.4295  -50.5229 C.3       16 UNK         0.1400 
     91 CB         -3.0648  -23.6396  -50.6546 C.3       16 UNK        -0.1800 
     92 C          -3.4078  -21.2037  -51.2479 C.2       16 UNK         0.5000 
     93 O          -3.5754  -21.0426  -52.4573 O.2       16 UNK        -0.5000 
     94 N          -2.7736  -20.3219  -50.4687 N.am      17 UNK        -0.5000 
     95 CA         -2.2811  -19.0146  -50.8778 C.3       17 UNK         0.1400 
     96 CB         -1.3847  -18.4860  -49.7577 C.3       17 UNK        -0.1800 
     97 C          -3.3962  -18.0077  -51.2329 C.2       17 UNK         0.5000 
     98 O          -3.1117  -17.0263  -51.9200 O.2       17 UNK        -0.5000 
     99 N          -4.6448  -18.2667  -50.8116 N.am      18 UNK        -0.5000 
    100 CA        -5.8314  -17.5153  -51.2329 C.3       18 UNK         0.1400 
    101 CB        -6.9992  -17.8195  -50.2820 C.3       18 UNK        -0.1800 
    102 C         -6.2356  -17.8447  -52.6818 C.2       18 UNK         0.5000 
    103 O         -6.7433  -16.9725  -53.3853 O.2       18 UNK        -0.5000 
    104 N         -5.9763  -19.0903  -53.1033 N.am      19 UNK        -0.5000 
    105 CA        -6.1927  -19.5877  -54.4633 C.3       19 UNK         0.1400 
    106 CB        -6.5120  -21.0904  -54.3889 C.3       19 UNK        -0.1800 
    107 C         -4.9832  -19.3278  -55.3854 C.2       19 UNK         0.5000 
    108 O         -5.0380  -19.6864  -56.5622 O.2       19 UNK        -0.5000 
    109 N         -3.9184  -18.7227  -54.8357 N.am      20 UNK        -0.5000 
    110 CA        -2.6401  -18.4036  -55.4737 C.3       20 UNK         0.1400 
    111 CB        -2.8215  -17.3507  -56.5861 C.3       20 UNK        -0.1800 
    112 C         -1.8740  -19.6597  -55.9378 C.2       20 UNK         0.5000 
    113 O         -1.2679  -19.6558  -57.0114 O.2       20 UNK        -0.5000 
    114 N         -1.8880  -20.7109  -55.1012 N.am      21 UNK        -0.5000 
    115 CA        -1.2485  -22.0111  -55.3521 C.3       21 UNK         0.1400 
    116 CB        -1.5935  -22.9645  -54.1985 C.3       21 UNK        -0.1800 
    117 C          0.2807  -21.9622  -55.5693 C.2       21 UNK         0.5000 
    118 O          0.8443  -22.9092  -56.1191 O.2       21 UNK        -0.5000 
    119 N          0.9168  -20.8608  -55.1538 N.am      22 UNK        -0.5000 
    120 CA         2.3168  -20.5191  -55.4428 C.3       22 UNK         0.1400 
    121 C          2.6055  -20.1516  -56.9312 C.2       22 UNK         0.5000 
    122 N          1.6044  -19.8903  -57.7654 N.am      22 UNK        -0.7600 
    123 O          3.7635  -20.1167  -57.3386 O.2       22 UNK        -0.5000 
    124 C124        2.8462  -19.4365  -54.4637 C.3       23 UNK        -0.0398 
    125 S125        1.9475  -17.8434  -54.5528 S.3       23 UNK        -0.2404 
    126 C126        0.7304  -18.0063  -53.2115 C.3       23 UNK        -0.0205 
    127 H127       -4.5493  -13.2314  -53.8387 H         1 UNK         0.0600 
    128 H128       -5.8882  -13.9865  -52.9664 H         1 UNK         0.0600 
    129 H129       -4.4185  -14.9062  -53.2972 H         1 UNK         0.0600 
    130 H130       -3.2330  -15.1784  -51.4455 H         1 UNK         0.3000 
    131 H131       -2.4017  -12.9512  -49.7959 H         1 UNK         0.0600 
    132 H132       -1.9086  -15.8501  -49.0448 H         1 UNK         0.0800 
    133 H133       -1.1947  -15.2465  -50.5092 H         1 UNK         0.0800 
    134 H134        2.1212  -14.0327  -49.2034 H         1 UNK         0.0800 
    135 H135        1.0729  -13.7582  -50.5684 H         1 UNK         0.0800 
    136 H136        0.6177  -15.5336  -52.1046 H         1 UNK         0.1150 
    137 H137        2.0308  -19.5005  -51.3228 H         1 UNK         0.1150 
    138 H138        2.3931  -16.4669  -48.3151 H         1 UNK         0.1150 
    139 H139        3.3120  -18.6410  -47.8877 H         1 UNK         0.0800 
    140 H140        3.9127  -19.4332  -49.3208 H         1 UNK         0.0800 
    141 H141        0.6348  -18.9021  -47.3982 H         1 UNK         0.0800 
    142 H142        1.4922  -19.8846  -46.2288 H         1 UNK         0.0800 
    143 H143       -0.9986  -20.6742  -47.8292 H         1 UNK         0.0600 
    144 H144        0.7882  -22.3930  -46.2788 H         1 UNK         0.3000 
    145 H145       -1.2842  -25.2619  -46.6209 H         1 UNK         0.0600 
    146 H146       -0.1204  -25.1016  -48.8228 H         1 UNK         0.0600 
    147 H147        0.7488  -26.1537  -47.7170 H         1 UNK         0.0600 
    148 H148        1.3357  -24.5186  -48.0253 H         1 UNK         0.0600 
    149 H149        1.3275  -24.8947  -45.5584 H         1 UNK         0.3000 
    150 H150        0.4734  -23.6266  -42.3772 H         1 UNK         0.0600 
    151 H151        1.5242  -25.6904  -41.5034 H         1 UNK         0.0600 
    152 H152       -0.1007  -26.0382  -42.0709 H         1 UNK         0.0600 
    153 H153        1.2851  -26.5043  -43.0505 H         1 UNK         0.0600 
    154 H154        2.9339  -24.6290  -43.2911 H         1 UNK         0.3000 
    155 H155        4.5798  -23.4465  -44.0671 H         1 UNK         0.0600 
    156 H156        3.7289  -21.3635  -46.1482 H         1 UNK         0.0600 
    157 H157        3.7738  -23.0993  -46.4323 H         1 UNK         0.0600 
    158 H158        5.2621  -22.2290  -46.0952 H         1 UNK         0.0600 
    159 H159        4.7515  -20.5812  -44.1121 H         1 UNK         0.3000 
    160 H160        4.8304  -19.9188  -40.7162 H         1 UNK         0.0600 
    161 H161        7.4162  -20.4259  -42.2844 H         1 UNK         0.0600 
    162 H162        7.0248  -21.1017  -40.7079 H         1 UNK         0.0600 
    163 H163        7.2475  -19.3689  -40.8817 H         1 UNK         0.0600 
    164 H164        5.9694  -18.5847  -43.0126 H         1 UNK         0.3000 
    165 H165        4.9199  -16.5579  -43.5565 H         1 UNK         0.0600 
    166 H166        4.7147  -18.2925  -45.3602 H         1 UNK         0.0600 
    167 H167        2.9612  -18.1797  -45.2838 H         1 UNK         0.0600 
    168 H168        3.9160  -16.8051  -45.8381 H         1 UNK         0.0600 
    169 H169        2.1704  -16.1455  -44.1621 H         1 UNK         0.3000 
    170 H170        0.8667  -14.7980  -41.4062 H         1 UNK         0.0600 
    171 H171        2.3352  -12.7539  -43.1594 H         1 UNK         0.0600 
    172 H172        2.3937  -12.8352  -41.4030 H         1 UNK         0.0600 
    173 H173        0.8853  -12.4354  -42.2062 H         1 UNK         0.0600 
    174 H174        0.6534  -14.1474  -44.2550 H         1 UNK         0.3000 
    175 H175       -1.2171  -14.9316  -45.3647 H         1 UNK         0.0600 
    176 H176       -0.5405  -16.8605  -46.8776 H         1 UNK         0.0600 
    177 H177        0.8276  -16.0640  -46.1204 H         1 UNK         0.0600 
    178 H178        0.2655  -17.6063  -45.4912 H         1 UNK         0.0600 
    179 H179       -2.3254  -17.5292  -45.4345 H         1 UNK         0.3000 
    180 H180       -4.4259  -18.0078  -44.9447 H         1 UNK         0.0600 
    181 H181       -5.8926  -16.1842  -42.9530 H         1 UNK         0.0600 
    182 H182       -4.9582  -17.6043  -42.5093 H         1 UNK         0.0600 
    183 H183       -6.4034  -17.7839  -43.4922 H         1 UNK         0.0600 
    184 H184       -6.0868  -15.5834  -45.2496 H         1 UNK         0.3000 
    185 H185       -6.6569  -15.7225  -48.3307 H         1 UNK         0.0600 
    186 H186       -7.3441  -14.4130  -46.3980 H         1 UNK         0.0600 
    187 H187       -5.7961  -13.5774  -46.3215 H         1 UNK         0.0600 
    188 H188       -6.8884  -13.3022  -47.6733 H         1 UNK         0.0600 
    189 H189       -5.0463  -15.0936  -49.7216 H         1 UNK         0.3000 
    190 H190       -0.0348  -21.1870  -44.4287 H         1 UNK         0.3000 
    191 H191       -1.5864  -18.9582  -43.4512 H         1 UNK         0.0600 
    192 H192        0.5503  -19.5905  -42.4363 H         1 UNK         0.0600 
    193 H193       -0.7294  -19.7302  -41.2441 H         1 UNK         0.0600 
    194 H194       -0.0656  -21.1794  -41.9958 H         1 UNK         0.0600 
    195 H195       -1.9214  -22.5447  -43.0200 H         1 UNK         0.3000 
    196 H196       -4.3738  -22.0913  -41.4312 H         1 UNK         0.0600 
    197 H197       -2.6963  -24.6177  -41.8565 H         1 UNK         0.0600 
    198 H198       -4.0492  -24.4370  -40.7505 H         1 UNK         0.0600 
    199 H199       -2.5764  -23.5173  -40.4859 H         1 UNK         0.0600 
    200 H200       -3.2701  -24.0114  -44.2780 H         1 UNK         0.3000 
    201 H201       -5.9625  -24.9363  -44.8836 H         1 UNK         0.0600 
    202 H202       -3.5008  -25.0447  -46.6821 H         1 UNK         0.0600 
    203 H203       -4.9311  -26.0513  -46.7664 H         1 UNK         0.0600 
    204 H204       -3.8274  -26.2226  -45.4082 H         1 UNK         0.0600 
    205 H205       -4.0580  -22.1712  -45.7426 H         1 UNK         0.3000 
    206 H206       -4.3344  -20.3317  -46.9338 H         1 UNK         0.0600 
    207 H207       -7.3356  -20.9006  -46.8342 H         1 UNK         0.0600 
    208 H208       -6.4025  -20.1103  -45.5617 H         1 UNK         0.0600 
    209 H209       -6.5694  -19.3452  -47.1314 H         1 UNK         0.0600 
    210 H210       -3.6231  -22.6167  -48.4367 H         1 UNK         0.3000 
    211 H211       -4.9526  -22.6714  -50.9996 H         1 UNK         0.0600 
    212 H212       -3.4666  -24.5081  -50.1325 H         1 UNK         0.0600 
    213 H213       -2.0753  -23.4313  -50.2456 H         1 UNK         0.0600 
    214 H214       -2.9360  -23.9208  -51.7000 H         1 UNK         0.0600 
    215 H215       -2.6919  -20.5474  -49.4892 H         1 UNK         0.3000 
    216 H216       -1.6710  -19.1510  -51.7719 H         1 UNK         0.0600 
    217 H217       -1.9366  -18.3149  -48.8319 H         1 UNK         0.0600 
    218 H218       -0.5750  -19.1834  -49.5534 H         1 UNK         0.0600 
    219 H219       -0.9137  -17.5538  -50.0511 H         1 UNK         0.0600 
    220 H220       -4.8205  -19.0860  -50.2409 H         1 UNK         0.3000 
    221 H221       -5.6061  -16.4495  -51.1731 H         1 UNK         0.0600 
    222 H222       -7.4381  -18.7982  -50.4798 H         1 UNK         0.0600 
    223 H223       -6.6821  -17.8139  -49.2403 H         1 UNK         0.0600 
    224 H224       -7.7934  -17.0808  -50.3942 H         1 UNK         0.0600 
    225 H225       -5.5310  -19.7358  -52.4653 H         1 UNK         0.3000 
    226 H226       -7.0534  -19.0789  -54.9021 H         1 UNK         0.0600 
    227 H227       -7.3709  -21.2800  -53.7450 H         1 UNK         0.0600 
    228 H228       -6.7535  -21.4888  -55.3750 H         1 UNK         0.0600 
    229 H229       -5.6696  -21.6649  -54.0025 H         1 UNK         0.0600 
    230 H230       -3.9924  -18.4707  -53.8611 H         1 UNK         0.3000 
    231 H231       -2.0284  -17.9467  -54.6966 H         1 UNK         0.0600 
    232 H232       -3.3785  -17.7473  -57.4353 H         1 UNK         0.0600 
    233 H233       -1.8557  -17.0093  -56.9606 H         1 UNK         0.0600 
    234 H234       -3.3528  -16.4740  -56.2154 H         1 UNK         0.0600 
    235 H235       -2.4435  -20.6507  -54.2548 H         1 UNK         0.3000 
    236 H236       -1.6850  -22.4145  -56.2679 H         1 UNK         0.0600 
    237 H237       -1.2197  -22.5902  -53.2447 H         1 UNK         0.0600 
    238 H238       -2.6717  -23.0990  -54.1096 H         1 UNK         0.0600 
    239 H239       -1.1578  -23.9516  -54.3582 H         1 UNK         0.0600 
    240 H240        0.3626  -20.1260  -54.7457 H         1 UNK         0.3000 
    241 H241        2.9015  -21.4214  -55.2540 H         1 UNK         0.0600 
    242 H242        1.8095  -19.6603  -58.7246 H         1 UNK         0.3800 
    243 H243        0.6400  -19.8884  -57.4477 H         1 UNK         0.3800 
    244 H244        3.9021  -19.2392  -54.6567 H         1 UNK         0.0800 
    245 H245        2.8110  -19.8187  -53.4446 H         1 UNK         0.0800 
    246 H246        0.3683  -19.0320  -53.1461 H         1 UNK         0.0800 
    247 H247       -0.1373  -17.3951  -53.4615 H         1 UNK         0.0800 
@<TRIPOS>BOND
     1    1    2 1    
     2    1  127 1    
     3    1  128 1    
     4    1  129 1    
     5    2    3 2    
     6    2    4 am   BACKBONE|DICT|INTERRES
     7    4    5 1    
     8    4  130 1    
     9    5    6 1    
    10    5   65 1    
    11    5  131 1    
    12    6    7 1    
    13    6  132 1    
    14    6  133 1    
    15    7    8 1    
    16    8    9 1    
    17    8  134 1    
    18    8  135 1    
    19    9   10 ar   
    20    9   14 ar   
    21   10   11 ar   
    22   10  136 1    
    23   11   12 ar   
    24   11  126 1    
    25   12   13 ar   
    26   12  137 1    
    27   13   14 ar   
    28   13   15 1    
    29   14  138 1    
    30   15   16 1    
    31   15  139 1    
    32   15  140 1    
    33   16   17 1    
    34   17   18 1    
    35   17  141 1    
    36   17  142 1    
    37   18   19 1    
    38   18   67 1    
    39   18  143 1    
    40   19   20 am   BACKBONE|DICT|INTERRES
    41   19  144 1    
    42   20   21 2    
    43   20   22 1    
    44   22   23 1    
    45   22   24 1    
    46   22  145 1    
    47   23  146 1    
    48   23  147 1    
    49   23  148 1    
    50   24   25 am   BACKBONE|DICT|INTERRES
    51   24  149 1    
    52   25   26 2    
    53   25   27 1    
    54   27   28 1    
    55   27   29 1    
    56   27  150 1    
    57   28  151 1    
    58   28  152 1    
    59   28  153 1    
    60   29   30 am   BACKBONE|DICT|INTERRES
    61   29  154 1    
    62   30   31 2    
    63   30   32 1    
    64   32   33 1    
    65   32   34 1    
    66   32  155 1    
    67   33  156 1    
    68   33  157 1    
    69   33  158 1    
    70   34   35 am   BACKBONE|DICT|INTERRES
    71   34  159 1    
    72   35   36 2    
    73   35   37 1    
    74   37   38 1    
    75   37   39 1    
    76   37  160 1    
    77   38  161 1    
    78   38  162 1    
    79   38  163 1    
    80   39   40 am   BACKBONE|DICT|INTERRES
    81   39  164 1    
    82   40   41 2    
    83   40   42 1    
    84   42   43 1    
    85   42   44 1    
    86   42  165 1    
    87   43  166 1    
    88   43  167 1    
    89   43  168 1    
    90   44   45 am   BACKBONE|DICT|INTERRES
    91   44  169 1    
    92   45   46 2    
    93   45   47 1    
    94   47   48 1    
    95   47   49 1    
    96   47  170 1    
    97   48  171 1    
    98   48  172 1    
    99   48  173 1    
   100   49   50 am   BACKBONE|DICT|INTERRES
   101   49  174 1    
   102   50   51 2    
   103   50   52 1    
   104   52   53 1    
   105   52   54 1    
   106   52  175 1    
   107   53  176 1    
   108   53  177 1    
   109   53  178 1    
   110   54   55 am   BACKBONE|DICT|INTERRES
   111   54  179 1    
   112   55   56 2    
   113   55   57 1    
   114   57   58 1    
   115   57   59 1    
   116   57  180 1    
   117   58  181 1    
   118   58  182 1    
   119   58  183 1    
   120   59   60 am   BACKBONE|DICT|INTERRES
   121   59  184 1    
   122   60   61 2    
   123   60   62 1    
   124   62   63 1    
   125   62   64 1    
   126   62  185 1    
   127   63  186 1    
   128   63  187 1    
   129   63  188 1    
   130   64   65 am   BACKBONE|DICT|INTERRES
   131   64  189 1    
   132   65   66 2    
   133   67   68 2    
   134   67   69 am   BACKBONE|DICT|INTERRES
   135   69   70 1    
   136   69  190 1    
   137   70   71 1    
   138   70   72 1    
   139   70  191 1    
   140   71  192 1    
   141   71  193 1    
   142   71  194 1    
   143   72   73 2    
   144   72   74 am   BACKBONE|DICT|INTERRES
   145   74   75 1    
   146   74  195 1    
   147   75   76 1    
   148   75   77 1    
   149   75  196 1    
   150   76  197 1    
   151   76  198 1    
   152   76  199 1    
   153   77   78 2    
   154   77   79 am   BACKBONE|DICT|INTERRES
   155   79   80 1    
   156   79  200 1    
   157   80   81 1    
   158   80   82 1    
   159   80  201 1    
   160   81  202 1    
   161   81  203 1    
   162   81  204 1    
   163   82   83 2    
   164   82   84 am   BACKBONE|DICT|INTERRES
   165   84   85 1    
   166   84  205 1    
   167   85   86 1    
   168   85   87 1    
   169   85  206 1    
   170   86  207 1    
   171   86  208 1    
   172   86  209 1    
   173   87   88 2    
   174   87   89 am   BACKBONE|DICT|INTERRES
   175   89   90 1    
   176   89  210 1    
   177   90   91 1    
   178   90   92 1    
   179   90  211 1    
   180   91  212 1    
   181   91  213 1    
   182   91  214 1    
   183   92   93 2    
   184   92   94 am   BACKBONE|DICT|INTERRES
   185   94   95 1    
   186   94  215 1    
   187   95   96 1    
   188   95   97 1    
   189   95  216 1    
   190   96  217 1    
   191   96  218 1    
   192   96  219 1    
   193   97   98 2    
   194   97   99 am   BACKBONE|DICT|INTERRES
   195   99  100 1    
   196   99  220 1    
   197  100  101 1    
   198  100  102 1    
   199  100  221 1    
   200  101  222 1    
   201  101  223 1    
   202  101  224 1    
   203  102  103 2    
   204  102  104 am   BACKBONE|DICT|INTERRES
   205  104  105 1    
   206  104  225 1    
   207  105  106 1    
   208  105  107 1    
   209  105  226 1    
   210  106  227 1    
   211  106  228 1    
   212  106  229 1    
   213  107  108 2    
   214  107  109 am   BACKBONE|DICT|INTERRES
   215  109  110 1    
   216  109  230 1    
   217  110  111 1    
   218  110  112 1    
   219  110  231 1    
   220  111  232 1    
   221  111  233 1    
   222  111  234 1    
   223  112  113 2    
   224  112  114 am   BACKBONE|DICT|INTERRES
   225  114  115 1    
   226  114  235 1    
   227  115  116 1    
   228  115  117 1    
   229  115  236 1    
   230  116  237 1    
   231  116  238 1    
   232  116  239 1    
   233  117  118 2    
   234  117  119 am   BACKBONE|DICT|INTERRES
   235  119  120 1    
   236  119  240 1    
   237  120  121 1    
   238  120  124 1    
   239  120  241 1    
   240  121  122 am   BACKBONE|DICT|INTERRES
   241  121  123 2    
   242  122  242 1    
   243  122  243 1    
   244  124  125 1    
   245  124  244 1    
   246  124  245 1    
   247  125  126 1    
   248  126  246 1    
   249  126  247 1    
@<TRIPOS>SUBSTRUCTURE
     1 UNK         1 GROUP             0       ****    0 ROOT    
