@<TRIPOS>MOLECULE
3R540
247   249    1
SMALL
USER_CHARGES


@<TRIPOS>ATOM
      1 CA          5.7307  -12.2836  -50.1910 C.3       0 UNK        -0.1800 
      2 C           4.5904  -12.7614  -49.3039 C.2       0 UNK         0.5000 
      3 O           4.5718  -12.4603  -48.1099 O.2       0 UNK        -0.5000 
      4 N           3.6277  -13.4914  -49.8804 N.am      1 UNK        -0.5000 
      5 CA          2.4598  -14.0740  -49.2040 C.3       1 UNK         0.1400 
      6 C6          1.9230  -15.3181  -49.9618 C.3       23 UNK        -0.0398 
      7 S7          3.1802  -16.6366  -50.1052 S.3       23 UNK        -0.2404 
      8 C8          2.4555  -17.9802  -49.1137 C.3       23 UNK        -0.0205 
      9 C9          1.4207  -18.7710  -49.8992 C.ar      23 UNK        -0.0193 
     10 C10         1.8282  -19.7941  -50.7604 C.ar      23 UNK        -0.1150 
     11 C11         0.8874  -20.5307  -51.4858 C.ar      23 UNK        -0.0193 
     12 C12        -0.4718  -20.2386  -51.3404 C.ar      23 UNK        -0.1150 
     13 C13        -0.8930  -19.2222  -50.4791 C.ar      23 UNK        -0.0193 
     14 C14         0.0585  -18.4923  -49.7601 C.ar      23 UNK        -0.1150 
     15 C15        -2.3765  -18.9169  -50.3209 C.3       23 UNK        -0.0205 
     16 S16        -3.2478  -20.1898  -49.3522 S.3       23 UNK        -0.2404 
     17 C17        -2.2944  -20.1991  -47.7970 C.3       23 UNK        -0.0398 
     18 CA         -1.3249  -21.4057  -47.7285 C.3       11 UNK         0.1400 
     19 N          -0.1443  -21.1310  -46.9060 N.am      11 UNK        -0.5000 
     20 C           0.9164  -21.9427  -46.7920 C.2       10 UNK         0.5000 
     21 O           1.0307  -23.0050  -47.3996 O.2       10 UNK        -0.5000 
     22 CA          2.0036  -21.5415  -45.7801 C.3       10 UNK         0.1400 
     23 CB          2.9533  -20.4920  -46.3736 C.3       10 UNK        -0.1800 
     24 N           1.4379  -21.0550  -44.5216 N.am      10 UNK        -0.5000 
     25 C           0.6958  -21.8029  -43.6919 C.2       9 UNK         0.5000 
     26 O           0.4795  -23.0029  -43.8658 O.2       9 UNK        -0.5000 
     27 CA          0.0423  -21.0800  -42.4992 C.3       9 UNK         0.1400 
     28 CB          1.0420  -20.9091  -41.3462 C.3       9 UNK        -0.1800 
     29 N          -0.5169  -19.7774  -42.8670 N.am      9 UNK        -0.5000 
     30 C          -1.5217  -19.6015  -43.7382 C.2       8 UNK         0.5000 
     31 O          -2.1224  -20.5260  -44.2850 O.2       8 UNK        -0.5000 
     32 CA         -1.8773  -18.1505  -44.1082 C.3       8 UNK         0.1400 
     33 CB         -2.7574  -17.5031  -43.0292 C.3       8 UNK        -0.1800 
     34 N          -0.6896  -17.3281  -44.3316 N.am      8 UNK        -0.5000 
     35 C           0.2090  -17.5327  -45.3035 C.2       7 UNK         0.5000 
     36 O           0.0999  -18.4030  -46.1637 O.2       7 UNK        -0.5000 
     37 CA          1.4647  -16.6479  -45.2837 C.3       7 UNK         0.1400 
     38 CB          1.1845  -15.2911  -45.9450 C.3       7 UNK        -0.1800 
     39 N           1.9718  -16.4549  -43.9256 N.am      7 UNK        -0.5000 
     40 C           2.5432  -17.4218  -43.1926 C.2       6 UNK         0.5000 
     41 O           2.7353  -18.5654  -43.6040 O.2       6 UNK        -0.5000 
     42 CA          2.9313  -17.0604  -41.7469 C.3       6 UNK         0.1400 
     43 CB          4.3256  -16.4178  -41.7073 C.3       6 UNK        -0.1800 
     44 N           1.9658  -16.1607  -41.1145 N.am      6 UNK        -0.5000 
     45 C           0.7096  -16.5019  -40.7931 C.2       5 UNK         0.5000 
     46 O           0.2467  -17.6317  -40.9501 O.2       5 UNK        -0.5000 
     47 CA         -0.1961  -15.3683  -40.2705 C.3       5 UNK         0.1400 
     48 CB         -0.0050  -15.1740  -38.7591 C.3       5 UNK        -0.1800 
     49 N           0.0250  -14.0914  -40.9614 N.am      5 UNK        -0.5000 
     50 C          -0.1527  -13.9111  -42.2769 C.2       4 UNK         0.5000 
     51 O          -0.5339  -14.8080  -43.0315 O.2       4 UNK        -0.5000 
     52 CA          0.2263  -12.5320  -42.8512 C.3       4 UNK         0.1400 
     53 CB          1.7553  -12.3753  -42.8979 C.3       4 UNK        -0.1800 
     54 N          -0.2914  -12.3512  -44.2076 N.am      4 UNK        -0.5000 
     55 C          -1.5794  -12.1721  -44.5261 C.2       3 UNK         0.5000 
     56 O          -2.4688  -12.0256  -43.6851 O.2       3 UNK        -0.5000 
     57 CA         -1.9366  -12.1828  -46.0313 C.3       3 UNK         0.1400 
     58 CB         -3.1460  -11.2805  -46.3542 C.3       3 UNK        -0.1800 
     59 N          -0.8202  -11.8865  -46.9428 N.am      3 UNK        -0.5000 
     60 C          -0.0953  -10.7608  -47.0117 C.2       2 UNK         0.5000 
     61 O          -0.2229   -9.8224  -46.2235 O.2       2 UNK        -0.5000 
     62 CA          0.9398  -10.6698  -48.1567 C.3       2 UNK         0.1400 
     63 CB          1.9044   -9.4815  -47.9881 C.3       2 UNK        -0.1800 
     64 N           1.7395  -11.8841  -48.3428 N.am      2 UNK        -0.5000 
     65 C           1.3603  -13.0099  -48.9597 C.2       1 UNK         0.5000 
     66 O           0.2041  -13.2081  -49.3359 O.2       1 UNK        -0.5000 
     67 C          -2.0619  -22.6824  -47.2800 C.2       11 UNK         0.5000 
     68 O          -2.4382  -23.4955  -48.1246 O.2       11 UNK        -0.5000 
     69 N          -2.2360  -22.8536  -45.9622 N.am      12 UNK        -0.5000 
     70 CA         -2.8337  -24.0395  -45.3470 C.3       12 UNK         0.1400 
     71 CB         -3.0034  -23.8116  -43.8382 C.3       12 UNK        -0.1800 
     72 C          -2.0409  -25.3280  -45.6294 C.2       12 UNK         0.5000 
     73 O          -2.6493  -26.3712  -45.8669 O.2       12 UNK        -0.5000 
     74 N          -0.7065  -25.2261  -45.6273 N.am      13 UNK        -0.5000 
     75 CA          0.2005  -26.3246  -45.9443 C.3       13 UNK         0.1400 
     76 CB          1.6013  -25.9982  -45.4016 C.3       13 UNK        -0.1800 
     77 C           0.2526  -26.6376  -47.4517 C.2       13 UNK         0.5000 
     78 O           0.1048  -27.7988  -47.8348 O.2       13 UNK        -0.5000 
     79 N           0.4974  -25.6099  -48.2748 N.am      14 UNK        -0.5000 
     80 CA          0.8240  -25.7598  -49.6929 C.3       14 UNK         0.1400 
     81 CB          1.6855  -24.5670  -50.1387 C.3       14 UNK        -0.1800 
     82 C          -0.4016  -25.8857  -50.6105 C.2       14 UNK         0.5000 
     83 O          -0.3344  -26.6238  -51.5943 O.2       14 UNK        -0.5000 
     84 N          -1.4726  -25.1416  -50.3092 N.am      15 UNK        -0.5000 
     85 CA         -2.6162  -24.9431  -51.2049 C.3       15 UNK         0.1400 
     86 CB         -2.6365  -23.4651  -51.6262 C.3       15 UNK        -0.1800 
     87 C          -3.9560  -25.3506  -50.5692 C.2       15 UNK         0.5000 
     88 O          -4.9969  -25.1522  -51.1961 O.2       15 UNK        -0.5000 
     89 N          -3.9175  -25.8905  -49.3415 N.am      16 UNK        -0.5000 
     90 CA         -5.0663  -26.2607  -48.5065 C.3       16 UNK         0.1400 
     91 CB         -5.8470  -27.4370  -49.1303 C.3       16 UNK        -0.1800 
     92 C          -5.9642  -25.0543  -48.1497 C.2       16 UNK         0.5000 
     93 O          -7.1838  -25.2017  -48.0552 O.2       16 UNK        -0.5000 
     94 N          -5.3302  -23.8880  -47.9493 N.am      17 UNK        -0.5000 
     95 CA         -5.9275  -22.5916  -47.6124 C.3       17 UNK         0.1400 
     96 CB         -6.5962  -22.6268  -46.2218 C.3       17 UNK        -0.1800 
     97 C          -6.8554  -22.0747  -48.7294 C.2       17 UNK         0.5000 
     98 O          -8.0289  -21.7816  -48.4895 O.2       17 UNK        -0.5000 
     99 N          -6.2978  -21.9912  -49.9434 N.am      18 UNK        -0.5000 
    100 CA        -6.9389  -21.4409  -51.1365 C.3       18 UNK         0.1400 
    101 CB        -6.0160  -21.6910  -52.3392 C.3       18 UNK        -0.1800 
    102 C         -7.2469  -19.9355  -51.0073 C.2       18 UNK         0.5000 
    103 O         -6.5996  -19.2279  -50.2302 O.2       18 UNK        -0.5000 
    104 N         -8.2059  -19.4570  -51.8098 N.am      19 UNK        -0.5000 
    105 CA        -8.6118  -18.0517  -51.9073 C.3       19 UNK         0.1400 
    106 CB       -10.0334  -17.9901  -52.4956 C.3       19 UNK        -0.1800 
    107 C         -7.5922  -17.2161  -52.7142 C.2       19 UNK         0.5000 
    108 O         -7.9290  -16.6857  -53.7747 O.2       19 UNK        -0.5000 
    109 N         -6.3637  -17.1440  -52.1834 N.am      20 UNK        -0.5000 
    110 CA        -5.1322  -16.5830  -52.7486 C.3       20 UNK         0.1400 
    111 CB        -5.3109  -15.1147  -53.1841 C.3       20 UNK        -0.1800 
    112 C         -4.5427  -17.4473  -53.8823 C.2       20 UNK         0.5000 
    113 O         -5.2731  -18.1496  -54.5852 O.2       20 UNK        -0.5000 
    114 N         -3.2115  -17.3604  -54.0259 N.am      21 UNK        -0.5000 
    115 CA        -2.3427  -18.1292  -54.9285 C.3       21 UNK         0.1400 
    116 CB        -2.7284  -17.9005  -56.4052 C.3       21 UNK        -0.1800 
    117 C         -2.2661  -19.6324  -54.5821 C.2       21 UNK         0.5000 
    118 O         -3.0396  -20.1375  -53.7669 O.2       21 UNK        -0.5000 
    119 N         -1.2967  -20.3214  -55.1942 N.am      22 UNK        -0.5000 
    120 CA        -1.0155  -21.7476  -54.9508 C.3       22 UNK         0.1400 
    121 C         -1.8954  -22.7325  -55.7754 C.2       22 UNK         0.5000 
    122 N         -2.7630  -22.2684  -56.6662 N.am      22 UNK        -0.7600 
    123 O         -1.7952  -23.9431  -55.5978 O.2       22 UNK        -0.5000 
    124 C124        0.4928  -22.0830  -55.0934 C.3       23 UNK        -0.0398 
    125 S125        1.5839  -20.9936  -54.1129 S.3       23 UNK        -0.2404 
    126 C126        1.3432  -21.6355  -52.4263 C.3       23 UNK        -0.0205 
    127 H127        5.6131  -12.6231  -51.2204 H         1 UNK         0.0600 
    128 H128        6.6815  -12.6612  -49.8149 H         1 UNK         0.0600 
    129 H129        5.7721  -11.1944  -50.1942 H         1 UNK         0.0600 
    130 H130        3.6937  -13.6910  -50.8684 H         1 UNK         0.3000 
    131 H131        2.7835  -14.4132  -48.2188 H         1 UNK         0.0600 
    132 H132        1.5997  -15.0442  -50.9675 H         1 UNK         0.0800 
    133 H133        1.0404  -15.7194  -49.4630 H         1 UNK         0.0800 
    134 H134        3.2576  -18.6489  -48.7990 H         1 UNK         0.0800 
    135 H135        2.0194  -17.5775  -48.1998 H         1 UNK         0.0800 
    136 H136        2.8812  -20.0111  -50.8722 H         1 UNK         0.1150 
    137 H137       -1.2091  -20.8018  -51.8924 H         1 UNK         0.1150 
    138 H138       -0.2620  -17.7124  -49.0841 H         1 UNK         0.1150 
    139 H139       -2.5235  -17.9447  -49.8483 H         1 UNK         0.0800 
    140 H140       -2.8392  -18.8520  -51.3063 H         1 UNK         0.0800 
    141 H141       -2.9850  -20.1853  -46.9519 H         1 UNK         0.0800 
    142 H142       -1.7470  -19.2604  -47.7304 H         1 UNK         0.0800 
    143 H143       -0.9411  -21.5977  -48.7328 H         1 UNK         0.0600 
    144 H144       -0.1272  -20.2380  -46.4198 H         1 UNK         0.3000 
    145 H145        2.5901  -22.4351  -45.5564 H         1 UNK         0.0600 
    146 H146        3.7783  -20.2786  -45.6939 H         1 UNK         0.0600 
    147 H147        3.3846  -20.8420  -47.3123 H         1 UNK         0.0600 
    148 H148        2.4391  -19.5544  -46.5772 H         1 UNK         0.0600 
    149 H149        1.6228  -20.0865  -44.2814 H         1 UNK         0.3000 
    150 H150       -0.7797  -21.7049  -42.1442 H         1 UNK         0.0600 
    151 H151        1.4491  -21.8725  -41.0369 H         1 UNK         0.0600 
    152 H152        0.5644  -20.4623  -40.4740 H         1 UNK         0.0600 
    153 H153        1.8809  -20.2737  -41.6297 H         1 UNK         0.0600 
    154 H154       -0.1104  -18.9630  -42.4178 H         1 UNK         0.3000 
    155 H155       -2.4452  -18.1748  -45.0406 H         1 UNK         0.0600 
    156 H156       -3.0515  -16.4930  -43.3152 H         1 UNK         0.0600 
    157 H157       -2.2419  -17.4409  -42.0708 H         1 UNK         0.0600 
    158 H158       -3.6711  -18.0783  -42.8745 H         1 UNK         0.0600 
    159 H159       -0.5544  -16.5381  -43.7049 H         1 UNK         0.3000 
    160 H160        2.2423  -17.1513  -45.8609 H         1 UNK         0.0600 
    161 H161        2.0664  -14.6509  -45.9284 H         1 UNK         0.0600 
    162 H162        0.3718  -14.7592  -45.4542 H         1 UNK         0.0600 
    163 H163        0.8894  -15.4284  -46.9849 H         1 UNK         0.0600 
    164 H164        1.7913  -15.5621  -43.4938 H         1 UNK         0.3000 
    165 H165        2.9649  -17.9864  -41.1690 H         1 UNK         0.0600 
    166 H166        4.6417  -16.2247  -40.6820 H         1 UNK         0.0600 
    167 H167        5.0706  -17.0753  -42.1574 H         1 UNK         0.0600 
    168 H168        4.3508  -15.4723  -42.2508 H         1 UNK         0.0600 
    169 H169        2.2653  -15.2117  -40.9473 H         1 UNK         0.3000 
    170 H170       -1.2314  -15.6675  -40.4473 H         1 UNK         0.0600 
    171 H171       -0.1805  -16.1065  -38.2209 H         1 UNK         0.0600 
    172 H172        1.0056  -14.8413  -38.5189 H         1 UNK         0.0600 
    173 H173       -0.7044  -14.4365  -38.3649 H         1 UNK         0.0600 
    174 H174        0.3460  -13.3192  -40.3950 H         1 UNK         0.3000 
    175 H175       -0.1948  -11.7580  -42.2065 H         1 UNK         0.0600 
    176 H176        2.2214  -13.1362  -43.5254 H         1 UNK         0.0600 
    177 H177        2.0375  -11.3992  -43.2935 H         1 UNK         0.0600 
    178 H178        2.1936  -12.4559  -41.9026 H         1 UNK         0.0600 
    179 H179        0.3674  -12.4620  -44.9624 H         1 UNK         0.3000 
    180 H180       -2.2308  -13.2101  -46.2512 H         1 UNK         0.0600 
    181 H181       -3.4017  -11.3276  -47.4127 H         1 UNK         0.0600 
    182 H182       -2.9505  -10.2378  -46.1020 H         1 UNK         0.0600 
    183 H183       -4.0301  -11.5913  -45.7963 H         1 UNK         0.0600 
    184 H184       -0.6393  -12.5814  -47.6610 H         1 UNK         0.3000 
    185 H185        0.3694  -10.4982  -49.0718 H         1 UNK         0.0600 
    186 H186        2.5887   -9.4061  -48.8335 H         1 UNK         0.0600 
    187 H187        1.3623   -8.5368  -47.9296 H         1 UNK         0.0600 
    188 H188        2.5024   -9.5767  -47.0808 H         1 UNK         0.0600 
    189 H189        2.7109  -11.8302  -48.0510 H         1 UNK         0.3000 
    190 H190       -1.9537  -22.1077  -45.3311 H         1 UNK         0.3000 
    191 H191       -3.8276  -24.1726  -45.7713 H         1 UNK         0.0600 
    192 H192       -3.4886  -24.6671  -43.3670 H         1 UNK         0.0600 
    193 H193       -3.6223  -22.9363  -43.6397 H         1 UNK         0.0600 
    194 H194       -2.0455  -23.6632  -43.3406 H         1 UNK         0.0600 
    195 H195       -0.2858  -24.3367  -45.3834 H         1 UNK         0.3000 
    196 H196       -0.1526  -27.2213  -45.4305 H         1 UNK         0.0600 
    197 H197        2.0073  -25.0888  -45.8456 H         1 UNK         0.0600 
    198 H198        1.5803  -25.8581  -44.3207 H         1 UNK         0.0600 
    199 H199        2.3008  -26.8081  -45.6121 H         1 UNK         0.0600 
    200 H200        0.6160  -24.6764  -47.8825 H         1 UNK         0.3000 
    201 H201        1.4244  -26.6636  -49.8187 H         1 UNK         0.0600 
    202 H202        1.1437  -23.6243  -50.0501 H         1 UNK         0.0600 
    203 H203        1.9927  -24.6725  -51.1800 H         1 UNK         0.0600 
    204 H204        2.5920  -24.4880  -49.5383 H         1 UNK         0.0600 
    205 H205       -1.4731  -24.5774  -49.4646 H         1 UNK         0.3000 
    206 H206       -2.5100  -25.5468  -52.1083 H         1 UNK         0.0600 
    207 H207       -1.6707  -23.1688  -52.0296 H         1 UNK         0.0600 
    208 H208       -3.3820  -23.2824  -52.4005 H         1 UNK         0.0600 
    209 H209       -2.8613  -22.8086  -50.7859 H         1 UNK         0.0600 
    210 H210       -3.0101  -25.9945  -48.9096 H         1 UNK         0.3000 
    211 H211       -4.6547  -26.6148  -47.5616 H         1 UNK         0.0600 
    212 H212       -6.6040  -27.8122  -48.4407 H         1 UNK         0.0600 
    213 H213       -5.1838  -28.2694  -49.3655 H         1 UNK         0.0600 
    214 H214       -6.3588  -27.1454  -50.0478 H         1 UNK         0.0600 
    215 H215       -4.3235  -23.8767  -48.0903 H         1 UNK         0.3000 
    216 H216       -5.1022  -21.8816  -47.5501 H         1 UNK         0.0600 
    217 H217       -6.9541  -21.6360  -45.9399 H         1 UNK         0.0600 
    218 H218       -7.4528  -23.3006  -46.1957 H         1 UNK         0.0600 
    219 H219       -5.8944  -22.9458  -45.4519 H         1 UNK         0.0600 
    220 H220       -5.3260  -22.2433  -50.0416 H         1 UNK         0.3000 
    221 H221       -7.8782  -21.9751  -51.2928 H         1 UNK         0.0600 
    222 H222       -5.8464  -22.7570  -52.4914 H         1 UNK         0.0600 
    223 H223       -5.0451  -21.2119  -52.2036 H         1 UNK         0.0600 
    224 H224       -6.4466  -21.2973  -53.2607 H         1 UNK         0.0600 
    225 H225       -8.6619  -20.0906  -52.4503 H         1 UNK         0.3000 
    226 H226       -8.6543  -17.6281  -50.9015 H         1 UNK         0.0600 
    227 H227      -10.0738  -18.4134  -53.5000 H         1 UNK         0.0600 
    228 H228      -10.7417  -18.5366  -51.8726 H         1 UNK         0.0600 
    229 H229      -10.3865  -16.9599  -52.5577 H         1 UNK         0.0600 
    230 H230       -6.2283  -17.6891  -51.3358 H         1 UNK         0.3000 
    231 H231       -4.4154  -16.5974  -51.9259 H         1 UNK         0.0600 
    232 H232       -5.9417  -15.0237  -54.0686 H         1 UNK         0.0600 
    233 H233       -4.3492  -14.6631  -53.4295 H         1 UNK         0.0600 
    234 H234       -5.7562  -14.5168  -52.3888 H         1 UNK         0.0600 
    235 H235       -2.7141  -16.7538  -53.3898 H         1 UNK         0.3000 
    236 H236       -1.3398  -17.7256  -54.7804 H         1 UNK         0.0600 
    237 H237       -1.9746  -18.3110  -57.0776 H         1 UNK         0.0600 
    238 H238       -3.6776  -18.3734  -56.6581 H         1 UNK         0.0600 
    239 H239       -2.8136  -16.8374  -56.6301 H         1 UNK         0.0600 
    240 H240       -0.6833  -19.8526  -55.8445 H         1 UNK         0.3000 
    241 H241       -1.2759  -21.9575  -53.9150 H         1 UNK         0.0600 
    242 H242       -3.3305  -22.9156  -57.1906 H         1 UNK         0.3800 
    243 H243       -2.8669  -21.2773  -56.8113 H         1 UNK         0.3800 
    244 H244        0.7956  -22.0013  -56.1385 H         1 UNK         0.0800 
    245 H245        0.6887  -23.1170  -54.8037 H         1 UNK         0.0800 
    246 H246        0.6199  -22.4511  -52.4189 H         1 UNK         0.0800 
    247 H247        2.2826  -22.0644  -52.0744 H         1 UNK         0.0800 
@<TRIPOS>BOND
     1    1    2 1    
     2    1  127 1    
     3    1  128 1    
     4    1  129 1    
     5    2    3 2    
     6    2    4 am   BACKBONE|DICT|INTERRES
     7    4    5 1    
     8    4  130 1    
     9    5    6 1    
    10    5   65 1    
    11    5  131 1    
    12    6    7 1    
    13    6  132 1    
    14    6  133 1    
    15    7    8 1    
    16    8    9 1    
    17    8  134 1    
    18    8  135 1    
    19    9   10 ar   
    20    9   14 ar   
    21   10   11 ar   
    22   10  136 1    
    23   11   12 ar   
    24   11  126 1    
    25   12   13 ar   
    26   12  137 1    
    27   13   14 ar   
    28   13   15 1    
    29   14  138 1    
    30   15   16 1    
    31   15  139 1    
    32   15  140 1    
    33   16   17 1    
    34   17   18 1    
    35   17  141 1    
    36   17  142 1    
    37   18   19 1    
    38   18   67 1    
    39   18  143 1    
    40   19   20 am   BACKBONE|DICT|INTERRES
    41   19  144 1    
    42   20   21 2    
    43   20   22 1    
    44   22   23 1    
    45   22   24 1    
    46   22  145 1    
    47   23  146 1    
    48   23  147 1    
    49   23  148 1    
    50   24   25 am   BACKBONE|DICT|INTERRES
    51   24  149 1    
    52   25   26 2    
    53   25   27 1    
    54   27   28 1    
    55   27   29 1    
    56   27  150 1    
    57   28  151 1    
    58   28  152 1    
    59   28  153 1    
    60   29   30 am   BACKBONE|DICT|INTERRES
    61   29  154 1    
    62   30   31 2    
    63   30   32 1    
    64   32   33 1    
    65   32   34 1    
    66   32  155 1    
    67   33  156 1    
    68   33  157 1    
    69   33  158 1    
    70   34   35 am   BACKBONE|DICT|INTERRES
    71   34  159 1    
    72   35   36 2    
    73   35   37 1    
    74   37   38 1    
    75   37   39 1    
    76   37  160 1    
    77   38  161 1    
    78   38  162 1    
    79   38  163 1    
    80   39   40 am   BACKBONE|DICT|INTERRES
    81   39  164 1    
    82   40   41 2    
    83   40   42 1    
    84   42   43 1    
    85   42   44 1    
    86   42  165 1    
    87   43  166 1    
    88   43  167 1    
    89   43  168 1    
    90   44   45 am   BACKBONE|DICT|INTERRES
    91   44  169 1    
    92   45   46 2    
    93   45   47 1    
    94   47   48 1    
    95   47   49 1    
    96   47  170 1    
    97   48  171 1    
    98   48  172 1    
    99   48  173 1    
   100   49   50 am   BACKBONE|DICT|INTERRES
   101   49  174 1    
   102   50   51 2    
   103   50   52 1    
   104   52   53 1    
   105   52   54 1    
   106   52  175 1    
   107   53  176 1    
   108   53  177 1    
   109   53  178 1    
   110   54   55 am   BACKBONE|DICT|INTERRES
   111   54  179 1    
   112   55   56 2    
   113   55   57 1    
   114   57   58 1    
   115   57   59 1    
   116   57  180 1    
   117   58  181 1    
   118   58  182 1    
   119   58  183 1    
   120   59   60 am   BACKBONE|DICT|INTERRES
   121   59  184 1    
   122   60   61 2    
   123   60   62 1    
   124   62   63 1    
   125   62   64 1    
   126   62  185 1    
   127   63  186 1    
   128   63  187 1    
   129   63  188 1    
   130   64   65 am   BACKBONE|DICT|INTERRES
   131   64  189 1    
   132   65   66 2    
   133   67   68 2    
   134   67   69 am   BACKBONE|DICT|INTERRES
   135   69   70 1    
   136   69  190 1    
   137   70   71 1    
   138   70   72 1    
   139   70  191 1    
   140   71  192 1    
   141   71  193 1    
   142   71  194 1    
   143   72   73 2    
   144   72   74 am   BACKBONE|DICT|INTERRES
   145   74   75 1    
   146   74  195 1    
   147   75   76 1    
   148   75   77 1    
   149   75  196 1    
   150   76  197 1    
   151   76  198 1    
   152   76  199 1    
   153   77   78 2    
   154   77   79 am   BACKBONE|DICT|INTERRES
   155   79   80 1    
   156   79  200 1    
   157   80   81 1    
   158   80   82 1    
   159   80  201 1    
   160   81  202 1    
   161   81  203 1    
   162   81  204 1    
   163   82   83 2    
   164   82   84 am   BACKBONE|DICT|INTERRES
   165   84   85 1    
   166   84  205 1    
   167   85   86 1    
   168   85   87 1    
   169   85  206 1    
   170   86  207 1    
   171   86  208 1    
   172   86  209 1    
   173   87   88 2    
   174   87   89 am   BACKBONE|DICT|INTERRES
   175   89   90 1    
   176   89  210 1    
   177   90   91 1    
   178   90   92 1    
   179   90  211 1    
   180   91  212 1    
   181   91  213 1    
   182   91  214 1    
   183   92   93 2    
   184   92   94 am   BACKBONE|DICT|INTERRES
   185   94   95 1    
   186   94  215 1    
   187   95   96 1    
   188   95   97 1    
   189   95  216 1    
   190   96  217 1    
   191   96  218 1    
   192   96  219 1    
   193   97   98 2    
   194   97   99 am   BACKBONE|DICT|INTERRES
   195   99  100 1    
   196   99  220 1    
   197  100  101 1    
   198  100  102 1    
   199  100  221 1    
   200  101  222 1    
   201  101  223 1    
   202  101  224 1    
   203  102  103 2    
   204  102  104 am   BACKBONE|DICT|INTERRES
   205  104  105 1    
   206  104  225 1    
   207  105  106 1    
   208  105  107 1    
   209  105  226 1    
   210  106  227 1    
   211  106  228 1    
   212  106  229 1    
   213  107  108 2    
   214  107  109 am   BACKBONE|DICT|INTERRES
   215  109  110 1    
   216  109  230 1    
   217  110  111 1    
   218  110  112 1    
   219  110  231 1    
   220  111  232 1    
   221  111  233 1    
   222  111  234 1    
   223  112  113 2    
   224  112  114 am   BACKBONE|DICT|INTERRES
   225  114  115 1    
   226  114  235 1    
   227  115  116 1    
   228  115  117 1    
   229  115  236 1    
   230  116  237 1    
   231  116  238 1    
   232  116  239 1    
   233  117  118 2    
   234  117  119 am   BACKBONE|DICT|INTERRES
   235  119  120 1    
   236  119  240 1    
   237  120  121 1    
   238  120  124 1    
   239  120  241 1    
   240  121  122 am   BACKBONE|DICT|INTERRES
   241  121  123 2    
   242  122  242 1    
   243  122  243 1    
   244  124  125 1    
   245  124  244 1    
   246  124  245 1    
   247  125  126 1    
   248  126  246 1    
   249  126  247 1    
@<TRIPOS>SUBSTRUCTURE
     1 UNK         1 GROUP             0       ****    0 ROOT    
