@<TRIPOS>MOLECULE
3R540
247   249    1
SMALL
USER_CHARGES


@<TRIPOS>ATOM
      1 CA          0.2325  -11.4094  -47.8716 C.3       0 UNK        -0.1800 
      2 C           1.4958  -12.0947  -48.3729 C.2       0 UNK         0.5000 
      3 O           2.5005  -11.4284  -48.6208 O.2       0 UNK        -0.5000 
      4 N           1.4487  -13.4249  -48.5183 N.am      1 UNK        -0.5000 
      5 CA          2.5678  -14.2670  -48.9697 C.3       1 UNK         0.1400 
      6 C6          2.0956  -15.6703  -49.4236 C.3       23 UNK        -0.0398 
      7 S7          0.7674  -15.6275  -50.6758 S.3       23 UNK        -0.2404 
      8 C8         -0.3154  -16.9699  -50.0913 C.3       23 UNK        -0.0205 
      9 C9          0.1554  -18.3376  -50.5660 C.ar      23 UNK        -0.0193 
     10 C10        -0.5347  -18.9900  -51.5897 C.ar      23 UNK        -0.1150 
     11 C11        -0.1355  -20.2568  -52.0188 C.ar      23 UNK        -0.0193 
     12 C12         0.9462  -20.8820  -51.3958 C.ar      23 UNK        -0.1150 
     13 C13         1.6364  -20.2588  -50.3520 C.ar      23 UNK        -0.0193 
     14 C14         1.2523  -18.9677  -49.9678 C.ar      23 UNK        -0.1150 
     15 C15         2.7823  -21.0328  -49.6935 C.3       23 UNK        -0.0205 
     16 S16         3.3716  -20.4708  -48.0514 S.3       23 UNK        -0.2404 
     17 C17         1.8934  -20.2948  -46.9898 C.3       23 UNK        -0.0398 
     18 CA          1.1357  -21.5872  -46.5921 C.3       11 UNK         0.1400 
     19 N           0.3881  -21.3811  -45.3461 N.am      11 UNK        -0.5000 
     20 C          -0.3566  -22.2938  -44.7067 C.2       10 UNK         0.5000 
     21 O          -0.4335  -23.4748  -45.0412 O.2       10 UNK        -0.5000 
     22 CA         -1.2076  -21.7866  -43.5274 C.3       10 UNK         0.1400 
     23 CB         -0.3714  -21.7014  -42.2423 C.3       10 UNK        -0.1800 
     24 N          -1.8383  -20.4923  -43.8009 N.am      10 UNK        -0.5000 
     25 C          -2.7492  -20.2836  -44.7637 C.2       9 UNK         0.5000 
     26 O          -3.1859  -21.1734  -45.4913 O.2       9 UNK        -0.5000 
     27 CA         -3.2219  -18.8364  -44.9872 C.3       9 UNK         0.1400 
     28 CB         -4.2971  -18.4466  -43.9624 C.3       9 UNK        -0.1800 
     29 N          -2.1216  -17.8738  -44.9461 N.am      9 UNK        -0.5000 
     30 C          -1.1104  -17.8404  -45.8252 C.2       8 UNK         0.5000 
     31 O          -1.0338  -18.5833  -46.8034 O.2       8 UNK        -0.5000 
     32 CA          0.0361  -16.8534  -45.5306 C.3       8 UNK         0.1400 
     33 CB         -0.3128  -15.4356  -46.0064 C.3       8 UNK        -0.1800 
     34 N           0.3946  -16.8216  -44.1114 N.am      8 UNK        -0.5000 
     35 C           0.8989  -17.8648  -43.4362 C.2       7 UNK         0.5000 
     36 O           1.1594  -18.9500  -43.9532 O.2       7 UNK        -0.5000 
     37 CA          1.0872  -17.6879  -41.9203 C.3       7 UNK         0.1400 
     38 CB          2.4053  -16.9684  -41.5956 C.3       7 UNK        -0.1800 
     39 N          -0.0350  -16.9718  -41.3155 N.am      7 UNK        -0.5000 
     40 C          -1.2671  -17.4833  -41.1809 C.2       6 UNK         0.5000 
     41 O          -1.5710  -18.6289  -41.5122 O.2       6 UNK        -0.5000 
     42 CA         -2.3493  -16.5406  -40.6241 C.3       6 UNK         0.1400 
     43 CB         -2.3152  -16.5240  -39.0887 C.3       6 UNK        -0.1800 
     44 N          -2.2126  -15.1730  -41.1275 N.am      6 UNK        -0.5000 
     45 C          -2.3824  -14.8161  -42.4088 C.2       5 UNK         0.5000 
     46 O          -2.7209  -15.5976  -43.2956 O.2       5 UNK        -0.5000 
     47 CA         -2.0676  -13.3526  -42.7682 C.3       5 UNK         0.1400 
     48 CB         -3.3103  -12.4700  -42.5822 C.3       5 UNK        -0.1800 
     49 N          -0.9559  -12.8017  -41.9887 N.am      5 UNK        -0.5000 
     50 C           0.3057  -13.2449  -42.0540 C.2       4 UNK         0.5000 
     51 O           0.6720  -14.1734  -42.7809 O.2       4 UNK        -0.5000 
     52 CA          1.3090  -12.5794  -41.1060 C.3       4 UNK         0.1400 
     53 CB          1.3571  -13.3230  -39.7611 C.3       4 UNK        -0.1800 
     54 N           2.6279  -12.6149  -41.7237 N.am      4 UNK        -0.5000 
     55 C           3.5096  -11.6093  -41.7291 C.2       3 UNK         0.5000 
     56 O           3.3360  -10.5494  -41.1254 O.2       3 UNK        -0.5000 
     57 CA          4.8099  -11.8059  -42.5386 C.3       3 UNK         0.1400 
     58 CB          6.0034  -12.0090  -41.5913 C.3       3 UNK        -0.1800 
     59 N           4.7804  -12.9173  -43.4959 N.am      3 UNK        -0.5000 
     60 C           4.0090  -12.9816  -44.5885 C.2       2 UNK         0.5000 
     61 O           3.1899  -12.1133  -44.9012 O.2       2 UNK        -0.5000 
     62 CA          4.1797  -14.2367  -45.4594 C.3       2 UNK         0.1400 
     63 CB          3.7816  -15.5101  -44.6932 C.3       2 UNK        -0.1800 
     64 N           3.3293  -14.1230  -46.6367 N.am      2 UNK        -0.5000 
     65 C           3.6664  -14.4288  -47.8936 C.2       1 UNK         0.5000 
     66 O           4.7759  -14.8532  -48.2193 O.2       1 UNK        -0.5000 
     67 C           0.1996  -22.0677  -47.7209 C.2       11 UNK         0.5000 
     68 O           0.4507  -23.1129  -48.3218 O.2       11 UNK        -0.5000 
     69 N          -0.8883  -21.3189  -47.9523 N.am      12 UNK        -0.5000 
     70 CA         -1.8991  -21.6178  -48.9648 C.3       12 UNK         0.1400 
     71 CB         -2.8754  -20.4379  -49.0658 C.3       12 UNK        -0.1800 
     72 C          -2.6356  -22.9453  -48.7063 C.2       12 UNK         0.5000 
     73 O          -2.8728  -23.7003  -49.6493 O.2       12 UNK        -0.5000 
     74 N          -2.9504  -23.2307  -47.4356 N.am      13 UNK        -0.5000 
     75 CA         -3.5479  -24.4886  -46.9897 C.3       13 UNK         0.1400 
     76 CB         -3.9947  -24.3654  -45.5263 C.3       13 UNK        -0.1800 
     77 C          -2.6142  -25.6956  -47.1837 C.2       13 UNK         0.5000 
     78 O          -3.0702  -26.7323  -47.6654 O.2       13 UNK        -0.5000 
     79 N          -1.3224  -25.5353  -46.8610 N.am      14 UNK        -0.5000 
     80 CA         -0.2794  -26.5420  -47.0845 C.3       14 UNK         0.1400 
     81 CB          1.0225  -26.0999  -46.3997 C.3       14 UNK        -0.1800 
     82 C          -0.0401  -26.8334  -48.5788 C.2       14 UNK         0.5000 
     83 O           0.2185  -27.9808  -48.9429 O.2       14 UNK        -0.5000 
     84 N          -0.1790  -25.7991  -49.4182 N.am      15 UNK        -0.5000 
     85 CA         -0.1513  -25.8848  -50.8793 C.3       15 UNK         0.1400 
     86 CB          0.1595  -24.4899  -51.4422 C.3       15 UNK        -0.1800 
     87 C          -1.4520  -26.4477  -51.4950 C.2       15 UNK         0.5000 
     88 O          -1.4849  -26.6762  -52.7048 O.2       15 UNK        -0.5000 
     89 N          -2.4897  -26.6563  -50.6689 N.am      16 UNK        -0.5000 
     90 CA         -3.8311  -27.1398  -51.0121 C.3       16 UNK         0.1400 
     91 CB         -3.7790  -28.5938  -51.5260 C.3       16 UNK        -0.1800 
     92 C          -4.5921  -26.1841  -51.9553 C.2       16 UNK         0.5000 
     93 O          -5.3134  -26.6348  -52.8473 O.2       16 UNK        -0.5000 
     94 N          -4.4205  -24.8763  -51.7337 N.am      17 UNK        -0.5000 
     95 CA         -5.0065  -23.7973  -52.5230 C.3       17 UNK         0.1400 
     96 CB         -4.0151  -23.3801  -53.6250 C.3       17 UNK        -0.1800 
     97 C          -5.3958  -22.6352  -51.5950 C.2       17 UNK         0.5000 
     98 O          -5.1050  -21.4814  -51.9019 O.2       17 UNK        -0.5000 
     99 N          -6.0338  -22.9642  -50.4612 N.am      18 UNK        -0.5000 
    100 CA        -6.3393  -22.0647  -49.3399 C.3       18 UNK         0.1400 
    101 CB        -7.0976  -22.8568  -48.2634 C.3       18 UNK        -0.1800 
    102 C         -7.1215  -20.7839  -49.6966 C.2       18 UNK         0.5000 
    103 O         -6.9626  -19.7700  -49.0166 O.2       18 UNK        -0.5000 
    104 N         -7.9541  -20.8576  -50.7410 N.am      19 UNK        -0.5000 
    105 CA        -8.8074  -19.7676  -51.2142 C.3       19 UNK         0.1400 
    106 CB       -10.1685  -20.3675  -51.6088 C.3       19 UNK        -0.1800 
    107 C         -8.1964  -18.9773  -52.3908 C.2       19 UNK         0.5000 
    108 O         -8.8753  -18.0983  -52.9251 O.2       19 UNK        -0.5000 
    109 N         -6.9644  -19.3008  -52.8059 N.am      20 UNK        -0.5000 
    110 CA        -6.3142  -18.7442  -53.9914 C.3       20 UNK         0.1400 
    111 CB        -6.4699  -19.7552  -55.1437 C.3       20 UNK        -0.1800 
    112 C         -4.8353  -18.4201  -53.7187 C.2       20 UNK         0.5000 
    113 O         -4.3390  -18.6272  -52.6101 O.2       20 UNK        -0.5000 
    114 N         -4.1505  -17.9206  -54.7530 N.am      21 UNK        -0.5000 
    115 CA        -2.7083  -17.6986  -54.7681 C.3       21 UNK         0.1400 
    116 CB        -2.3774  -16.3280  -54.1442 C.3       21 UNK        -0.1800 
    117 C         -2.1950  -17.8543  -56.2134 C.2       21 UNK         0.5000 
    118 O         -1.8574  -16.8509  -56.8406 O.2       21 UNK        -0.5000 
    119 N         -2.1618  -19.0647  -56.7905 N.am      22 UNK        -0.5000 
    120 CA        -2.5631  -20.3758  -56.2374 C.3       22 UNK         0.1400 
    121 C         -3.5860  -21.1151  -57.1511 C.2       22 UNK         0.5000 
    122 N         -4.1613  -20.4746  -58.1622 N.am      22 UNK        -0.7600 
    123 O         -3.8812  -22.2859  -56.9342 O.2       22 UNK        -0.5000 
    124 C124       -1.3426  -21.2764  -55.9015 C.3       23 UNK        -0.0398 
    125 S125       -0.1586  -20.4971  -54.7543 S.3       23 UNK        -0.2404 
    126 C126       -0.8762  -20.9519  -53.1476 C.3       23 UNK        -0.0205 
    127 H127        0.4354  -10.8924  -46.9336 H         1 UNK         0.0600 
    128 H128       -0.5746  -12.1218  -47.6986 H         1 UNK         0.0600 
    129 H129       -0.1115  -10.6754  -48.6003 H         1 UNK         0.0600 
    130 H130        0.5807  -13.9099  -48.3468 H         1 UNK         0.3000 
    131 H131        3.0306  -13.7756  -49.8283 H         1 UNK         0.0600 
    132 H132        2.9288  -16.2341  -49.8476 H         1 UNK         0.0800 
    133 H133        1.7541  -16.2372  -48.5563 H         1 UNK         0.0800 
    134 H134       -0.3907  -16.9619  -49.0039 H         1 UNK         0.0800 
    135 H135       -1.3250  -16.7759  -50.4570 H         1 UNK         0.0800 
    136 H136       -1.3869  -18.5114  -52.0493 H         1 UNK         0.1150 
    137 H137        1.2506  -21.8644  -51.7251 H         1 UNK         0.1150 
    138 H138        1.7948  -18.4530  -49.1919 H         1 UNK         0.1150 
    139 H139        2.5079  -22.0848  -49.6095 H         1 UNK         0.0800 
    140 H140        3.6336  -21.0059  -50.3747 H         1 UNK         0.0800 
    141 H141        1.2158  -19.5511  -47.3979 H         1 UNK         0.0800 
    142 H142        2.2846  -19.8316  -46.0843 H         1 UNK         0.0800 
    143 H143        1.8659  -22.3757  -46.4000 H         1 UNK         0.0600 
    144 H144        0.4299  -20.4459  -44.9512 H         1 UNK         0.3000 
    145 H145       -2.0055  -22.5127  -43.3600 H         1 UNK         0.0600 
    146 H146       -0.9869  -21.4117  -41.3904 H         1 UNK         0.0600 
    147 H147        0.0782  -22.6664  -42.0055 H         1 UNK         0.0600 
    148 H148        0.4372  -20.9765  -42.3322 H         1 UNK         0.0600 
    149 H149       -1.5694  -19.7181  -43.2022 H         1 UNK         0.3000 
    150 H150       -3.6701  -18.7855  -45.9817 H         1 UNK         0.0600 
    151 H151       -5.1362  -19.1427  -43.9935 H         1 UNK         0.0600 
    152 H152       -4.6923  -17.4514  -44.1663 H         1 UNK         0.0600 
    153 H153       -3.9056  -18.4487  -42.9452 H         1 UNK         0.0600 
    154 H154       -2.1517  -17.1792  -44.2050 H         1 UNK         0.3000 
    155 H155        0.9141  -17.1891  -46.0865 H         1 UNK         0.0600 
    156 H156       -1.1951  -15.0468  -45.4988 H         1 UNK         0.0600 
    157 H157       -0.5211  -15.4233  -47.0762 H         1 UNK         0.0600 
    158 H158        0.5088  -14.7439  -45.8211 H         1 UNK         0.0600 
    159 H159        0.2486  -15.9467  -43.6180 H         1 UNK         0.3000 
    160 H160        1.1342  -18.6843  -41.4760 H         1 UNK         0.0600 
    161 H161        2.4138  -15.9427  -41.9610 H         1 UNK         0.0600 
    162 H162        3.2525  -17.4849  -42.0487 H         1 UNK         0.0600 
    163 H163        2.5809  -16.9391  -40.5203 H         1 UNK         0.0600 
    164 H164        0.1205  -16.0067  -41.0679 H         1 UNK         0.3000 
    165 H165       -3.3214  -16.9242  -40.9411 H         1 UNK         0.0600 
    166 H166       -3.1256  -15.9181  -38.6831 H         1 UNK         0.0600 
    167 H167       -2.4308  -17.5310  -38.6856 H         1 UNK         0.0600 
    168 H168       -1.3740  -16.1242  -38.7092 H         1 UNK         0.0600 
    169 H169       -1.9402  -14.4649  -40.4622 H         1 UNK         0.3000 
    170 H170       -1.7844  -13.3244  -43.8223 H         1 UNK         0.0600 
    171 H171       -4.1484  -12.8482  -43.1693 H         1 UNK         0.0600 
    172 H172       -3.6290  -12.4351  -41.5397 H         1 UNK         0.0600 
    173 H173       -3.1208  -11.4479  -42.9106 H         1 UNK         0.0600 
    174 H174       -1.1791  -12.0413  -41.3625 H         1 UNK         0.3000 
    175 H175        0.9932  -11.5471  -40.9404 H         1 UNK         0.0600 
    176 H176        1.6655  -14.3618  -39.8847 H         1 UNK         0.0600 
    177 H177        2.0592  -12.8473  -39.0761 H         1 UNK         0.0600 
    178 H178        0.3805  -13.3233  -39.2755 H         1 UNK         0.0600 
    179 H179        2.8038  -13.4238  -42.3033 H         1 UNK         0.3000 
    180 H180        4.9761  -10.8860  -43.1029 H         1 UNK         0.0600 
    181 H181        5.9037  -12.9273  -41.0113 H         1 UNK         0.0600 
    182 H182        6.0888  -11.1825  -40.8844 H         1 UNK         0.0600 
    183 H183        6.9424  -12.0587  -42.1429 H         1 UNK         0.0600 
    184 H184        5.4203  -13.6758  -43.3088 H         1 UNK         0.3000 
    185 H185        5.2296  -14.2989  -45.7528 H         1 UNK         0.0600 
    186 H186        3.8429  -16.3924  -45.3307 H         1 UNK         0.0600 
    187 H187        4.4343  -15.6850  -43.8377 H         1 UNK         0.0600 
    188 H188        2.7602  -15.4389  -44.3216 H         1 UNK         0.0600 
    189 H189        2.4404  -13.6705  -46.4741 H         1 UNK         0.3000 
    190 H190       -1.0175  -20.4600  -47.4253 H         1 UNK         0.3000 
    191 H191       -1.3863  -21.7132  -49.9221 H         1 UNK         0.0600 
    192 H192       -3.4670  -20.3216  -48.1573 H         1 UNK         0.0600 
    193 H193       -3.5629  -20.5708  -49.9007 H         1 UNK         0.0600 
    194 H194       -2.3450  -19.5014  -49.2377 H         1 UNK         0.0600 
    195 H195       -2.7838  -22.5270  -46.7200 H         1 UNK         0.3000 
    196 H196       -4.4348  -24.6671  -47.5993 H         1 UNK         0.0600 
    197 H197       -4.4630  -25.2879  -45.1812 H         1 UNK         0.0600 
    198 H198       -4.7242  -23.5645  -45.4043 H         1 UNK         0.0600 
    199 H199       -3.1537  -24.1556  -44.8653 H         1 UNK         0.0600 
    200 H200       -1.0254  -24.6650  -46.4268 H         1 UNK         0.3000 
    201 H201       -0.6087  -27.4720  -46.6167 H         1 UNK         0.0600 
    202 H202        0.8798  -25.9766  -45.3260 H         1 UNK         0.0600 
    203 H203        1.3870  -25.1530  -46.7987 H         1 UNK         0.0600 
    204 H204        1.8100  -26.8412  -46.5402 H         1 UNK         0.0600 
    205 H205       -0.3176  -24.8745  -49.0223 H         1 UNK         0.3000 
    206 H206        0.6596  -26.5551  -51.1709 H         1 UNK         0.0600 
    207 H207        1.1080  -24.1185  -51.0546 H         1 UNK         0.0600 
    208 H208        0.2368  -24.5094  -52.5299 H         1 UNK         0.0600 
    209 H209       -0.6154  -23.7699  -51.1796 H         1 UNK         0.0600 
    210 H210       -2.3601  -26.4283  -49.6912 H         1 UNK         0.3000 
    211 H211       -4.3952  -27.1464  -50.0787 H         1 UNK         0.0600 
    212 H212       -3.2849  -28.6656  -52.4952 H         1 UNK         0.0600 
    213 H213       -4.7831  -29.0035  -51.6409 H         1 UNK         0.0600 
    214 H214       -3.2449  -29.2385  -50.8280 H         1 UNK         0.0600 
    215 H215       -3.8166  -24.5757  -50.9685 H         1 UNK         0.3000 
    216 H216       -5.9299  -24.1360  -52.9967 H         1 UNK         0.0600 
    217 H217       -4.4178  -22.5690  -54.2318 H         1 UNK         0.0600 
    218 H218       -3.7984  -24.2103  -54.2974 H         1 UNK         0.0600 
    219 H219       -3.0711  -23.0398  -53.1999 H         1 UNK         0.0600 
    220 H220       -6.2368  -23.9414  -50.3100 H         1 UNK         0.3000 
    221 H221       -5.3889  -21.7499  -48.9105 H         1 UNK         0.0600 
    222 H222       -8.0589  -23.2160  -48.6331 H         1 UNK         0.0600 
    223 H223       -6.5268  -23.7197  -47.9243 H         1 UNK         0.0600 
    224 H224       -7.2936  -22.2370  -47.3873 H         1 UNK         0.0600 
    225 H225       -8.0030  -21.7258  -51.2537 H         1 UNK         0.3000 
    226 H226       -8.9799  -19.0532  -50.4066 H         1 UNK         0.0600 
    227 H227      -10.6206  -20.9020  -50.7731 H         1 UNK         0.0600 
    228 H228      -10.8715  -19.5895  -51.9094 H         1 UNK         0.0600 
    229 H229      -10.0741  -21.0649  -52.4421 H         1 UNK         0.0600 
    230 H230       -6.4079  -19.9750  -52.2866 H         1 UNK         0.3000 
    231 H231       -6.7896  -17.8045  -54.2794 H         1 UNK         0.0600 
    232 H232       -6.0722  -19.3645  -56.0804 H         1 UNK         0.0600 
    233 H233       -7.5194  -19.9917  -55.3200 H         1 UNK         0.0600 
    234 H234       -5.9512  -20.6899  -54.9272 H         1 UNK         0.0600 
    235 H235       -4.6234  -17.7610  -55.6320 H         1 UNK         0.3000 
    236 H236       -2.2120  -18.4595  -54.1679 H         1 UNK         0.0600 
    237 H237       -2.6816  -16.2868  -53.0982 H         1 UNK         0.0600 
    238 H238       -1.3043  -16.1350  -54.1743 H         1 UNK         0.0600 
    239 H239       -2.8768  -15.5137  -54.6700 H         1 UNK         0.0600 
    240 H240       -1.8172  -19.1145  -57.7379 H         1 UNK         0.3000 
    241 H241       -3.1105  -20.2430  -55.3074 H         1 UNK         0.0600 
    242 H242       -4.8229  -20.9676  -58.7416 H         1 UNK         0.3800 
    243 H243       -3.9534  -19.5083  -58.3575 H         1 UNK         0.3800 
    244 H244       -1.6655  -22.2258  -55.4702 H         1 UNK         0.0800 
    245 H245       -0.8031  -21.5296  -56.8154 H         1 UNK         0.0800 
    246 H246       -0.8263  -22.0340  -53.0220 H         1 UNK         0.0800 
    247 H247       -1.9338  -20.6837  -53.1172 H         1 UNK         0.0800 
@<TRIPOS>BOND
     1    1    2 1    
     2    1  127 1    
     3    1  128 1    
     4    1  129 1    
     5    2    3 2    
     6    2    4 am   BACKBONE|DICT|INTERRES
     7    4    5 1    
     8    4  130 1    
     9    5    6 1    
    10    5   65 1    
    11    5  131 1    
    12    6    7 1    
    13    6  132 1    
    14    6  133 1    
    15    7    8 1    
    16    8    9 1    
    17    8  134 1    
    18    8  135 1    
    19    9   10 ar   
    20    9   14 ar   
    21   10   11 ar   
    22   10  136 1    
    23   11   12 ar   
    24   11  126 1    
    25   12   13 ar   
    26   12  137 1    
    27   13   14 ar   
    28   13   15 1    
    29   14  138 1    
    30   15   16 1    
    31   15  139 1    
    32   15  140 1    
    33   16   17 1    
    34   17   18 1    
    35   17  141 1    
    36   17  142 1    
    37   18   19 1    
    38   18   67 1    
    39   18  143 1    
    40   19   20 am   BACKBONE|DICT|INTERRES
    41   19  144 1    
    42   20   21 2    
    43   20   22 1    
    44   22   23 1    
    45   22   24 1    
    46   22  145 1    
    47   23  146 1    
    48   23  147 1    
    49   23  148 1    
    50   24   25 am   BACKBONE|DICT|INTERRES
    51   24  149 1    
    52   25   26 2    
    53   25   27 1    
    54   27   28 1    
    55   27   29 1    
    56   27  150 1    
    57   28  151 1    
    58   28  152 1    
    59   28  153 1    
    60   29   30 am   BACKBONE|DICT|INTERRES
    61   29  154 1    
    62   30   31 2    
    63   30   32 1    
    64   32   33 1    
    65   32   34 1    
    66   32  155 1    
    67   33  156 1    
    68   33  157 1    
    69   33  158 1    
    70   34   35 am   BACKBONE|DICT|INTERRES
    71   34  159 1    
    72   35   36 2    
    73   35   37 1    
    74   37   38 1    
    75   37   39 1    
    76   37  160 1    
    77   38  161 1    
    78   38  162 1    
    79   38  163 1    
    80   39   40 am   BACKBONE|DICT|INTERRES
    81   39  164 1    
    82   40   41 2    
    83   40   42 1    
    84   42   43 1    
    85   42   44 1    
    86   42  165 1    
    87   43  166 1    
    88   43  167 1    
    89   43  168 1    
    90   44   45 am   BACKBONE|DICT|INTERRES
    91   44  169 1    
    92   45   46 2    
    93   45   47 1    
    94   47   48 1    
    95   47   49 1    
    96   47  170 1    
    97   48  171 1    
    98   48  172 1    
    99   48  173 1    
   100   49   50 am   BACKBONE|DICT|INTERRES
   101   49  174 1    
   102   50   51 2    
   103   50   52 1    
   104   52   53 1    
   105   52   54 1    
   106   52  175 1    
   107   53  176 1    
   108   53  177 1    
   109   53  178 1    
   110   54   55 am   BACKBONE|DICT|INTERRES
   111   54  179 1    
   112   55   56 2    
   113   55   57 1    
   114   57   58 1    
   115   57   59 1    
   116   57  180 1    
   117   58  181 1    
   118   58  182 1    
   119   58  183 1    
   120   59   60 am   BACKBONE|DICT|INTERRES
   121   59  184 1    
   122   60   61 2    
   123   60   62 1    
   124   62   63 1    
   125   62   64 1    
   126   62  185 1    
   127   63  186 1    
   128   63  187 1    
   129   63  188 1    
   130   64   65 am   BACKBONE|DICT|INTERRES
   131   64  189 1    
   132   65   66 2    
   133   67   68 2    
   134   67   69 am   BACKBONE|DICT|INTERRES
   135   69   70 1    
   136   69  190 1    
   137   70   71 1    
   138   70   72 1    
   139   70  191 1    
   140   71  192 1    
   141   71  193 1    
   142   71  194 1    
   143   72   73 2    
   144   72   74 am   BACKBONE|DICT|INTERRES
   145   74   75 1    
   146   74  195 1    
   147   75   76 1    
   148   75   77 1    
   149   75  196 1    
   150   76  197 1    
   151   76  198 1    
   152   76  199 1    
   153   77   78 2    
   154   77   79 am   BACKBONE|DICT|INTERRES
   155   79   80 1    
   156   79  200 1    
   157   80   81 1    
   158   80   82 1    
   159   80  201 1    
   160   81  202 1    
   161   81  203 1    
   162   81  204 1    
   163   82   83 2    
   164   82   84 am   BACKBONE|DICT|INTERRES
   165   84   85 1    
   166   84  205 1    
   167   85   86 1    
   168   85   87 1    
   169   85  206 1    
   170   86  207 1    
   171   86  208 1    
   172   86  209 1    
   173   87   88 2    
   174   87   89 am   BACKBONE|DICT|INTERRES
   175   89   90 1    
   176   89  210 1    
   177   90   91 1    
   178   90   92 1    
   179   90  211 1    
   180   91  212 1    
   181   91  213 1    
   182   91  214 1    
   183   92   93 2    
   184   92   94 am   BACKBONE|DICT|INTERRES
   185   94   95 1    
   186   94  215 1    
   187   95   96 1    
   188   95   97 1    
   189   95  216 1    
   190   96  217 1    
   191   96  218 1    
   192   96  219 1    
   193   97   98 2    
   194   97   99 am   BACKBONE|DICT|INTERRES
   195   99  100 1    
   196   99  220 1    
   197  100  101 1    
   198  100  102 1    
   199  100  221 1    
   200  101  222 1    
   201  101  223 1    
   202  101  224 1    
   203  102  103 2    
   204  102  104 am   BACKBONE|DICT|INTERRES
   205  104  105 1    
   206  104  225 1    
   207  105  106 1    
   208  105  107 1    
   209  105  226 1    
   210  106  227 1    
   211  106  228 1    
   212  106  229 1    
   213  107  108 2    
   214  107  109 am   BACKBONE|DICT|INTERRES
   215  109  110 1    
   216  109  230 1    
   217  110  111 1    
   218  110  112 1    
   219  110  231 1    
   220  111  232 1    
   221  111  233 1    
   222  111  234 1    
   223  112  113 2    
   224  112  114 am   BACKBONE|DICT|INTERRES
   225  114  115 1    
   226  114  235 1    
   227  115  116 1    
   228  115  117 1    
   229  115  236 1    
   230  116  237 1    
   231  116  238 1    
   232  116  239 1    
   233  117  118 2    
   234  117  119 am   BACKBONE|DICT|INTERRES
   235  119  120 1    
   236  119  240 1    
   237  120  121 1    
   238  120  124 1    
   239  120  241 1    
   240  121  122 am   BACKBONE|DICT|INTERRES
   241  121  123 2    
   242  122  242 1    
   243  122  243 1    
   244  124  125 1    
   245  124  244 1    
   246  124  245 1    
   247  125  126 1    
   248  126  246 1    
   249  126  247 1    
@<TRIPOS>SUBSTRUCTURE
     1 UNK         1 GROUP             0       ****    0 ROOT    
