@<TRIPOS>MOLECULE
3R540
247   249    1
SMALL
USER_CHARGES


@<TRIPOS>ATOM
      1 CA         -4.0345   -7.6147  -49.5001 C.3       0 UNK        -0.1800 
      2 C          -2.8905   -8.6174  -49.4580 C.2       0 UNK         0.5000 
      3 O          -1.7309   -8.2345  -49.6200 O.2       0 UNK        -0.5000 
      4 N          -3.2066   -9.8986  -49.2351 N.am      1 UNK        -0.5000 
      5 CA         -2.2640  -11.0187  -49.1363 C.3       1 UNK         0.1400 
      6 C6         -2.9182  -12.3680  -49.5426 C.3       23 UNK        -0.0398 
      7 S7         -4.5536  -12.7278  -48.7938 S.3       23 UNK        -0.2404 
      8 C8         -4.2067  -14.0563  -47.5915 C.3       23 UNK        -0.0205 
      9 C9         -3.7065  -15.3364  -48.2458 C.ar      23 UNK        -0.0193 
     10 C10        -4.6139  -16.2620  -48.7634 C.ar      23 UNK        -0.1150 
     11 C11        -4.1706  -17.4483  -49.3551 C.ar      23 UNK        -0.0193 
     12 C12        -2.7924  -17.7021  -49.4201 C.ar      23 UNK        -0.1150 
     13 C13        -1.8699  -16.7772  -48.9173 C.ar      23 UNK        -0.0193 
     14 C14        -2.3383  -15.6057  -48.3190 C.ar      23 UNK        -0.1150 
     15 C15        -0.3636  -16.9983  -49.0390 C.3       23 UNK        -0.0205 
     16 S16         0.2088  -18.6583  -48.5480 S.3       23 UNK        -0.2404 
     17 C17        -0.5096  -18.8395  -46.8829 C.3       23 UNK        -0.0398 
     18 CA         -1.4111  -20.0962  -46.8216 C.3       11 UNK         0.1400 
     19 N          -0.6115  -21.3155  -46.8704 N.am      11 UNK        -0.5000 
     20 C          -0.9315  -22.4288  -47.5360 C.2       10 UNK         0.5000 
     21 O          -1.9849  -22.5734  -48.1528 O.2       10 UNK        -0.5000 
     22 CA          0.0919  -23.5763  -47.5085 C.3       10 UNK         0.1400 
     23 CB          1.1871  -23.3473  -48.5604 C.3       10 UNK        -0.1800 
     24 N           0.7135  -23.6883  -46.1902 N.am      10 UNK        -0.5000 
     25 C           0.5640  -24.7253  -45.3563 C.2       9 UNK         0.5000 
     26 O          -0.0195  -25.7668  -45.6569 O.2       9 UNK        -0.5000 
     27 CA          1.1650  -24.5927  -43.9405 C.3       9 UNK         0.1400 
     28 CB          2.4773  -25.3854  -43.8388 C.3       9 UNK        -0.1800 
     29 N           1.4146  -23.2150  -43.5090 N.am      9 UNK        -0.5000 
     30 C           0.4777  -22.2727  -43.3402 C.2       8 UNK         0.5000 
     31 O          -0.7229  -22.4504  -43.5365 O.2       8 UNK        -0.5000 
     32 CA          0.9684  -20.8737  -42.9300 C.3       8 UNK         0.1400 
     33 CB          1.0376  -20.7757  -41.3994 C.3       8 UNK        -0.1800 
     34 N           2.2486  -20.4535  -43.5146 N.am      8 UNK        -0.5000 
     35 C           2.5753  -20.4892  -44.8174 C.2       7 UNK         0.5000 
     36 O           1.8806  -21.0324  -45.6773 O.2       7 UNK        -0.5000 
     37 CA          3.8770  -19.7808  -45.2274 C.3       7 UNK         0.1400 
     38 CB          3.9021  -19.4098  -46.7218 C.3       7 UNK        -0.1800 
     39 N           4.0500  -18.5689  -44.4315 N.am      7 UNK        -0.5000 
     40 C           5.1733  -18.1984  -43.8055 C.2       6 UNK         0.5000 
     41 O           6.2262  -18.8353  -43.8541 O.2       6 UNK        -0.5000 
     42 CA          5.1131  -16.9014  -42.9735 C.3       6 UNK         0.1400 
     43 CB          5.8185  -15.7544  -43.7135 C.3       6 UNK        -0.1800 
     44 N           3.7449  -16.4936  -42.6359 N.am      6 UNK        -0.5000 
     45 C           2.9749  -17.1201  -41.7319 C.2       5 UNK         0.5000 
     46 O           3.3532  -18.1002  -41.0906 O.2       5 UNK        -0.5000 
     47 CA          1.5436  -16.5900  -41.5105 C.3       5 UNK         0.1400 
     48 CB          1.4733  -15.7557  -40.2231 C.3       5 UNK        -0.1800 
     49 N           1.0354  -15.7874  -42.6213 N.am      5 UNK        -0.5000 
     50 C           0.7089  -16.2614  -43.8309 C.2       4 UNK         0.5000 
     51 O           0.7534  -17.4548  -44.1309 O.2       4 UNK        -0.5000 
     52 CA          0.2640  -15.2242  -44.8815 C.3       4 UNK         0.1400 
     53 CB         -1.2687  -15.1352  -44.9025 C.3       4 UNK        -0.1800 
     54 N           0.8120  -13.8778  -44.6676 N.am      4 UNK        -0.5000 
     55 C           2.1161  -13.5624  -44.6378 C.2       3 UNK         0.5000 
     56 O           3.0114  -14.3977  -44.7666 O.2       3 UNK        -0.5000 
     57 CA          2.4749  -12.0864  -44.3587 C.3       3 UNK         0.1400 
     58 CB          3.8814  -11.7038  -44.8669 C.3       3 UNK        -0.1800 
     59 N           1.4598  -11.1292  -44.8194 N.am      3 UNK        -0.5000 
     60 C           1.1016  -10.8722  -46.0857 C.2       2 UNK         0.5000 
     61 O           1.6074  -11.4087  -47.0747 O.2       2 UNK        -0.5000 
     62 CA          0.0058   -9.8005  -46.2615 C.3       2 UNK         0.1400 
     63 CB          0.6273   -8.3953  -46.2862 C.3       2 UNK        -0.1800 
     64 N          -0.7873   -9.9806  -47.4776 N.am      2 UNK        -0.5000 
     65 C          -1.5454  -11.0455  -47.7658 C.2       1 UNK         0.5000 
     66 O          -1.6923  -11.9926  -46.9935 O.2       1 UNK        -0.5000 
     67 C          -2.3593  -20.1430  -45.6082 C.2       11 UNK         0.5000 
     68 O          -3.3666  -20.8467  -45.6783 O.2       11 UNK        -0.5000 
     69 N          -2.0585  -19.3833  -44.5433 N.am      12 UNK        -0.5000 
     70 CA         -2.9700  -19.0199  -43.4489 C.3       12 UNK         0.1400 
     71 CB         -2.1896  -18.2170  -42.3955 C.3       12 UNK        -0.1800 
     72 C          -3.7655  -20.1493  -42.7598 C.2       12 UNK         0.5000 
     73 O          -4.8652  -19.8787  -42.2748 O.2       12 UNK        -0.5000 
     74 N          -3.2164  -21.3685  -42.7073 N.am      13 UNK        -0.5000 
     75 CA         -3.8115  -22.5163  -42.0226 C.3       13 UNK         0.1400 
     76 CB         -2.8108  -23.0342  -40.9726 C.3       13 UNK        -0.1800 
     77 C          -4.2415  -23.6381  -42.9884 C.2       13 UNK         0.5000 
     78 O          -4.5948  -24.7163  -42.5070 O.2       13 UNK        -0.5000 
     79 N          -4.2154  -23.4018  -44.3095 N.am      14 UNK        -0.5000 
     80 CA         -4.5494  -24.4215  -45.3114 C.3       14 UNK         0.1400 
     81 CB         -3.2709  -25.1452  -45.7594 C.3       14 UNK        -0.1800 
     82 C          -5.3233  -23.8795  -46.5227 C.2       14 UNK         0.5000 
     83 O          -6.2197  -24.5720  -47.0065 O.2       14 UNK        -0.5000 
     84 N          -4.9736  -22.6739  -46.9930 N.am      15 UNK        -0.5000 
     85 CA         -5.4985  -21.9959  -48.1828 C.3       15 UNK         0.1400 
     86 CB         -6.9326  -21.4894  -47.9291 C.3       15 UNK        -0.1800 
     87 C          -5.3717  -22.8505  -49.4623 C.2       15 UNK         0.5000 
     88 O          -6.3632  -23.1041  -50.1514 O.2       15 UNK        -0.5000 
     89 N          -4.1437  -23.3056  -49.7396 N.am      16 UNK        -0.5000 
     90 CA         -3.7726  -24.1971  -50.8378 C.3       16 UNK         0.1400 
     91 CB         -2.4187  -24.8502  -50.5083 C.3       16 UNK        -0.1800 
     92 C          -3.7761  -23.4979  -52.2141 C.2       16 UNK         0.5000 
     93 O          -2.7583  -23.4705  -52.9107 O.2       16 UNK        -0.5000 
     94 N          -4.9408  -22.9714  -52.6097 N.am      17 UNK        -0.5000 
     95 CA         -5.1952  -22.3540  -53.9132 C.3       17 UNK         0.1400 
     96 CB         -6.6055  -21.7479  -53.9199 C.3       17 UNK        -0.1800 
     97 C          -5.0157  -23.3355  -55.0879 C.2       17 UNK         0.5000 
     98 O          -4.5892  -22.9206  -56.1646 O.2       17 UNK        -0.5000 
     99 N          -5.2747  -24.6281  -54.8409 N.am      18 UNK        -0.5000 
    100 CA        -5.0302  -25.7336  -55.7717 C.3       18 UNK         0.1400 
    101 CB        -5.6822  -27.0073  -55.2128 C.3       18 UNK        -0.1800 
    102 C         -3.5333  -25.9770  -56.0592 C.2       18 UNK         0.5000 
    103 O         -3.2000  -26.4861  -57.1295 O.2       18 UNK        -0.5000 
    104 N         -2.6617  -25.5883  -55.1175 N.am      19 UNK        -0.5000 
    105 CA        -1.2033  -25.6051  -55.2571 C.3       19 UNK         0.1400 
    106 CB        -0.5830  -25.9957  -53.9046 C.3       19 UNK        -0.1800 
    107 C         -0.6547  -24.2440  -55.7359 C.2       19 UNK         0.5000 
    108 O          0.5630  -24.0861  -55.8279 O.2       19 UNK        -0.5000 
    109 N         -1.5542  -23.2855  -56.0099 N.am      20 UNK        -0.5000 
    110 CA        -1.3070  -21.8996  -56.4148 C.3       20 UNK         0.1400 
    111 CB        -0.5627  -21.8360  -57.7650 C.3       20 UNK        -0.1800 
    112 C         -0.6414  -21.0360  -55.3229 C.2       20 UNK         0.5000 
    113 O         -0.0938  -19.9794  -55.6438 O.2       20 UNK        -0.5000 
    114 N         -0.7308  -21.4557  -54.0494 N.am      21 UNK        -0.5000 
    115 CA        -0.1735  -20.7317  -52.8997 C.3       21 UNK         0.1400 
    116 CB        -0.3044  -21.5941  -51.6354 C.3       21 UNK        -0.1800 
    117 C         -0.8424  -19.3625  -52.6832 C.2       21 UNK         0.5000 
    118 O         -0.1738  -18.4029  -52.3015 O.2       21 UNK        -0.5000 
    119 N         -2.1450  -19.3051  -52.9775 N.am      22 UNK        -0.5000 
    120 CA        -2.9848  -18.1014  -52.9216 C.3       22 UNK         0.1400 
    121 C         -2.8676  -17.1832  -54.1753 C.2       22 UNK         0.5000 
    122 N         -2.0384  -17.4950  -55.1659 N.am      22 UNK        -0.7600 
    123 O         -3.5396  -16.1586  -54.2511 O.2       22 UNK        -0.5000 
    124 C124       -4.4639  -18.4568  -52.6115 C.3       23 UNK        -0.0398 
    125 S125       -4.6592  -19.5757  -51.1771 S.3       23 UNK        -0.2404 
    126 C126       -5.2213  -18.4297  -49.8741 C.3       23 UNK        -0.0205 
    127 H127       -5.0004   -8.0951  -49.3420 H         1 UNK         0.0600 
    128 H128       -4.0582   -7.1133  -50.4675 H         1 UNK         0.0600 
    129 H129       -3.8994   -6.8592  -48.7261 H         1 UNK         0.0600 
    130 H130       -4.1737  -10.1507  -49.0837 H         1 UNK         0.3000 
    131 H131       -1.4717  -10.8445  -49.8680 H         1 UNK         0.0600 
    132 H132       -3.0776  -12.3577  -50.6215 H         1 UNK         0.0800 
    133 H133       -2.2232  -13.1883  -49.3791 H         1 UNK         0.0800 
    134 H134       -3.4997  -13.7071  -46.8419 H         1 UNK         0.0800 
    135 H135       -5.1257  -14.2705  -47.0442 H         1 UNK         0.0800 
    136 H136       -5.6735  -16.0562  -48.7007 H         1 UNK         0.1150 
    137 H137       -2.4261  -18.6128  -49.8716 H         1 UNK         0.1150 
    138 H138       -1.6336  -14.8880  -47.9237 H         1 UNK         0.1150 
    139 H139        0.1806  -16.2654  -48.4416 H         1 UNK         0.0800 
    140 H140       -0.0720  -16.8228  -50.0749 H         1 UNK         0.0800 
    141 H141       -1.0668  -17.9374  -46.6304 H         1 UNK         0.0800 
    142 H142        0.3088  -18.9089  -46.1681 H         1 UNK         0.0800 
    143 H143       -2.0671  -20.0636  -47.6947 H         1 UNK         0.0600 
    144 H144        0.2943  -21.2615  -46.4110 H         1 UNK         0.3000 
    145 H145       -0.4391  -24.4949  -47.7662 H         1 UNK         0.0600 
    146 H146        0.7604  -23.3183  -49.5622 H         1 UNK         0.0600 
    147 H147        1.9213  -24.1528  -48.5453 H         1 UNK         0.0600 
    148 H148        1.7166  -22.4075  -48.3966 H         1 UNK         0.0600 
    149 H149        1.2100  -22.8685  -45.8573 H         1 UNK         0.3000 
    150 H150        0.4454  -25.0297  -43.2452 H         1 UNK         0.0600 
    151 H151        3.2452  -24.9759  -44.4964 H         1 UNK         0.0600 
    152 H152        2.3273  -26.4289  -44.1195 H         1 UNK         0.0600 
    153 H153        2.8661  -25.3779  -42.8204 H         1 UNK         0.0600 
    154 H154        2.3775  -22.9617  -43.3437 H         1 UNK         0.3000 
    155 H155        0.2231  -20.1594  -43.2777 H         1 UNK         0.0600 
    156 H156        1.8241  -21.4115  -40.9913 H         1 UNK         0.0600 
    157 H157        0.0953  -21.0839  -40.9436 H         1 UNK         0.0600 
    158 H158        1.2299  -19.7558  -41.0732 H         1 UNK         0.0600 
    159 H159        2.8902  -19.9938  -42.8835 H         1 UNK         0.3000 
    160 H160        4.6864  -20.4865  -45.0317 H         1 UNK         0.0600 
    161 H161        3.0806  -18.7408  -46.9817 H         1 UNK         0.0600 
    162 H162        3.8157  -20.2970  -47.3505 H         1 UNK         0.0600 
    163 H163        4.8353  -18.9139  -46.9888 H         1 UNK         0.0600 
    164 H164        3.2240  -17.9950  -44.3194 H         1 UNK         0.3000 
    165 H165        5.6536  -17.0836  -42.0422 H         1 UNK         0.0600 
    166 H166        5.7703  -14.8251  -43.1457 H         1 UNK         0.0600 
    167 H167        6.8727  -15.9847  -43.8721 H         1 UNK         0.0600 
    168 H168        5.3750  -15.5743  -44.6932 H         1 UNK         0.0600 
    169 H169        3.3646  -15.7169  -43.1652 H         1 UNK         0.3000 
    170 H170        0.8863  -17.4529  -41.3926 H         1 UNK         0.0600 
    171 H171        0.4516  -15.4376  -40.0144 H         1 UNK         0.0600 
    172 H172        2.0979  -14.8637  -40.2867 H         1 UNK         0.0600 
    173 H173        1.8134  -16.3342  -39.3630 H         1 UNK         0.0600 
    174 H174        0.9545  -14.7944  -42.4620 H         1 UNK         0.3000 
    175 H175        0.6075  -15.5726  -45.8576 H         1 UNK         0.0600 
    176 H176       -1.7185  -16.0929  -45.1661 H         1 UNK         0.0600 
    177 H177       -1.6685  -14.8403  -43.9315 H         1 UNK         0.0600 
    178 H178       -1.6079  -14.4032  -45.6330 H         1 UNK         0.0600 
    179 H179        0.1401  -13.1308  -44.5672 H         1 UNK         0.3000 
    180 H180        2.4943  -11.9947  -43.2719 H         1 UNK         0.0600 
    181 H181        3.9797  -11.8507  -45.9427 H         1 UNK         0.0600 
    182 H182        4.6493  -12.3111  -44.3861 H         1 UNK         0.0600 
    183 H183        4.1107  -10.6611  -44.6474 H         1 UNK         0.0600 
    184 H184        0.9878  -10.6221  -44.0830 H         1 UNK         0.3000 
    185 H185       -0.6782   -9.8645  -45.4127 H         1 UNK         0.0600 
    186 H186        1.2012   -8.2021  -45.3789 H         1 UNK         0.0600 
    187 H187        1.3023   -8.2708  -47.1341 H         1 UNK         0.0600 
    188 H188       -0.1409   -7.6245  -46.3533 H         1 UNK         0.0600 
    189 H189       -0.7466   -9.2368  -48.1662 H         1 UNK         0.3000 
    190 H190       -1.1845  -18.8754  -44.5523 H         1 UNK         0.3000 
    191 H191       -3.7142  -18.3514  -43.8863 H         1 UNK         0.0600 
    192 H192       -1.8105  -17.2853  -42.8111 H         1 UNK         0.0600 
    193 H193       -2.8259  -17.9486  -41.5509 H         1 UNK         0.0600 
    194 H194       -1.3452  -18.7819  -42.0006 H         1 UNK         0.0600 
    195 H195       -2.3204  -21.5450  -43.1557 H         1 UNK         0.3000 
    196 H196       -4.7147  -22.2167  -41.4882 H         1 UNK         0.0600 
    197 H197       -3.2621  -23.8056  -40.3476 H         1 UNK         0.0600 
    198 H198       -2.4835  -22.2336  -40.3093 H         1 UNK         0.0600 
    199 H199       -1.9256  -23.4691  -41.4361 H         1 UNK         0.0600 
    200 H200       -3.9412  -22.4840  -44.6443 H         1 UNK         0.3000 
    201 H201       -5.2085  -25.1685  -44.8636 H         1 UNK         0.0600 
    202 H202       -3.4812  -25.8792  -46.5383 H         1 UNK         0.0600 
    203 H203       -2.8069  -25.6759  -44.9281 H         1 UNK         0.0600 
    204 H204       -2.5382  -24.4447  -46.1561 H         1 UNK         0.0600 
    205 H205       -4.2277  -22.1635  -46.5254 H         1 UNK         0.3000 
    206 H206       -4.8583  -21.1265  -48.3347 H         1 UNK         0.0600 
    207 H207       -6.9688  -20.8344  -47.0587 H         1 UNK         0.0600 
    208 H208       -7.3010  -20.9180  -48.7819 H         1 UNK         0.0600 
    209 H209       -7.6289  -22.3113  -47.7606 H         1 UNK         0.0600 
    210 H210       -3.3791  -23.0236  -49.1252 H         1 UNK         0.3000 
    211 H211       -4.5153  -24.9957  -50.8865 H         1 UNK         0.0600 
    212 H212       -1.6119  -24.1174  -50.4853 H         1 UNK         0.0600 
    213 H213       -2.1593  -25.6063  -51.2493 H         1 UNK         0.0600 
    214 H214       -2.4456  -25.3459  -49.5377 H         1 UNK         0.0600 
    215 H215       -5.7120  -22.9966  -51.9477 H         1 UNK         0.3000 
    216 H216       -4.4731  -21.5460  -54.0452 H         1 UNK         0.0600 
    217 H217       -7.3715  -22.5102  -53.7728 H         1 UNK         0.0600 
    218 H218       -6.8127  -21.2500  -54.8680 H         1 UNK         0.0600 
    219 H219       -6.7187  -21.0041  -53.1309 H         1 UNK         0.0600 
    220 H220       -5.6282  -24.8753  -53.9283 H         1 UNK         0.3000 
    221 H221       -5.5118  -25.4889  -56.7208 H         1 UNK         0.0600 
    222 H222       -5.2529  -27.2907  -54.2510 H         1 UNK         0.0600 
    223 H223       -6.7556  -26.8743  -55.0765 H         1 UNK         0.0600 
    224 H224       -5.5446  -27.8481  -55.8942 H         1 UNK         0.0600 
    225 H225       -3.0121  -25.1376  -54.2818 H         1 UNK         0.3000 
    226 H226       -0.9089  -26.3552  -55.9937 H         1 UNK         0.0600 
    227 H227       -1.0084  -26.9250  -53.5255 H         1 UNK         0.0600 
    228 H228        0.4929  -26.1469  -53.9987 H         1 UNK         0.0600 
    229 H229       -0.7362  -25.2218  -53.1524 H         1 UNK         0.0600 
    230 H230       -2.5332  -23.5232  -55.9126 H         1 UNK         0.3000 
    231 H231       -2.2922  -21.4589  -56.5715 H         1 UNK         0.0600 
    232 H232        0.4701  -22.1736  -57.6770 H         1 UNK         0.0600 
    233 H233       -0.5386  -20.8162  -58.1508 H         1 UNK         0.0600 
    234 H234       -1.0558  -22.4526  -58.5165 H         1 UNK         0.0600 
    235 H235       -1.2354  -22.3116  -53.8458 H         1 UNK         0.3000 
    236 H236        0.8878  -20.5627  -53.0925 H         1 UNK         0.0600 
    237 H237       -1.3465  -21.7310  -51.3447 H         1 UNK         0.0600 
    238 H238        0.1365  -22.5797  -51.7833 H         1 UNK         0.0600 
    239 H239        0.2062  -21.1265  -50.7924 H         1 UNK         0.0600 
    240 H240       -2.6006  -20.1520  -53.2792 H         1 UNK         0.3000 
    241 H241       -2.6222  -17.4848  -52.0994 H         1 UNK         0.0600 
    242 H242       -1.9761  -16.8835  -55.9646 H         1 UNK         0.3800 
    243 H243       -1.4425  -18.3105  -55.1157 H         1 UNK         0.3800 
    244 H244       -4.9208  -18.9449  -53.4736 H         1 UNK         0.0800 
    245 H245       -5.0442  -17.5491  -52.4383 H         1 UNK         0.0800 
    246 H246       -6.0885  -17.8843  -50.2496 H         1 UNK         0.0800 
    247 H247       -5.5785  -19.0134  -49.0269 H         1 UNK         0.0800 
@<TRIPOS>BOND
     1    1    2 1    
     2    1  127 1    
     3    1  128 1    
     4    1  129 1    
     5    2    3 2    
     6    2    4 am   BACKBONE|DICT|INTERRES
     7    4    5 1    
     8    4  130 1    
     9    5    6 1    
    10    5   65 1    
    11    5  131 1    
    12    6    7 1    
    13    6  132 1    
    14    6  133 1    
    15    7    8 1    
    16    8    9 1    
    17    8  134 1    
    18    8  135 1    
    19    9   10 ar   
    20    9   14 ar   
    21   10   11 ar   
    22   10  136 1    
    23   11   12 ar   
    24   11  126 1    
    25   12   13 ar   
    26   12  137 1    
    27   13   14 ar   
    28   13   15 1    
    29   14  138 1    
    30   15   16 1    
    31   15  139 1    
    32   15  140 1    
    33   16   17 1    
    34   17   18 1    
    35   17  141 1    
    36   17  142 1    
    37   18   19 1    
    38   18   67 1    
    39   18  143 1    
    40   19   20 am   BACKBONE|DICT|INTERRES
    41   19  144 1    
    42   20   21 2    
    43   20   22 1    
    44   22   23 1    
    45   22   24 1    
    46   22  145 1    
    47   23  146 1    
    48   23  147 1    
    49   23  148 1    
    50   24   25 am   BACKBONE|DICT|INTERRES
    51   24  149 1    
    52   25   26 2    
    53   25   27 1    
    54   27   28 1    
    55   27   29 1    
    56   27  150 1    
    57   28  151 1    
    58   28  152 1    
    59   28  153 1    
    60   29   30 am   BACKBONE|DICT|INTERRES
    61   29  154 1    
    62   30   31 2    
    63   30   32 1    
    64   32   33 1    
    65   32   34 1    
    66   32  155 1    
    67   33  156 1    
    68   33  157 1    
    69   33  158 1    
    70   34   35 am   BACKBONE|DICT|INTERRES
    71   34  159 1    
    72   35   36 2    
    73   35   37 1    
    74   37   38 1    
    75   37   39 1    
    76   37  160 1    
    77   38  161 1    
    78   38  162 1    
    79   38  163 1    
    80   39   40 am   BACKBONE|DICT|INTERRES
    81   39  164 1    
    82   40   41 2    
    83   40   42 1    
    84   42   43 1    
    85   42   44 1    
    86   42  165 1    
    87   43  166 1    
    88   43  167 1    
    89   43  168 1    
    90   44   45 am   BACKBONE|DICT|INTERRES
    91   44  169 1    
    92   45   46 2    
    93   45   47 1    
    94   47   48 1    
    95   47   49 1    
    96   47  170 1    
    97   48  171 1    
    98   48  172 1    
    99   48  173 1    
   100   49   50 am   BACKBONE|DICT|INTERRES
   101   49  174 1    
   102   50   51 2    
   103   50   52 1    
   104   52   53 1    
   105   52   54 1    
   106   52  175 1    
   107   53  176 1    
   108   53  177 1    
   109   53  178 1    
   110   54   55 am   BACKBONE|DICT|INTERRES
   111   54  179 1    
   112   55   56 2    
   113   55   57 1    
   114   57   58 1    
   115   57   59 1    
   116   57  180 1    
   117   58  181 1    
   118   58  182 1    
   119   58  183 1    
   120   59   60 am   BACKBONE|DICT|INTERRES
   121   59  184 1    
   122   60   61 2    
   123   60   62 1    
   124   62   63 1    
   125   62   64 1    
   126   62  185 1    
   127   63  186 1    
   128   63  187 1    
   129   63  188 1    
   130   64   65 am   BACKBONE|DICT|INTERRES
   131   64  189 1    
   132   65   66 2    
   133   67   68 2    
   134   67   69 am   BACKBONE|DICT|INTERRES
   135   69   70 1    
   136   69  190 1    
   137   70   71 1    
   138   70   72 1    
   139   70  191 1    
   140   71  192 1    
   141   71  193 1    
   142   71  194 1    
   143   72   73 2    
   144   72   74 am   BACKBONE|DICT|INTERRES
   145   74   75 1    
   146   74  195 1    
   147   75   76 1    
   148   75   77 1    
   149   75  196 1    
   150   76  197 1    
   151   76  198 1    
   152   76  199 1    
   153   77   78 2    
   154   77   79 am   BACKBONE|DICT|INTERRES
   155   79   80 1    
   156   79  200 1    
   157   80   81 1    
   158   80   82 1    
   159   80  201 1    
   160   81  202 1    
   161   81  203 1    
   162   81  204 1    
   163   82   83 2    
   164   82   84 am   BACKBONE|DICT|INTERRES
   165   84   85 1    
   166   84  205 1    
   167   85   86 1    
   168   85   87 1    
   169   85  206 1    
   170   86  207 1    
   171   86  208 1    
   172   86  209 1    
   173   87   88 2    
   174   87   89 am   BACKBONE|DICT|INTERRES
   175   89   90 1    
   176   89  210 1    
   177   90   91 1    
   178   90   92 1    
   179   90  211 1    
   180   91  212 1    
   181   91  213 1    
   182   91  214 1    
   183   92   93 2    
   184   92   94 am   BACKBONE|DICT|INTERRES
   185   94   95 1    
   186   94  215 1    
   187   95   96 1    
   188   95   97 1    
   189   95  216 1    
   190   96  217 1    
   191   96  218 1    
   192   96  219 1    
   193   97   98 2    
   194   97   99 am   BACKBONE|DICT|INTERRES
   195   99  100 1    
   196   99  220 1    
   197  100  101 1    
   198  100  102 1    
   199  100  221 1    
   200  101  222 1    
   201  101  223 1    
   202  101  224 1    
   203  102  103 2    
   204  102  104 am   BACKBONE|DICT|INTERRES
   205  104  105 1    
   206  104  225 1    
   207  105  106 1    
   208  105  107 1    
   209  105  226 1    
   210  106  227 1    
   211  106  228 1    
   212  106  229 1    
   213  107  108 2    
   214  107  109 am   BACKBONE|DICT|INTERRES
   215  109  110 1    
   216  109  230 1    
   217  110  111 1    
   218  110  112 1    
   219  110  231 1    
   220  111  232 1    
   221  111  233 1    
   222  111  234 1    
   223  112  113 2    
   224  112  114 am   BACKBONE|DICT|INTERRES
   225  114  115 1    
   226  114  235 1    
   227  115  116 1    
   228  115  117 1    
   229  115  236 1    
   230  116  237 1    
   231  116  238 1    
   232  116  239 1    
   233  117  118 2    
   234  117  119 am   BACKBONE|DICT|INTERRES
   235  119  120 1    
   236  119  240 1    
   237  120  121 1    
   238  120  124 1    
   239  120  241 1    
   240  121  122 am   BACKBONE|DICT|INTERRES
   241  121  123 2    
   242  122  242 1    
   243  122  243 1    
   244  124  125 1    
   245  124  244 1    
   246  124  245 1    
   247  125  126 1    
   248  126  246 1    
   249  126  247 1    
@<TRIPOS>SUBSTRUCTURE
     1 UNK         1 GROUP             0       ****    0 ROOT    
