@<TRIPOS>MOLECULE
3R540
247   249    1
SMALL
USER_CHARGES


@<TRIPOS>ATOM
      1 CA          0.5938   -7.9725  -50.3238 C.3       0 UNK        -0.1800 
      2 C           1.3133   -9.0622  -49.5413 C.2       0 UNK         0.5000 
      3 O           2.2419   -8.7648  -48.7890 O.2       0 UNK        -0.5000 
      4 N           0.8951  -10.3205  -49.7228 N.am      1 UNK        -0.5000 
      5 CA          1.4286  -11.4985  -49.0295 C.3       1 UNK         0.1400 
      6 C6          0.9622  -12.8191  -49.6879 C.3       23 UNK        -0.0398 
      7 S7          1.4533  -12.9163  -51.4449 S.3       23 UNK        -0.2404 
      8 C8          2.5248  -14.3944  -51.4608 C.3       23 UNK        -0.0205 
      9 C9          1.7992  -15.7134  -51.1959 C.ar      23 UNK        -0.0193 
     10 C10         0.4668  -15.9157  -51.5794 C.ar      23 UNK        -0.1150 
     11 C11        -0.1708  -17.1350  -51.3388 C.ar      23 UNK        -0.0193 
     12 C12         0.5391  -18.1693  -50.7238 C.ar      23 UNK        -0.1150 
     13 C13         1.8724  -17.9897  -50.3482 C.ar      23 UNK        -0.0193 
     14 C14         2.4950  -16.7608  -50.5832 C.ar      23 UNK        -0.1150 
     15 C15         2.6352  -19.1295  -49.6947 C.3       23 UNK        -0.0205 
     16 S16         2.5094  -19.0424  -47.8833 S.3       23 UNK        -0.2404 
     17 C17         2.8169  -20.7831  -47.4152 C.3       23 UNK        -0.0398 
     18 CA          1.5613  -21.6156  -47.0337 C.3       11 UNK         0.1400 
     19 N           1.1058  -21.3844  -45.6533 N.am      11 UNK        -0.5000 
     20 C           0.2210  -22.1787  -45.0268 C.2       10 UNK         0.5000 
     21 O          -0.3219  -23.1368  -45.5767 O.2       10 UNK        -0.5000 
     22 CA         -0.1623  -21.8420  -43.5751 C.3       10 UNK         0.1400 
     23 CB         -0.7428  -23.0512  -42.8107 C.3       10 UNK        -0.1800 
     24 N           0.9019  -21.2014  -42.8060 N.am      10 UNK        -0.5000 
     25 C           2.0646  -21.7257  -42.3944 C.2       9 UNK         0.5000 
     26 O           2.4799  -22.8369  -42.7241 O.2       9 UNK        -0.5000 
     27 CA          2.8860  -20.8664  -41.4083 C.3       9 UNK         0.1400 
     28 CB          4.1342  -20.2870  -42.0886 C.3       9 UNK        -0.1800 
     29 N           2.0889  -19.7796  -40.8231 N.am      9 UNK        -0.5000 
     30 C           1.1804  -19.9607  -39.8519 C.2       8 UNK         0.5000 
     31 O           1.0396  -21.0198  -39.2393 O.2       8 UNK        -0.5000 
     32 CA          0.2227  -18.7903  -39.5656 C.3       8 UNK         0.1400 
     33 CB          0.9314  -17.6275  -38.8567 C.3       8 UNK        -0.1800 
     34 N          -0.4591  -18.3279  -40.7824 N.am      8 UNK        -0.5000 
     35 C          -1.4611  -19.0109  -41.3593 C.2       7 UNK         0.5000 
     36 O          -1.8476  -20.1100  -40.9635 O.2       7 UNK        -0.5000 
     37 CA         -2.1612  -18.3859  -42.5743 C.3       7 UNK         0.1400 
     38 CB         -3.1537  -17.2995  -42.1297 C.3       7 UNK        -0.1800 
     39 N          -1.2201  -17.8164  -43.5368 N.am      7 UNK        -0.5000 
     40 C          -1.0793  -18.2438  -44.7985 C.2       6 UNK         0.5000 
     41 O          -1.6117  -19.2599  -45.2518 O.2       6 UNK        -0.5000 
     42 CA         -0.1958  -17.4007  -45.7313 C.3       6 UNK         0.1400 
     43 CB         -1.0005  -16.2510  -46.3540 C.3       6 UNK        -0.1800 
     44 N           1.0127  -16.8650  -45.1097 N.am      6 UNK        -0.5000 
     45 C           2.0306  -17.6146  -44.6662 C.2       5 UNK         0.5000 
     46 O           1.9820  -18.8395  -44.5450 O.2       5 UNK        -0.5000 
     47 CA          3.3216  -16.8598  -44.3143 C.3       5 UNK         0.1400 
     48 CB          3.9598  -16.2277  -45.5627 C.3       5 UNK        -0.1800 
     49 N           3.0530  -15.8225  -43.3267 N.am      5 UNK        -0.5000 
     50 C           2.9828  -16.0498  -42.0095 C.2       4 UNK         0.5000 
     51 O           3.2130  -17.1415  -41.4920 O.2       4 UNK        -0.5000 
     52 CA          2.5274  -14.8692  -41.1301 C.3       4 UNK         0.1400 
     53 CB          3.7158  -13.9557  -40.7959 C.3       4 UNK        -0.1800 
     54 N           1.4683  -14.0759  -41.7528 N.am      4 UNK        -0.5000 
     55 C           0.2770  -14.5485  -42.1486 C.2       3 UNK         0.5000 
     56 O          -0.0996  -15.7048  -41.9552 O.2       3 UNK        -0.5000 
     57 CA         -0.6154  -13.5830  -42.9509 C.3       3 UNK         0.1400 
     58 CB         -1.6206  -12.8855  -42.0238 C.3       3 UNK        -0.1800 
     59 N           0.1530  -12.5735  -43.6880 N.am      3 UNK        -0.5000 
     60 C           1.0130  -12.8429  -44.6799 C.2       2 UNK         0.5000 
     61 O           1.2307  -13.9779  -45.1123 O.2       2 UNK        -0.5000 
     62 CA          1.8381  -11.6572  -45.2050 C.3       2 UNK         0.1400 
     63 CB          3.2233  -11.6485  -44.5388 C.3       2 UNK        -0.1800 
     64 N           2.0108  -11.7041  -46.6550 N.am      2 UNK        -0.5000 
     65 C           1.0358  -11.4607  -47.5385 C.2       1 UNK         0.5000 
     66 O          -0.1278  -11.1991  -47.2213 O.2       1 UNK        -0.5000 
     67 C           0.4201  -21.5132  -48.0745 C.2       11 UNK         0.5000 
     68 O           0.4855  -22.1763  -49.1106 O.2       11 UNK        -0.5000 
     69 N          -0.6093  -20.7121  -47.7644 N.am      12 UNK        -0.5000 
     70 CA         -1.8548  -20.6505  -48.5163 C.3       12 UNK         0.1400 
     71 CB         -2.3814  -19.2056  -48.5418 C.3       12 UNK        -0.1800 
     72 C          -2.8887  -21.5919  -47.8833 C.2       12 UNK         0.5000 
     73 O          -3.4569  -22.4284  -48.5865 O.2       12 UNK        -0.5000 
     74 N          -3.1174  -21.4176  -46.5733 N.am      13 UNK        -0.5000 
     75 CA         -4.2194  -22.0083  -45.8123 C.3       13 UNK         0.1400 
     76 CB         -4.2391  -21.3918  -44.4059 C.3       13 UNK        -0.1800 
     77 C          -4.2349  -23.5454  -45.7282 C.2       13 UNK         0.5000 
     78 O          -5.3181  -24.1149  -45.5888 O.2       13 UNK        -0.5000 
     79 N          -3.0668  -24.1987  -45.8268 N.am      14 UNK        -0.5000 
     80 CA         -2.9388  -25.6617  -45.7888 C.3       14 UNK         0.1400 
     81 CB         -1.4570  -26.0482  -45.6708 C.3       14 UNK        -0.1800 
     82 C          -3.5839  -26.3796  -46.9922 C.2       14 UNK         0.5000 
     83 O          -3.8870  -27.5694  -46.8931 O.2       14 UNK        -0.5000 
     84 N          -3.7939  -25.6508  -48.0934 N.am      15 UNK        -0.5000 
     85 CA         -4.4674  -26.1171  -49.2975 C.3       15 UNK         0.1400 
     86 CB         -3.4363  -26.7336  -50.2635 C.3       15 UNK        -0.1800 
     87 C          -5.2289  -24.9264  -49.8927 C.2       15 UNK         0.5000 
     88 O          -4.9024  -24.4945  -50.9959 O.2       15 UNK        -0.5000 
     89 N          -6.1777  -24.3915  -49.1089 N.am      16 UNK        -0.5000 
     90 CA         -6.9822  -23.1792  -49.3202 C.3       16 UNK         0.1400 
     91 CB         -8.2574  -23.3082  -48.4685 C.3       16 UNK        -0.1800 
     92 C          -7.3454  -22.8722  -50.7994 C.2       16 UNK         0.5000 
     93 O          -8.2484  -23.5229  -51.3256 O.2       16 UNK        -0.5000 
     94 N          -6.6908  -21.9292  -51.4966 N.am      17 UNK        -0.5000 
     95 CA         -5.5328  -21.1245  -51.1096 C.3       17 UNK         0.1400 
     96 CB         -5.9282  -19.6400  -51.1339 C.3       17 UNK        -0.1800 
     97 C          -4.3820  -21.4123  -52.0838 C.2       17 UNK         0.5000 
     98 O          -4.5056  -21.1140  -53.2739 O.2       17 UNK        -0.5000 
     99 N          -3.2984  -21.9971  -51.5549 N.am      18 UNK        -0.5000 
    100 CA        -2.0595  -22.3769  -52.2459 C.3       18 UNK         0.1400 
    101 CB        -1.3096  -21.1219  -52.7339 C.3       18 UNK        -0.1800 
    102 C         -2.2858  -23.4061  -53.3730 C.2       18 UNK         0.5000 
    103 O         -1.7496  -23.2514  -54.4695 O.2       18 UNK        -0.5000 
    104 N         -3.1170  -24.4201  -53.0956 N.am      19 UNK        -0.5000 
    105 CA        -3.6131  -25.4371  -54.0317 C.3       19 UNK         0.1400 
    106 CB        -2.4704  -26.3337  -54.5517 C.3       19 UNK        -0.1800 
    107 C         -4.4658  -24.8073  -55.1527 C.2       19 UNK         0.5000 
    108 O         -4.3793  -25.2121  -56.3126 O.2       19 UNK        -0.5000 
    109 N         -5.2528  -23.7961  -54.7588 N.am      20 UNK        -0.5000 
    110 CA        -6.1148  -22.9288  -55.5660 C.3       20 UNK         0.1400 
    111 CB        -7.1654  -23.7435  -56.3480 C.3       20 UNK        -0.1800 
    112 C         -5.3613  -21.9274  -56.4672 C.2       20 UNK         0.5000 
    113 O         -6.0179  -21.1784  -57.1928 O.2       20 UNK        -0.5000 
    114 N         -4.0220  -21.8700  -56.3897 N.am      21 UNK        -0.5000 
    115 CA        -3.1897  -20.9380  -57.1588 C.3       21 UNK         0.1400 
    116 CB        -1.7093  -21.3175  -57.0140 C.3       21 UNK        -0.1800 
    117 C         -3.4047  -19.4622  -56.7713 C.2       21 UNK         0.5000 
    118 O         -3.2381  -18.5876  -57.6228 O.2       21 UNK        -0.5000 
    119 N         -3.7977  -19.2177  -55.5153 N.am      22 UNK        -0.5000 
    120 CA        -4.2093  -17.9006  -55.0065 C.3       22 UNK         0.1400 
    121 C         -5.7493  -17.6704  -55.0884 C.2       22 UNK         0.5000 
    122 N         -6.5350  -18.5499  -55.7008 N.am      22 UNK        -0.7600 
    123 O         -6.2479  -16.6594  -54.6015 O.2       22 UNK        -0.5000 
    124 C124       -3.6660  -17.6473  -53.5775 C.3       23 UNK        -0.0398 
    125 S125       -1.8457  -17.5743  -53.5070 S.3       23 UNK        -0.2404 
    126 C126       -1.6319  -17.3161  -51.7210 C.3       23 UNK        -0.0205 
    127 H127        0.1428   -7.2545  -49.6388 H         1 UNK         0.0600 
    128 H128        1.2993   -7.4403  -50.9618 H         1 UNK         0.0600 
    129 H129       -0.1950   -8.3808  -50.9561 H         1 UNK         0.0600 
    130 H130        0.1236  -10.5002  -50.3489 H         1 UNK         0.3000 
    131 H131        2.5180  -11.4559  -49.0996 H         1 UNK         0.0600 
    132 H132       -0.1237  -12.9160  -49.6333 H         1 UNK         0.0800 
    133 H133        1.3691  -13.6769  -49.1491 H         1 UNK         0.0800 
    134 H134        3.3254  -14.2494  -50.7335 H         1 UNK         0.0800 
    135 H135        3.0046  -14.4610  -52.4379 H         1 UNK         0.0800 
    136 H136       -0.0855  -15.1265  -52.0687 H         1 UNK         0.1150 
    137 H137        0.0576  -19.1157  -50.5277 H         1 UNK         0.1150 
    138 H138        3.5266  -16.6234  -50.2904 H         1 UNK         0.1150 
    139 H139        2.2425  -20.0819  -50.0538 H         1 UNK         0.0800 
    140 H140        3.6861  -19.1007  -49.9863 H         1 UNK         0.0800 
    141 H141        3.5242  -20.7865  -46.5848 H         1 UNK         0.0800 
    142 H142        3.3411  -21.2760  -48.2353 H         1 UNK         0.0800 
    143 H143        1.8807  -22.6600  -47.0581 H         1 UNK         0.0600 
    144 H144        1.4873  -20.5742  -45.1696 H         1 UNK         0.3000 
    145 H145       -0.9602  -21.1060  -43.6397 H         1 UNK         0.0600 
    146 H146       -1.0147  -22.7780  -41.7910 H         1 UNK         0.0600 
    147 H147       -1.6454  -23.4270  -43.2935 H         1 UNK         0.0600 
    148 H148       -0.0335  -23.8776  -42.7602 H         1 UNK         0.0600 
    149 H149        0.7099  -20.2579  -42.5038 H         1 UNK         0.3000 
    150 H150        3.2220  -21.5241  -40.6039 H         1 UNK         0.0600 
    151 H151        4.7845  -21.0834  -42.4521 H         1 UNK         0.0600 
    152 H152        4.7171  -19.6794  -41.3962 H         1 UNK         0.0600 
    153 H153        3.8735  -19.6658  -42.9426 H         1 UNK         0.0600 
    154 H154        2.2210  -18.8548  -41.2215 H         1 UNK         0.3000 
    155 H155       -0.5448  -19.1539  -38.8782 H         1 UNK         0.0600 
    156 H156        1.8480  -17.3388  -39.3632 H         1 UNK         0.0600 
    157 H157        1.2091  -17.9132  -37.8416 H         1 UNK         0.0600 
    158 H158        0.2889  -16.7497  -38.7843 H         1 UNK         0.0600 
    159 H159       -0.2092  -17.4114  -41.1442 H         1 UNK         0.3000 
    160 H160       -2.7440  -19.1800  -43.0432 H         1 UNK         0.0600 
    161 H161       -3.7057  -16.9012  -42.9811 H         1 UNK         0.0600 
    162 H162       -2.6531  -16.4657  -41.6370 H         1 UNK         0.0600 
    163 H163       -3.8853  -17.7029  -41.4284 H         1 UNK         0.0600 
    164 H164       -0.7014  -17.0012  -43.2245 H         1 UNK         0.3000 
    165 H165        0.1186  -18.0541  -46.5459 H         1 UNK         0.0600 
    166 H166       -0.4114  -15.7200  -47.1023 H         1 UNK         0.0600 
    167 H167       -1.8976  -16.6214  -46.8511 H         1 UNK         0.0600 
    168 H168       -1.3169  -15.5275  -45.6032 H         1 UNK         0.0600 
    169 H169        1.1322  -15.8559  -45.1544 H         1 UNK         0.3000 
    170 H170        4.0386  -17.5742  -43.9067 H         1 UNK         0.0600 
    171 H171        4.1900  -16.9890  -46.3087 H         1 UNK         0.0600 
    172 H172        4.8950  -15.7264  -45.3133 H         1 UNK         0.0600 
    173 H173        3.3052  -15.4945  -46.0350 H         1 UNK         0.0600 
    174 H174        2.7771  -14.9185  -43.6835 H         1 UNK         0.3000 
    175 H175        2.1324  -15.2675  -40.1959 H         1 UNK         0.0600 
    176 H176        3.4208  -13.1574  -40.1147 H         1 UNK         0.0600 
    177 H177        4.5141  -14.5177  -40.3093 H         1 UNK         0.0600 
    178 H178        4.1365  -13.4957  -41.6910 H         1 UNK         0.0600 
    179 H179        1.6812  -13.1085  -41.9427 H         1 UNK         0.3000 
    180 H180       -1.1752  -14.1780  -43.6741 H         1 UNK         0.0600 
    181 H181       -1.1206  -12.2575  -41.2853 H         1 UNK         0.0600 
    182 H182       -2.2220  -13.6161  -41.4807 H         1 UNK         0.0600 
    183 H183       -2.3088  -12.2573  -42.5896 H         1 UNK         0.0600 
    184 H184        0.0353  -11.6161  -43.3885 H         1 UNK         0.3000 
    185 H185        1.3263  -10.7262  -44.9513 H         1 UNK         0.0600 
    186 H186        3.7866  -12.5550  -44.7659 H         1 UNK         0.0600 
    187 H187        3.8148  -10.7948  -44.8703 H         1 UNK         0.0600 
    188 H188        3.1373  -11.5786  -43.4538 H         1 UNK         0.0600 
    189 H189        2.9348  -11.9370  -46.9879 H         1 UNK         0.3000 
    190 H190       -0.5951  -20.2356  -46.8720 H         1 UNK         0.3000 
    191 H191       -1.6802  -20.9608  -49.5469 H         1 UNK         0.0600 
    192 H192       -2.7489  -18.8772  -47.5703 H         1 UNK         0.0600 
    193 H193       -3.2098  -19.1112  -49.2437 H         1 UNK         0.0600 
    194 H194       -1.6068  -18.5036  -48.8470 H         1 UNK         0.0600 
    195 H195       -2.5898  -20.6970  -46.0894 H         1 UNK         0.3000 
    196 H196       -5.1430  -21.7158  -46.3161 H         1 UNK         0.0600 
    197 H197       -5.0667  -21.7861  -43.8147 H         1 UNK         0.0600 
    198 H198       -4.3644  -20.3101  -44.4546 H         1 UNK         0.0600 
    199 H199       -3.3187  -21.6009  -43.8615 H         1 UNK         0.0600 
    200 H200       -2.2027  -23.6720  -45.9176 H         1 UNK         0.3000 
    201 H201       -3.4504  -26.0168  -44.8920 H         1 UNK         0.0600 
    202 H202       -1.0147  -25.6415  -44.7614 H         1 UNK         0.0600 
    203 H203       -0.8788  -25.6827  -46.5203 H         1 UNK         0.0600 
    204 H204       -1.3346  -27.1313  -45.6314 H         1 UNK         0.0600 
    205 H205       -3.5453  -24.6678  -48.0826 H         1 UNK         0.3000 
    206 H206       -5.2086  -26.8782  -49.0446 H         1 UNK         0.0600 
    207 H207       -2.9440  -27.5963  -49.8147 H         1 UNK         0.0600 
    208 H208       -3.9156  -27.0764  -51.1809 H         1 UNK         0.0600 
    209 H209       -2.6628  -26.0160  -50.5400 H         1 UNK         0.0600 
    210 H210       -6.3201  -24.8354  -48.2130 H         1 UNK         0.3000 
    211 H211       -6.4386  -22.3517  -48.8737 H         1 UNK         0.0600 
    212 H212       -8.8445  -24.1836  -48.7493 H         1 UNK         0.0600 
    213 H213       -8.8968  -22.4321  -48.5847 H         1 UNK         0.0600 
    214 H214       -8.0173  -23.3937  -47.4082 H         1 UNK         0.0600 
    215 H215       -6.9664  -21.7951  -52.4577 H         1 UNK         0.3000 
    216 H216       -5.1757  -21.3465  -50.1103 H         1 UNK         0.0600 
    217 H217       -5.0880  -19.0058  -50.8508 H         1 UNK         0.0600 
    218 H218       -6.7351  -19.4386  -50.4292 H         1 UNK         0.0600 
    219 H219       -6.2647  -19.3246  -52.1227 H         1 UNK         0.0600 
    220 H220       -3.3486  -22.2764  -50.5798 H         1 UNK         0.3000 
    221 H221       -1.4313  -22.8690  -51.5018 H         1 UNK         0.0600 
    222 H222       -1.8433  -20.6206  -53.5415 H         1 UNK         0.0600 
    223 H223       -1.1781  -20.4048  -51.9272 H         1 UNK         0.0600 
    224 H224       -0.3174  -21.3772  -53.1073 H         1 UNK         0.0600 
    225 H225       -3.5867  -24.4165  -52.1907 H         1 UNK         0.3000 
    226 H226       -4.2913  -26.0712  -53.4592 H         1 UNK         0.0600 
    227 H227       -1.8922  -26.7508  -53.7273 H         1 UNK         0.0600 
    228 H228       -2.8656  -27.1715  -55.1272 H         1 UNK         0.0600 
    229 H229       -1.7855  -25.7885  -55.2013 H         1 UNK         0.0600 
    230 H230       -5.1905  -23.5349  -53.7844 H         1 UNK         0.3000 
    231 H231       -6.6571  -22.3150  -54.8457 H         1 UNK         0.0600 
    232 H232       -7.6978  -24.4334  -55.6933 H         1 UNK         0.0600 
    233 H233       -6.7152  -24.3226  -57.1544 H         1 UNK         0.0600 
    234 H234       -7.9105  -23.0875  -56.7995 H         1 UNK         0.0600 
    235 H235       -3.5396  -22.4843  -55.7464 H         1 UNK         0.3000 
    236 H236       -3.4628  -21.0456  -58.2106 H         1 UNK         0.0600 
    237 H237       -1.0886  -20.7197  -57.6823 H         1 UNK         0.0600 
    238 H238       -1.3490  -21.1472  -55.9991 H         1 UNK         0.0600 
    239 H239       -1.5403  -22.3656  -57.2618 H         1 UNK         0.0600 
    240 H240       -3.9348  -19.9972  -54.8793 H         1 UNK         0.3000 
    241 H241       -3.7813  -17.1257  -55.6446 H         1 UNK         0.0600 
    242 H242       -7.5254  -18.3706  -55.7479 H         1 UNK         0.3800 
    243 H243       -6.1561  -19.3697  -56.1578 H         1 UNK         0.3800 
    244 H244       -4.0445  -16.7038  -53.1806 H         1 UNK         0.0800 
    245 H245       -4.0101  -18.4280  -52.9013 H         1 UNK         0.0800 
    246 H246       -2.0632  -18.1664  -51.1941 H         1 UNK         0.0800 
    247 H247       -2.1978  -16.4374  -51.4080 H         1 UNK         0.0800 
@<TRIPOS>BOND
     1    1    2 1    
     2    1  127 1    
     3    1  128 1    
     4    1  129 1    
     5    2    3 2    
     6    2    4 am   BACKBONE|DICT|INTERRES
     7    4    5 1    
     8    4  130 1    
     9    5    6 1    
    10    5   65 1    
    11    5  131 1    
    12    6    7 1    
    13    6  132 1    
    14    6  133 1    
    15    7    8 1    
    16    8    9 1    
    17    8  134 1    
    18    8  135 1    
    19    9   10 ar   
    20    9   14 ar   
    21   10   11 ar   
    22   10  136 1    
    23   11   12 ar   
    24   11  126 1    
    25   12   13 ar   
    26   12  137 1    
    27   13   14 ar   
    28   13   15 1    
    29   14  138 1    
    30   15   16 1    
    31   15  139 1    
    32   15  140 1    
    33   16   17 1    
    34   17   18 1    
    35   17  141 1    
    36   17  142 1    
    37   18   19 1    
    38   18   67 1    
    39   18  143 1    
    40   19   20 am   BACKBONE|DICT|INTERRES
    41   19  144 1    
    42   20   21 2    
    43   20   22 1    
    44   22   23 1    
    45   22   24 1    
    46   22  145 1    
    47   23  146 1    
    48   23  147 1    
    49   23  148 1    
    50   24   25 am   BACKBONE|DICT|INTERRES
    51   24  149 1    
    52   25   26 2    
    53   25   27 1    
    54   27   28 1    
    55   27   29 1    
    56   27  150 1    
    57   28  151 1    
    58   28  152 1    
    59   28  153 1    
    60   29   30 am   BACKBONE|DICT|INTERRES
    61   29  154 1    
    62   30   31 2    
    63   30   32 1    
    64   32   33 1    
    65   32   34 1    
    66   32  155 1    
    67   33  156 1    
    68   33  157 1    
    69   33  158 1    
    70   34   35 am   BACKBONE|DICT|INTERRES
    71   34  159 1    
    72   35   36 2    
    73   35   37 1    
    74   37   38 1    
    75   37   39 1    
    76   37  160 1    
    77   38  161 1    
    78   38  162 1    
    79   38  163 1    
    80   39   40 am   BACKBONE|DICT|INTERRES
    81   39  164 1    
    82   40   41 2    
    83   40   42 1    
    84   42   43 1    
    85   42   44 1    
    86   42  165 1    
    87   43  166 1    
    88   43  167 1    
    89   43  168 1    
    90   44   45 am   BACKBONE|DICT|INTERRES
    91   44  169 1    
    92   45   46 2    
    93   45   47 1    
    94   47   48 1    
    95   47   49 1    
    96   47  170 1    
    97   48  171 1    
    98   48  172 1    
    99   48  173 1    
   100   49   50 am   BACKBONE|DICT|INTERRES
   101   49  174 1    
   102   50   51 2    
   103   50   52 1    
   104   52   53 1    
   105   52   54 1    
   106   52  175 1    
   107   53  176 1    
   108   53  177 1    
   109   53  178 1    
   110   54   55 am   BACKBONE|DICT|INTERRES
   111   54  179 1    
   112   55   56 2    
   113   55   57 1    
   114   57   58 1    
   115   57   59 1    
   116   57  180 1    
   117   58  181 1    
   118   58  182 1    
   119   58  183 1    
   120   59   60 am   BACKBONE|DICT|INTERRES
   121   59  184 1    
   122   60   61 2    
   123   60   62 1    
   124   62   63 1    
   125   62   64 1    
   126   62  185 1    
   127   63  186 1    
   128   63  187 1    
   129   63  188 1    
   130   64   65 am   BACKBONE|DICT|INTERRES
   131   64  189 1    
   132   65   66 2    
   133   67   68 2    
   134   67   69 am   BACKBONE|DICT|INTERRES
   135   69   70 1    
   136   69  190 1    
   137   70   71 1    
   138   70   72 1    
   139   70  191 1    
   140   71  192 1    
   141   71  193 1    
   142   71  194 1    
   143   72   73 2    
   144   72   74 am   BACKBONE|DICT|INTERRES
   145   74   75 1    
   146   74  195 1    
   147   75   76 1    
   148   75   77 1    
   149   75  196 1    
   150   76  197 1    
   151   76  198 1    
   152   76  199 1    
   153   77   78 2    
   154   77   79 am   BACKBONE|DICT|INTERRES
   155   79   80 1    
   156   79  200 1    
   157   80   81 1    
   158   80   82 1    
   159   80  201 1    
   160   81  202 1    
   161   81  203 1    
   162   81  204 1    
   163   82   83 2    
   164   82   84 am   BACKBONE|DICT|INTERRES
   165   84   85 1    
   166   84  205 1    
   167   85   86 1    
   168   85   87 1    
   169   85  206 1    
   170   86  207 1    
   171   86  208 1    
   172   86  209 1    
   173   87   88 2    
   174   87   89 am   BACKBONE|DICT|INTERRES
   175   89   90 1    
   176   89  210 1    
   177   90   91 1    
   178   90   92 1    
   179   90  211 1    
   180   91  212 1    
   181   91  213 1    
   182   91  214 1    
   183   92   93 2    
   184   92   94 am   BACKBONE|DICT|INTERRES
   185   94   95 1    
   186   94  215 1    
   187   95   96 1    
   188   95   97 1    
   189   95  216 1    
   190   96  217 1    
   191   96  218 1    
   192   96  219 1    
   193   97   98 2    
   194   97   99 am   BACKBONE|DICT|INTERRES
   195   99  100 1    
   196   99  220 1    
   197  100  101 1    
   198  100  102 1    
   199  100  221 1    
   200  101  222 1    
   201  101  223 1    
   202  101  224 1    
   203  102  103 2    
   204  102  104 am   BACKBONE|DICT|INTERRES
   205  104  105 1    
   206  104  225 1    
   207  105  106 1    
   208  105  107 1    
   209  105  226 1    
   210  106  227 1    
   211  106  228 1    
   212  106  229 1    
   213  107  108 2    
   214  107  109 am   BACKBONE|DICT|INTERRES
   215  109  110 1    
   216  109  230 1    
   217  110  111 1    
   218  110  112 1    
   219  110  231 1    
   220  111  232 1    
   221  111  233 1    
   222  111  234 1    
   223  112  113 2    
   224  112  114 am   BACKBONE|DICT|INTERRES
   225  114  115 1    
   226  114  235 1    
   227  115  116 1    
   228  115  117 1    
   229  115  236 1    
   230  116  237 1    
   231  116  238 1    
   232  116  239 1    
   233  117  118 2    
   234  117  119 am   BACKBONE|DICT|INTERRES
   235  119  120 1    
   236  119  240 1    
   237  120  121 1    
   238  120  124 1    
   239  120  241 1    
   240  121  122 am   BACKBONE|DICT|INTERRES
   241  121  123 2    
   242  122  242 1    
   243  122  243 1    
   244  124  125 1    
   245  124  244 1    
   246  124  245 1    
   247  125  126 1    
   248  126  246 1    
   249  126  247 1    
@<TRIPOS>SUBSTRUCTURE
     1 UNK         1 GROUP             0       ****    0 ROOT    
