@<TRIPOS>MOLECULE
3R540
247   249    1
SMALL
USER_CHARGES


@<TRIPOS>ATOM
      1 CA          5.5349  -18.9462  -45.5333 C.3       0 UNK        -0.1800 
      2 C           4.6502  -20.1185  -45.1320 C.2       0 UNK         0.5000 
      3 O           4.7128  -20.5747  -43.9906 O.2       0 UNK        -0.5000 
      4 N           3.8427  -20.6199  -46.0715 N.am      1 UNK        -0.5000 
      5 CA          3.0303  -21.8274  -45.9148 C.3       1 UNK         0.1400 
      6 C6          2.9355  -22.6333  -47.2346 C.3       23 UNK        -0.0398 
      7 S7          4.5764  -23.1675  -47.8308 S.3       23 UNK        -0.2404 
      8 C8          4.1705  -23.8633  -49.4711 C.3       23 UNK        -0.0205 
      9 C9          3.7258  -22.8617  -50.5401 C.ar      23 UNK        -0.0193 
     10 C10         3.0700  -23.3517  -51.6749 C.ar      23 UNK        -0.1150 
     11 C11         2.6270  -22.4900  -52.6838 C.ar      23 UNK        -0.0193 
     12 C12         2.8684  -21.1198  -52.5580 C.ar      23 UNK        -0.1150 
     13 C13         3.5099  -20.6090  -51.4294 C.ar      23 UNK        -0.0193 
     14 C14         3.9543  -21.4830  -50.4340 C.ar      23 UNK        -0.1150 
     15 C15         3.6880  -19.1066  -51.2789 C.3       23 UNK        -0.0205 
     16 S16         2.1413  -18.3127  -50.7331 S.3       23 UNK        -0.2404 
     17 C17         2.0039  -18.9709  -49.0365 C.3       23 UNK        -0.0398 
     18 CA          0.9347  -18.3224  -48.1169 C.3       11 UNK         0.1400 
     19 N           1.0404  -16.8587  -47.9943 N.am      11 UNK        -0.5000 
     20 C           0.4412  -15.9036  -48.7285 C.2       10 UNK         0.5000 
     21 O          -0.2063  -16.1233  -49.7525 O.2       10 UNK        -0.5000 
     22 CA          0.5286  -14.4518  -48.2116 C.3       10 UNK         0.1400 
     23 CB         -0.8803  -13.8800  -47.9753 C.3       10 UNK        -0.1800 
     24 N           1.2661  -14.3552  -46.9525 N.am      10 UNK        -0.5000 
     25 C           2.5020  -13.8605  -46.8096 C.2       9 UNK         0.5000 
     26 O           3.1518  -13.3614  -47.7289 O.2       9 UNK        -0.5000 
     27 CA          3.1322  -13.9569  -45.4033 C.3       9 UNK         0.1400 
     28 CB          2.9433  -12.6365  -44.6411 C.3       9 UNK        -0.1800 
     29 N           2.6053  -15.0531  -44.5853 N.am      9 UNK        -0.5000 
     30 C           2.6546  -16.3528  -44.9081 C.2       8 UNK         0.5000 
     31 O           3.1754  -16.7871  -45.9340 O.2       8 UNK        -0.5000 
     32 CA          1.9227  -17.3235  -43.9737 C.3       8 UNK         0.1400 
     33 CB          2.8203  -17.7314  -42.7978 C.3       8 UNK        -0.1800 
     34 N           0.6702  -16.7733  -43.4581 N.am      8 UNK        -0.5000 
     35 C          -0.4115  -16.4613  -44.1846 C.2       7 UNK         0.5000 
     36 O          -0.4678  -16.5604  -45.4096 O.2       7 UNK        -0.5000 
     37 CA         -1.6313  -15.9413  -43.4075 C.3       7 UNK         0.1400 
     38 CB         -2.4421  -17.1029  -42.8110 C.3       7 UNK        -0.1800 
     39 N          -1.2319  -15.0339  -42.3350 N.am      7 UNK        -0.5000 
     40 C          -0.8516  -13.7633  -42.5215 C.2       6 UNK         0.5000 
     41 O          -0.8723  -13.1932  -43.6125 O.2       6 UNK        -0.5000 
     42 CA         -0.3379  -13.0134  -41.2784 C.3       6 UNK         0.1400 
     43 CB         -1.5029  -12.3539  -40.5251 C.3       6 UNK        -0.1800 
     44 N           0.4051  -13.8772  -40.3572 N.am      6 UNK        -0.5000 
     45 C           1.5924  -14.4332  -40.6350 C.2       5 UNK         0.5000 
     46 O           2.1863  -14.2822  -41.7033 O.2       5 UNK        -0.5000 
     47 CA          2.1991  -15.3405  -39.5477 C.3       5 UNK         0.1400 
     48 CB          2.9304  -14.4978  -38.4920 C.3       5 UNK        -0.1800 
     49 N           1.2314  -16.2204  -38.8814 N.am      5 UNK        -0.5000 
     50 C           0.4646  -17.1302  -39.4967 C.2       4 UNK         0.5000 
     51 O           0.3898  -17.2514  -40.7197 O.2       4 UNK        -0.5000 
     52 CA         -0.3922  -18.0365  -38.6064 C.3       4 UNK         0.1400 
     53 CB         -1.8227  -17.4829  -38.5117 C.3       4 UNK        -0.1800 
     54 N          -0.4383  -19.3746  -39.1959 N.am      4 UNK        -0.5000 
     55 C           0.0483  -20.4861  -38.6297 C.2       3 UNK         0.5000 
     56 O           0.5769  -20.5097  -37.5171 O.2       3 UNK        -0.5000 
     57 CA         -0.0877  -21.8045  -39.4185 C.3       3 UNK         0.1400 
     58 CB         -1.2802  -22.6172  -38.8895 C.3       3 UNK        -0.1800 
     59 N          -0.2524  -21.6178  -40.8629 N.am      3 UNK        -0.5000 
     60 C           0.7544  -21.4058  -41.7195 C.2       2 UNK         0.5000 
     61 O           1.9377  -21.3169  -41.3823 O.2       2 UNK        -0.5000 
     62 CA          0.3646  -21.2739  -43.2010 C.3       2 UNK         0.1400 
     63 CB         -0.4627  -19.9973  -43.4333 C.3       2 UNK        -0.1800 
     64 N           1.5774  -21.3039  -44.0185 N.am      2 UNK        -0.5000 
     65 C           1.6418  -21.4742  -45.3449 C.2       1 UNK         0.5000 
     66 O           0.6739  -21.3727  -46.1034 O.2       1 UNK        -0.5000 
     67 C          -0.5142  -18.8271  -48.3214 C.2       11 UNK         0.5000 
     68 O          -0.7804  -19.6901  -49.1613 O.2       11 UNK        -0.5000 
     69 N          -1.4348  -18.2412  -47.5414 N.am      12 UNK        -0.5000 
     70 CA         -2.8811  -18.3480  -47.7161 C.3       12 UNK         0.1400 
     71 CB         -3.5792  -17.3497  -46.7828 C.3       12 UNK        -0.1800 
     72 C          -3.4504  -19.7619  -47.5190 C.2       12 UNK         0.5000 
     73 O          -4.4698  -20.0776  -48.1324 O.2       12 UNK        -0.5000 
     74 N          -2.7973  -20.5911  -46.6921 N.am      13 UNK        -0.5000 
     75 CA         -3.2085  -21.9771  -46.4613 C.3       13 UNK         0.1400 
     76 CB         -2.5478  -22.5251  -45.1908 C.3       13 UNK        -0.1800 
     77 C          -2.8959  -22.8735  -47.6701 C.2       13 UNK         0.5000 
     78 O          -3.7414  -23.6805  -48.0559 O.2       13 UNK        -0.5000 
     79 N          -1.7144  -22.6842  -48.2762 N.am      14 UNK        -0.5000 
     80 CA         -1.3030  -23.3750  -49.5013 C.3       14 UNK         0.1400 
     81 CB          0.1937  -23.1555  -49.7471 C.3       14 UNK        -0.1800 
     82 C          -2.1267  -22.9392  -50.7255 C.2       14 UNK         0.5000 
     83 O          -2.4760  -23.7793  -51.5540 O.2       14 UNK        -0.5000 
     84 N          -2.4674  -21.6446  -50.7795 N.am      15 UNK        -0.5000 
     85 CA         -3.3612  -21.0550  -51.7766 C.3       15 UNK         0.1400 
     86 CB         -3.1661  -19.5306  -51.7586 C.3       15 UNK        -0.1800 
     87 C          -4.8500  -21.4064  -51.5627 C.2       15 UNK         0.5000 
     88 O          -5.6697  -21.0701  -52.4182 O.2       15 UNK        -0.5000 
     89 N          -5.1872  -22.0236  -50.4196 N.am      16 UNK        -0.5000 
     90 CA         -6.5303  -22.4043  -49.9693 C.3       16 UNK         0.1400 
     91 CB         -7.0789  -23.5560  -50.8366 C.3       16 UNK        -0.1800 
     92 C          -7.4893  -21.1980  -49.9011 C.2       16 UNK         0.5000 
     93 O          -8.5976  -21.2569  -50.4322 O.2       16 UNK        -0.5000 
     94 N          -7.0131  -20.0939  -49.3069 N.am      17 UNK        -0.5000 
     95 CA         -7.6671  -18.7791  -49.2453 C.3       17 UNK         0.1400 
     96 CB         -8.9257  -18.8314  -48.3547 C.3       17 UNK        -0.1800 
     97 C          -7.9385  -18.1843  -50.6469 C.2       17 UNK         0.5000 
     98 O          -8.9553  -17.5226  -50.8593 O.2       17 UNK        -0.5000 
     99 N          -7.0120  -18.4623  -51.5753 N.am      18 UNK        -0.5000 
    100 CA        -7.0054  -18.1234  -53.0011 C.3       18 UNK         0.1400 
    101 CB        -7.1263  -16.6030  -53.2314 C.3       18 UNK        -0.1800 
    102 C         -7.9962  -18.9388  -53.8595 C.2       18 UNK         0.5000 
    103 O         -8.1499  -18.6299  -55.0422 O.2       18 UNK        -0.5000 
    104 N         -8.6171  -19.9876  -53.2966 N.am      19 UNK        -0.5000 
    105 CA        -9.4805  -20.9155  -54.0354 C.3       19 UNK         0.1400 
    106 CB       -10.3673  -21.6946  -53.0529 C.3       19 UNK        -0.1800 
    107 C         -8.6862  -21.8908  -54.9272 C.2       19 UNK         0.5000 
    108 O         -9.2430  -22.4117  -55.8945 O.2       19 UNK        -0.5000 
    109 N         -7.4080  -22.1131  -54.5991 N.am      20 UNK        -0.5000 
    110 CA        -6.4674  -22.9421  -55.3465 C.3       20 UNK         0.1400 
    111 CB        -6.4038  -24.3456  -54.7152 C.3       20 UNK        -0.1800 
    112 C         -5.1108  -22.2211  -55.3695 C.2       20 UNK         0.5000 
    113 O         -4.0968  -22.7911  -54.9644 O.2       20 UNK        -0.5000 
    114 N         -5.1432  -20.9451  -55.7819 N.am      21 UNK        -0.5000 
    115 CA        -4.0206  -20.0084  -55.7586 C.3       21 UNK         0.1400 
    116 CB        -4.4913  -18.6482  -56.2965 C.3       21 UNK        -0.1800 
    117 C         -2.7866  -20.5009  -56.5377 C.2       21 UNK         0.5000 
    118 O         -2.9225  -21.0168  -57.6497 O.2       21 UNK        -0.5000 
    119 N         -1.6094  -20.3037  -55.9365 N.am      22 UNK        -0.5000 
    120 CA        -0.3008  -20.7032  -56.4790 C.3       22 UNK         0.1400 
    121 C          0.2542  -19.7621  -57.5903 C.2       22 UNK         0.5000 
    122 N         -0.3526  -18.6131  -57.8625 N.am      22 UNK        -0.7600 
    123 O          1.2535  -20.0865  -58.2260 O.2       22 UNK        -0.5000 
    124 C124        0.7341  -20.8851  -55.3393 C.3       23 UNK        -0.0398 
    125 S125        0.2817  -22.2393  -54.1944 S.3       23 UNK        -0.2404 
    126 C126        1.8932  -23.0490  -53.8994 C.3       23 UNK        -0.0205 
    127 H127        5.4319  -18.1264  -44.8234 H         1 UNK         0.0600 
    128 H128        5.2808  -18.5685  -46.5241 H         1 UNK         0.0600 
    129 H129        6.5799  -19.2552  -45.5449 H         1 UNK         0.0600 
    130 H130        3.8352  -20.2014  -46.9881 H         1 UNK         0.3000 
    131 H131        3.5102  -22.4871  -45.1878 H         1 UNK         0.0600 
    132 H132        2.3248  -23.5259  -47.0888 H         1 UNK         0.0800 
    133 H133        2.4477  -22.0456  -48.0118 H         1 UNK         0.0800 
    134 H134        3.3976  -24.6220  -49.3381 H         1 UNK         0.0800 
    135 H135        5.0522  -24.3856  -49.8444 H         1 UNK         0.0800 
    136 H136        2.8922  -24.4142  -51.7661 H         1 UNK         0.1150 
    137 H137        2.5350  -20.4375  -53.3239 H         1 UNK         0.1150 
    138 H138        4.4625  -21.0765  -49.5726 H         1 UNK         0.1150 
    139 H139        4.4901  -18.8768  -50.5759 H         1 UNK         0.0800 
    140 H140        3.9881  -18.6772  -52.2358 H         1 UNK         0.0800 
    141 H141        2.9792  -18.8445  -48.5658 H         1 UNK         0.0800 
    142 H142        1.8425  -20.0472  -49.0974 H         1 UNK         0.0800 
    143 H143        1.1745  -18.6800  -47.1141 H         1 UNK         0.0600 
    144 H144        1.5928  -16.5495  -47.2042 H         1 UNK         0.3000 
    145 H145        1.0141  -13.8593  -48.9894 H         1 UNK         0.0600 
    146 H146       -0.8331  -12.8466  -47.6314 H         1 UNK         0.0600 
    147 H147       -1.4702  -13.8887  -48.8926 H         1 UNK         0.0600 
    148 H148       -1.4260  -14.4565  -47.2270 H         1 UNK         0.0600 
    149 H149        0.8095  -14.7575  -46.1439 H         1 UNK         0.3000 
    150 H150        4.2021  -14.1289  -45.5360 H         1 UNK         0.0600 
    151 H151        3.3352  -11.7934  -45.2116 H         1 UNK         0.0600 
    152 H152        3.4686  -12.6542  -43.6860 H         1 UNK         0.0600 
    153 H153        1.8897  -12.4380  -44.4395 H         1 UNK         0.0600 
    154 H154        2.1935  -14.7946  -43.6940 H         1 UNK         0.3000 
    155 H155        1.6855  -18.2202  -44.5495 H         1 UNK         0.0600 
    156 H156        3.0493  -16.8815  -42.1576 H         1 UNK         0.0600 
    157 H157        3.7693  -18.1371  -43.1422 H         1 UNK         0.0600 
    158 H158        2.3467  -18.4985  -42.1851 H         1 UNK         0.0600 
    159 H159        0.5967  -16.7233  -42.4444 H         1 UNK         0.3000 
    160 H160       -2.2712  -15.4047  -44.1114 H         1 UNK         0.0600 
    161 H161       -3.3706  -16.7442  -42.3669 H         1 UNK         0.0600 
    162 H162       -1.8870  -17.6315  -42.0367 H         1 UNK         0.0600 
    163 H163       -2.7080  -17.8353  -43.5725 H         1 UNK         0.0600 
    164 H164       -1.1340  -15.4357  -41.4140 H         1 UNK         0.3000 
    165 H165        0.3362  -12.2260  -41.6228 H         1 UNK         0.0600 
    166 H166       -1.1428  -11.7553  -39.6882 H         1 UNK         0.0600 
    167 H167       -2.0646  -11.6878  -41.1815 H         1 UNK         0.0600 
    168 H168       -2.2011  -13.0946  -40.1334 H         1 UNK         0.0600 
    169 H169       -0.0148  -14.0591  -39.4575 H         1 UNK         0.3000 
    170 H170        2.9387  -15.9807  -40.0307 H         1 UNK         0.0600 
    171 H171        3.6707  -13.8451  -38.9570 H         1 UNK         0.0600 
    172 H172        2.2409  -13.8652  -37.9316 H         1 UNK         0.0600 
    173 H173        3.4604  -15.1304  -37.7797 H         1 UNK         0.0600 
    174 H174        1.2114  -16.1726  -37.8729 H         1 UNK         0.3000 
    175 H175        0.0424  -18.0623  -37.6051 H         1 UNK         0.0600 
    176 H176       -2.2986  -17.4188  -39.4912 H         1 UNK         0.0600 
    177 H177       -2.4460  -18.1152  -37.8793 H         1 UNK         0.0600 
    178 H178       -1.8283  -16.4827  -38.0768 H         1 UNK         0.0600 
    179 H179       -0.7783  -19.4229  -40.1451 H         1 UNK         0.3000 
    180 H180        0.8196  -22.3859  -39.2399 H         1 UNK         0.0600 
    181 H181       -2.2246  -22.0933  -39.0423 H         1 UNK         0.0600 
    182 H182       -1.1804  -22.8080  -37.8201 H         1 UNK         0.0600 
    183 H183       -1.3485  -23.5859  -39.3849 H         1 UNK         0.0600 
    184 H184       -1.1960  -21.6831  -41.2166 H         1 UNK         0.3000 
    185 H185       -0.2299  -22.1491  -43.4629 H         1 UNK         0.0600 
    186 H186       -1.4857  -20.1309  -43.0819 H         1 UNK         0.0600 
    187 H187       -0.0446  -19.1666  -42.8712 H         1 UNK         0.0600 
    188 H188       -0.5180  -19.7075  -44.4817 H         1 UNK         0.0600 
    189 H189        2.4316  -21.3402  -43.4707 H         1 UNK         0.3000 
    190 H190       -1.1122  -17.5637  -46.8538 H         1 UNK         0.3000 
    191 H191       -3.1016  -18.0501  -48.7421 H         1 UNK         0.0600 
    192 H192       -4.6593  -17.3603  -46.9352 H         1 UNK         0.0600 
    193 H193       -3.2351  -16.3313  -46.9642 H         1 UNK         0.0600 
    194 H194       -3.3934  -17.5848  -45.7362 H         1 UNK         0.0600 
    195 H195       -1.9430  -20.2779  -46.2545 H         1 UNK         0.3000 
    196 H196       -4.2895  -21.9906  -46.3040 H         1 UNK         0.0600 
    197 H197       -2.9370  -23.5149  -44.9495 H         1 UNK         0.0600 
    198 H198       -2.7411  -21.8820  -44.3328 H         1 UNK         0.0600 
    199 H199       -1.4709  -22.6239  -45.3141 H         1 UNK         0.0600 
    200 H200       -1.0826  -21.9844  -47.9095 H         1 UNK         0.3000 
    201 H201       -1.4662  -24.4454  -49.3584 H         1 UNK         0.0600 
    202 H202        0.5008  -23.6397  -50.6740 H         1 UNK         0.0600 
    203 H203        0.7881  -23.5885  -48.9448 H         1 UNK         0.0600 
    204 H204        0.4456  -22.0977  -49.8305 H         1 UNK         0.0600 
    205 H205       -2.0755  -21.0143  -50.0868 H         1 UNK         0.3000 
    206 H206       -3.0738  -21.4291  -52.7611 H         1 UNK         0.0600 
    207 H207       -2.1264  -19.2632  -51.9501 H         1 UNK         0.0600 
    208 H208       -3.7736  -19.0401  -52.5185 H         1 UNK         0.0600 
    209 H209       -3.4474  -19.1059  -50.7957 H         1 UNK         0.0600 
    210 H210       -4.4436  -22.2316  -49.7671 H         1 UNK         0.3000 
    211 H211       -6.4224  -22.7746  -48.9490 H         1 UNK         0.0600 
    212 H212       -6.3795  -24.3913  -50.8714 H         1 UNK         0.0600 
    213 H213       -7.2703  -23.2356  -51.8607 H         1 UNK         0.0600 
    214 H214       -8.0187  -23.9344  -50.4333 H         1 UNK         0.0600 
    215 H215       -6.0778  -20.1368  -48.9011 H         1 UNK         0.3000 
    216 H216       -6.9529  -18.1084  -48.7654 H         1 UNK         0.0600 
    217 H217       -9.3311  -17.8321  -48.1924 H         1 UNK         0.0600 
    218 H218       -8.6972  -19.2508  -47.3750 H         1 UNK         0.0600 
    219 H219       -9.7157  -19.4349  -48.8024 H         1 UNK         0.0600 
    220 H220       -6.2623  -19.0780  -51.2931 H         1 UNK         0.3000 
    221 H221       -6.0172  -18.4182  -53.3548 H         1 UNK         0.0600 
    222 H222       -8.1250  -16.2336  -52.9982 H         1 UNK         0.0600 
    223 H223       -6.4110  -16.0524  -52.6205 H         1 UNK         0.0600 
    224 H224       -6.9236  -16.3491  -54.2725 H         1 UNK         0.0600 
    225 H225       -8.4450  -20.2062  -52.3220 H         1 UNK         0.3000 
    226 H226      -10.1359  -20.3308  -54.6844 H         1 UNK         0.0600 
    227 H227      -11.1195  -22.2755  -53.5878 H         1 UNK         0.0600 
    228 H228       -9.7852  -22.3948  -52.4533 H         1 UNK         0.0600 
    229 H229      -10.8944  -21.0243  -52.3738 H         1 UNK         0.0600 
    230 H230       -7.0102  -21.6291  -53.7980 H         1 UNK         0.3000 
    231 H231       -6.7910  -23.0413  -56.3847 H         1 UNK         0.0600 
    232 H232       -7.3863  -24.8172  -54.7009 H         1 UNK         0.0600 
    233 H233       -6.0345  -24.3076  -53.6897 H         1 UNK         0.0600 
    234 H234       -5.7373  -24.9975  -55.2808 H         1 UNK         0.0600 
    235 H235       -6.0264  -20.5726  -56.0983 H         1 UNK         0.3000 
    236 H236       -3.7406  -19.8820  -54.7125 H         1 UNK         0.0600 
    237 H237       -5.3282  -18.2577  -55.7184 H         1 UNK         0.0600 
    238 H238       -3.6914  -17.9086  -56.2460 H         1 UNK         0.0600 
    239 H239       -4.8090  -18.7180  -57.3377 H         1 UNK         0.0600 
    240 H240       -1.5873  -19.8700  -55.0259 H         1 UNK         0.3000 
    241 H241       -0.4274  -21.6743  -56.9618 H         1 UNK         0.0600 
    242 H242       -1.1764  -18.3336  -57.3556 H         1 UNK         0.3800 
    243 H243        0.0156  -18.0178  -58.5881 H         1 UNK         0.3800 
    244 H244        1.7228  -21.0887  -55.7533 H         1 UNK         0.0800 
    245 H245        0.8282  -19.9597  -54.7694 H         1 UNK         0.0800 
    246 H246        2.5332  -22.9743  -54.7789 H         1 UNK         0.0800 
    247 H247        1.7019  -24.1140  -53.7603 H         1 UNK         0.0800 
@<TRIPOS>BOND
     1    1    2 1    
     2    1  127 1    
     3    1  128 1    
     4    1  129 1    
     5    2    3 2    
     6    2    4 am   BACKBONE|DICT|INTERRES
     7    4    5 1    
     8    4  130 1    
     9    5    6 1    
    10    5   65 1    
    11    5  131 1    
    12    6    7 1    
    13    6  132 1    
    14    6  133 1    
    15    7    8 1    
    16    8    9 1    
    17    8  134 1    
    18    8  135 1    
    19    9   10 ar   
    20    9   14 ar   
    21   10   11 ar   
    22   10  136 1    
    23   11   12 ar   
    24   11  126 1    
    25   12   13 ar   
    26   12  137 1    
    27   13   14 ar   
    28   13   15 1    
    29   14  138 1    
    30   15   16 1    
    31   15  139 1    
    32   15  140 1    
    33   16   17 1    
    34   17   18 1    
    35   17  141 1    
    36   17  142 1    
    37   18   19 1    
    38   18   67 1    
    39   18  143 1    
    40   19   20 am   BACKBONE|DICT|INTERRES
    41   19  144 1    
    42   20   21 2    
    43   20   22 1    
    44   22   23 1    
    45   22   24 1    
    46   22  145 1    
    47   23  146 1    
    48   23  147 1    
    49   23  148 1    
    50   24   25 am   BACKBONE|DICT|INTERRES
    51   24  149 1    
    52   25   26 2    
    53   25   27 1    
    54   27   28 1    
    55   27   29 1    
    56   27  150 1    
    57   28  151 1    
    58   28  152 1    
    59   28  153 1    
    60   29   30 am   BACKBONE|DICT|INTERRES
    61   29  154 1    
    62   30   31 2    
    63   30   32 1    
    64   32   33 1    
    65   32   34 1    
    66   32  155 1    
    67   33  156 1    
    68   33  157 1    
    69   33  158 1    
    70   34   35 am   BACKBONE|DICT|INTERRES
    71   34  159 1    
    72   35   36 2    
    73   35   37 1    
    74   37   38 1    
    75   37   39 1    
    76   37  160 1    
    77   38  161 1    
    78   38  162 1    
    79   38  163 1    
    80   39   40 am   BACKBONE|DICT|INTERRES
    81   39  164 1    
    82   40   41 2    
    83   40   42 1    
    84   42   43 1    
    85   42   44 1    
    86   42  165 1    
    87   43  166 1    
    88   43  167 1    
    89   43  168 1    
    90   44   45 am   BACKBONE|DICT|INTERRES
    91   44  169 1    
    92   45   46 2    
    93   45   47 1    
    94   47   48 1    
    95   47   49 1    
    96   47  170 1    
    97   48  171 1    
    98   48  172 1    
    99   48  173 1    
   100   49   50 am   BACKBONE|DICT|INTERRES
   101   49  174 1    
   102   50   51 2    
   103   50   52 1    
   104   52   53 1    
   105   52   54 1    
   106   52  175 1    
   107   53  176 1    
   108   53  177 1    
   109   53  178 1    
   110   54   55 am   BACKBONE|DICT|INTERRES
   111   54  179 1    
   112   55   56 2    
   113   55   57 1    
   114   57   58 1    
   115   57   59 1    
   116   57  180 1    
   117   58  181 1    
   118   58  182 1    
   119   58  183 1    
   120   59   60 am   BACKBONE|DICT|INTERRES
   121   59  184 1    
   122   60   61 2    
   123   60   62 1    
   124   62   63 1    
   125   62   64 1    
   126   62  185 1    
   127   63  186 1    
   128   63  187 1    
   129   63  188 1    
   130   64   65 am   BACKBONE|DICT|INTERRES
   131   64  189 1    
   132   65   66 2    
   133   67   68 2    
   134   67   69 am   BACKBONE|DICT|INTERRES
   135   69   70 1    
   136   69  190 1    
   137   70   71 1    
   138   70   72 1    
   139   70  191 1    
   140   71  192 1    
   141   71  193 1    
   142   71  194 1    
   143   72   73 2    
   144   72   74 am   BACKBONE|DICT|INTERRES
   145   74   75 1    
   146   74  195 1    
   147   75   76 1    
   148   75   77 1    
   149   75  196 1    
   150   76  197 1    
   151   76  198 1    
   152   76  199 1    
   153   77   78 2    
   154   77   79 am   BACKBONE|DICT|INTERRES
   155   79   80 1    
   156   79  200 1    
   157   80   81 1    
   158   80   82 1    
   159   80  201 1    
   160   81  202 1    
   161   81  203 1    
   162   81  204 1    
   163   82   83 2    
   164   82   84 am   BACKBONE|DICT|INTERRES
   165   84   85 1    
   166   84  205 1    
   167   85   86 1    
   168   85   87 1    
   169   85  206 1    
   170   86  207 1    
   171   86  208 1    
   172   86  209 1    
   173   87   88 2    
   174   87   89 am   BACKBONE|DICT|INTERRES
   175   89   90 1    
   176   89  210 1    
   177   90   91 1    
   178   90   92 1    
   179   90  211 1    
   180   91  212 1    
   181   91  213 1    
   182   91  214 1    
   183   92   93 2    
   184   92   94 am   BACKBONE|DICT|INTERRES
   185   94   95 1    
   186   94  215 1    
   187   95   96 1    
   188   95   97 1    
   189   95  216 1    
   190   96  217 1    
   191   96  218 1    
   192   96  219 1    
   193   97   98 2    
   194   97   99 am   BACKBONE|DICT|INTERRES
   195   99  100 1    
   196   99  220 1    
   197  100  101 1    
   198  100  102 1    
   199  100  221 1    
   200  101  222 1    
   201  101  223 1    
   202  101  224 1    
   203  102  103 2    
   204  102  104 am   BACKBONE|DICT|INTERRES
   205  104  105 1    
   206  104  225 1    
   207  105  106 1    
   208  105  107 1    
   209  105  226 1    
   210  106  227 1    
   211  106  228 1    
   212  106  229 1    
   213  107  108 2    
   214  107  109 am   BACKBONE|DICT|INTERRES
   215  109  110 1    
   216  109  230 1    
   217  110  111 1    
   218  110  112 1    
   219  110  231 1    
   220  111  232 1    
   221  111  233 1    
   222  111  234 1    
   223  112  113 2    
   224  112  114 am   BACKBONE|DICT|INTERRES
   225  114  115 1    
   226  114  235 1    
   227  115  116 1    
   228  115  117 1    
   229  115  236 1    
   230  116  237 1    
   231  116  238 1    
   232  116  239 1    
   233  117  118 2    
   234  117  119 am   BACKBONE|DICT|INTERRES
   235  119  120 1    
   236  119  240 1    
   237  120  121 1    
   238  120  124 1    
   239  120  241 1    
   240  121  122 am   BACKBONE|DICT|INTERRES
   241  121  123 2    
   242  122  242 1    
   243  122  243 1    
   244  124  125 1    
   245  124  244 1    
   246  124  245 1    
   247  125  126 1    
   248  126  246 1    
   249  126  247 1    
@<TRIPOS>SUBSTRUCTURE
     1 UNK         1 GROUP             0       ****    0 ROOT    
