@<TRIPOS>MOLECULE
3R540
247   249    1
SMALL
USER_CHARGES


@<TRIPOS>ATOM
      1 CA          7.4700  -13.1050  -48.4182 C.3       0 UNK        -0.1800 
      2 C           6.1252  -13.2661  -47.7241 C.2       0 UNK         0.5000 
      3 O           5.9960  -14.0939  -46.8221 O.2       0 UNK        -0.5000 
      4 N           5.1250  -12.4788  -48.1377 N.am      1 UNK        -0.5000 
      5 CA          3.7654  -12.4675  -47.5882 C.3       1 UNK         0.1400 
      6 C6          2.7309  -11.9348  -48.6100 C.3       23 UNK        -0.0398 
      7 S7          2.6166  -13.0066  -50.0823 S.3       23 UNK        -0.2404 
      8 C8          1.0337  -13.8493  -49.7728 C.3       23 UNK        -0.0205 
      9 C9          0.7195  -14.8671  -50.8583 C.ar      23 UNK        -0.0193 
     10 C10         0.4011  -14.4338  -52.1487 C.ar      23 UNK        -0.1150 
     11 C11         0.1200  -15.3567  -53.1588 C.ar      23 UNK        -0.0193 
     12 C12         0.1376  -16.7233  -52.8656 C.ar      23 UNK        -0.1150 
     13 C13         0.4471  -17.1708  -51.5772 C.ar      23 UNK        -0.0193 
     14 C14         0.7417  -16.2377  -50.5774 C.ar      23 UNK        -0.1150 
     15 C15         0.4950  -18.6634  -51.2857 C.3       23 UNK        -0.0205 
     16 S16        -1.1162  -19.3103  -50.7351 S.3       23 UNK        -0.2404 
     17 C17        -0.9323  -19.2820  -48.9191 C.3       23 UNK        -0.0398 
     18 CA         -0.2497  -20.5584  -48.3613 C.3       11 UNK         0.1400 
     19 N           0.2194  -20.3752  -46.9853 N.am      11 UNK        -0.5000 
     20 C           1.1334  -21.1528  -46.3847 C.2       10 UNK         0.5000 
     21 O           1.7733  -22.0298  -46.9644 O.2       10 UNK        -0.5000 
     22 CA          1.3597  -20.9271  -44.8774 C.3       10 UNK         0.1400 
     23 CB          2.5829  -20.0302  -44.6395 C.3       10 UNK        -0.1800 
     24 N           0.1872  -20.3507  -44.2139 N.am      10 UNK        -0.5000 
     25 C          -0.9268  -21.0417  -43.9322 C.2       9 UNK         0.5000 
     26 O          -1.0647  -22.2429  -44.1642 O.2       9 UNK        -0.5000 
     27 CA         -2.1018  -20.2382  -43.3499 C.3       9 UNK         0.1400 
     28 CB         -1.9137  -20.0101  -41.8425 C.3       9 UNK        -0.1800 
     29 N          -2.2628  -18.9466  -44.0157 N.am      9 UNK        -0.5000 
     30 C          -2.6487  -18.7738  -45.2855 C.2       8 UNK         0.5000 
     31 O          -2.9281  -19.7101  -46.0325 O.2       8 UNK        -0.5000 
     32 CA         -2.6538  -17.3370  -45.8460 C.3       8 UNK         0.1400 
     33 CB         -3.8947  -17.0528  -46.7158 C.3       8 UNK        -0.1800 
     34 N          -2.4493  -16.2930  -44.8359 N.am      8 UNK        -0.5000 
     35 C          -3.2699  -15.9099  -43.8455 C.2       7 UNK         0.5000 
     36 O          -4.3810  -16.3999  -43.6449 O.2       7 UNK        -0.5000 
     37 CA         -2.7482  -14.8127  -42.8913 C.3       7 UNK         0.1400 
     38 CB         -2.4541  -15.4114  -41.5067 C.3       7 UNK        -0.1800 
     39 N          -1.5362  -14.1461  -43.3741 N.am      7 UNK        -0.5000 
     40 C          -1.4841  -13.2778  -44.3939 C.2       6 UNK         0.5000 
     41 O          -2.4752  -12.8634  -44.9945 O.2       6 UNK        -0.5000 
     42 CA         -0.0776  -12.8482  -44.8493 C.3       6 UNK         0.1400 
     43 CB          0.4197  -11.6584  -44.0157 C.3       6 UNK        -0.1800 
     44 N           0.8831  -13.9556  -44.7764 N.am      6 UNK        -0.5000 
     45 C           0.8650  -15.0180  -45.5957 C.2       5 UNK         0.5000 
     46 O           0.0848  -15.1346  -46.5384 O.2       5 UNK        -0.5000 
     47 CA          1.8246  -16.1766  -45.2797 C.3       5 UNK         0.1400 
     48 CB          3.1655  -16.0138  -46.0054 C.3       5 UNK        -0.1800 
     49 N           2.0488  -16.3253  -43.8413 N.am      5 UNK        -0.5000 
     50 C           1.1925  -16.9577  -43.0269 C.2       4 UNK         0.5000 
     51 O           0.1812  -17.5313  -43.4299 O.2       4 UNK        -0.5000 
     52 CA          1.4904  -16.9542  -41.5160 C.3       4 UNK         0.1400 
     53 CB          2.2043  -18.2518  -41.1117 C.3       4 UNK        -0.1800 
     54 N           2.2786  -15.8077  -41.0635 N.am      4 UNK        -0.5000 
     55 C           1.8917  -14.5273  -41.1379 C.2       3 UNK         0.5000 
     56 O           0.8123  -14.1737  -41.6153 O.2       3 UNK        -0.5000 
     57 CA          2.8868  -13.4535  -40.6451 C.3       3 UNK         0.1400 
     58 CB          4.1137  -14.0274  -39.9010 C.3       3 UNK        -0.1800 
     59 N           3.3321  -12.5678  -41.7281 N.am      3 UNK        -0.5000 
     60 C           3.8662  -12.9381  -42.9002 C.2       2 UNK         0.5000 
     61 O           4.0169  -14.1124  -43.2499 O.2       2 UNK        -0.5000 
     62 CA          4.3098  -11.8044  -43.8356 C.3       2 UNK         0.1400 
     63 CB          5.7357  -11.3453  -43.4935 C.3       2 UNK        -0.1800 
     64 N           4.2878  -12.2955  -45.2085 N.am      2 UNK        -0.5000 
     65 C           3.7342  -11.6845  -46.2591 C.2       1 UNK         0.5000 
     66 O           3.2389  -10.5573  -46.2137 O.2       1 UNK        -0.5000 
     67 C          -1.1491  -21.8094  -48.4622 C.2       11 UNK         0.5000 
     68 O          -0.9891  -22.5959  -49.3941 O.2       11 UNK        -0.5000 
     69 N          -2.0494  -21.9863  -47.4833 N.am      12 UNK        -0.5000 
     70 CA         -2.9240  -23.1467  -47.3485 C.3       12 UNK         0.1400 
     71 CB         -3.9670  -22.8910  -46.2477 C.3       12 UNK        -0.1800 
     72 C          -2.1505  -24.4452  -47.0814 C.2       12 UNK         0.5000 
     73 O          -2.3174  -25.4107  -47.8301 O.2       12 UNK        -0.5000 
     74 N          -1.3350  -24.4365  -46.0170 N.am      13 UNK        -0.5000 
     75 CA         -0.5818  -25.5738  -45.4837 C.3       13 UNK         0.1400 
     76 CB          0.5825  -25.9293  -46.4354 C.3       13 UNK        -0.1800 
     77 C          -1.5048  -26.7692  -45.1450 C.2       13 UNK         0.5000 
     78 O          -2.6530  -26.5608  -44.7449 O.2       13 UNK        -0.5000 
     79 N          -1.0054  -27.9991  -45.3183 N.am      14 UNK        -0.5000 
     80 CA         -1.7874  -29.2311  -45.1805 C.3       14 UNK         0.1400 
     81 CB         -0.8249  -30.4004  -44.9203 C.3       14 UNK        -0.1800 
     82 C          -2.6650  -29.5226  -46.4162 C.2       14 UNK         0.5000 
     83 O          -3.6160  -30.2982  -46.3137 O.2       14 UNK        -0.5000 
     84 N          -2.3215  -28.9184  -47.5624 N.am      15 UNK        -0.5000 
     85 CA         -2.9768  -29.1300  -48.8538 C.3       15 UNK         0.1400 
     86 CB         -2.0081  -28.6943  -49.9651 C.3       15 UNK        -0.1800 
     87 C          -4.3157  -28.3839  -49.0035 C.2       15 UNK         0.5000 
     88 O          -5.1263  -28.7780  -49.8425 O.2       15 UNK        -0.5000 
     89 N          -4.5004  -27.3062  -48.2255 N.am      16 UNK        -0.5000 
     90 CA         -5.5736  -26.3091  -48.3317 C.3       16 UNK         0.1400 
     91 CB         -6.9566  -26.9282  -48.0430 C.3       16 UNK        -0.1800 
     92 C          -5.5136  -25.5388  -49.6700 C.2       16 UNK         0.5000 
     93 O          -6.5469  -25.2005  -50.2500 O.2       16 UNK        -0.5000 
     94 N          -4.2852  -25.2682  -50.1358 N.am      17 UNK        -0.5000 
     95 CA         -3.9809  -24.6741  -51.4408 C.3       17 UNK         0.1400 
     96 CB         -2.4904  -24.8774  -51.7462 C.3       17 UNK        -0.1800 
     97 C          -4.3869  -23.1939  -51.5897 C.2       17 UNK         0.5000 
     98 O          -4.4249  -22.6919  -52.7133 O.2       17 UNK        -0.5000 
     99 N          -4.7454  -22.5298  -50.4815 N.am      18 UNK        -0.5000 
    100 CA        -5.2609  -21.1574  -50.4328 C.3       18 UNK         0.1400 
    101 CB        -5.3153  -20.6843  -48.9730 C.3       18 UNK        -0.1800 
    102 C         -6.6316  -20.9764  -51.1208 C.2       18 UNK         0.5000 
    103 O         -7.0375  -19.8405  -51.3635 O.2       18 UNK        -0.5000 
    104 N         -7.3065  -22.0858  -51.4587 N.am      19 UNK        -0.5000 
    105 CA        -8.4702  -22.1119  -52.3458 C.3       19 UNK         0.1400 
    106 CB        -9.0720  -23.5251  -52.3380 C.3       19 UNK        -0.1800 
    107 C         -8.1291  -21.6740  -53.7871 C.2       19 UNK         0.5000 
    108 O         -8.9798  -21.0837  -54.4540 O.2       19 UNK        -0.5000 
    109 N         -6.8930  -21.9502  -54.2280 N.am      20 UNK        -0.5000 
    110 CA        -6.3273  -21.4719  -55.4891 C.3       20 UNK         0.1400 
    111 CB        -5.5246  -22.6047  -56.1482 C.3       20 UNK        -0.1800 
    112 C         -5.4331  -20.2427  -55.2520 C.2       20 UNK         0.5000 
    113 O         -5.5016  -19.2875  -56.0277 O.2       20 UNK        -0.5000 
    114 N         -4.6225  -20.2909  -54.1821 N.am      21 UNK        -0.5000 
    115 CA        -3.6765  -19.2721  -53.7198 C.3       21 UNK         0.1400 
    116 CB        -4.4245  -18.0940  -53.0563 C.3       21 UNK        -0.1800 
    117 C         -2.7024  -18.8393  -54.8325 C.2       21 UNK         0.5000 
    118 O         -1.8146  -19.6128  -55.1945 O.2       21 UNK        -0.5000 
    119 N         -2.8945  -17.6243  -55.3559 N.am      22 UNK        -0.5000 
    120 CA        -2.1113  -17.0355  -56.4499 C.3       22 UNK         0.1400 
    121 C         -2.4410  -17.6122  -57.8585 C.2       22 UNK         0.5000 
    122 N         -3.5075  -18.3846  -58.0348 N.am      22 UNK        -0.7600 
    123 O         -1.7101  -17.3553  -58.8113 O.2       22 UNK        -0.5000 
    124 C124       -2.1989  -15.4843  -56.4588 C.3       23 UNK        -0.0398 
    125 S125       -1.9821  -14.7141  -54.8154 S.3       23 UNK        -0.2404 
    126 C126       -0.1891  -14.8793  -54.5683 C.3       23 UNK        -0.0205 
    127 H127        7.7699  -14.0472  -48.8769 H         1 UNK         0.0600 
    128 H128        8.2330  -12.8183  -47.6947 H         1 UNK         0.0600 
    129 H129        7.4358  -12.3431  -49.1973 H         1 UNK         0.0600 
    130 H130        5.2979  -11.8124  -48.8768 H         1 UNK         0.3000 
    131 H131        3.4771  -13.4936  -47.3573 H         1 UNK         0.0600 
    132 H132        1.7437  -11.8532  -48.1512 H         1 UNK         0.0800 
    133 H133        2.9956  -10.9279  -48.9373 H         1 UNK         0.0800 
    134 H134        1.0764  -14.3339  -48.7978 H         1 UNK         0.0800 
    135 H135        0.2289  -13.1144  -49.7229 H         1 UNK         0.0800 
    136 H136        0.3855  -13.3753  -52.3682 H         1 UNK         0.1150 
    137 H137       -0.0850  -17.4400  -53.6440 H         1 UNK         0.1150 
    138 H138        0.9909  -16.5774  -49.5821 H         1 UNK         0.1150 
    139 H139        0.7896  -19.2010  -52.1884 H         1 UNK         0.0800 
    140 H140        1.2666  -18.8811  -50.5459 H         1 UNK         0.0800 
    141 H141       -1.9203  -19.1433  -48.4785 H         1 UNK         0.0800 
    142 H142       -0.3576  -18.3962  -48.6467 H         1 UNK         0.0800 
    143 H143        0.6341  -20.7506  -48.9739 H         1 UNK         0.0600 
    144 H144       -0.2719  -19.7014  -46.4199 H         1 UNK         0.3000 
    145 H145        1.5658  -21.9008  -44.4273 H         1 UNK         0.0600 
    146 H146        2.7744  -19.8964  -43.5755 H         1 UNK         0.0600 
    147 H147        3.4795  -20.4725  -45.0756 H         1 UNK         0.0600 
    148 H148        2.4563  -19.0465  -45.0874 H         1 UNK         0.0600 
    149 H149        0.2134  -19.3605  -43.9866 H         1 UNK         0.3000 
    150 H150       -3.0150  -20.8176  -43.5008 H         1 UNK         0.0600 
    151 H151       -1.8055  -20.9585  -41.3147 H         1 UNK         0.0600 
    152 H152       -2.7733  -19.4951  -41.4130 H         1 UNK         0.0600 
    153 H153       -1.0264  -19.4123  -41.6307 H         1 UNK         0.0600 
    154 H154       -1.9393  -18.1338  -43.5086 H         1 UNK         0.3000 
    155 H155       -1.7835  -17.2775  -46.5006 H         1 UNK         0.0600 
    156 H156       -4.8212  -17.1664  -46.1528 H         1 UNK         0.0600 
    157 H157       -3.9456  -17.7384  -47.5626 H         1 UNK         0.0600 
    158 H158       -3.8679  -16.0412  -47.1209 H         1 UNK         0.0600 
    159 H159       -1.5601  -15.8173  -44.8964 H         1 UNK         0.3000 
    160 H160       -3.5361  -14.0643  -42.7850 H         1 UNK         0.0600 
    161 H161       -1.6959  -16.1926  -41.5615 H         1 UNK         0.0600 
    162 H162       -3.3508  -15.8552  -41.0725 H         1 UNK         0.0600 
    163 H163       -2.1003  -14.6488  -40.8125 H         1 UNK         0.0600 
    164 H164       -0.6747  -14.3576  -42.8790 H         1 UNK         0.3000 
    165 H165       -0.1491  -12.5242  -45.8900 H         1 UNK         0.0600 
    166 H166        1.3641  -11.2780  -44.3977 H         1 UNK         0.0600 
    167 H167       -0.2935  -10.8340  -44.0517 H         1 UNK         0.0600 
    168 H168        0.5598  -11.9216  -42.9676 H         1 UNK         0.0600 
    169 H169        1.5087  -13.9679  -43.9836 H         1 UNK         0.3000 
    170 H170        1.3571  -17.0849  -45.6651 H         1 UNK         0.0600 
    171 H171        3.0197  -15.9016  -47.0806 H         1 UNK         0.0600 
    172 H172        3.7133  -15.1428  -45.6510 H         1 UNK         0.0600 
    173 H173        3.8010  -16.8864  -45.8546 H         1 UNK         0.0600 
    174 H174        2.8527  -15.8456  -43.4494 H         1 UNK         0.3000 
    175 H175        0.5310  -16.9211  -40.9970 H         1 UNK         0.0600 
    176 H176        3.1884  -18.3306  -41.5753 H         1 UNK         0.0600 
    177 H177        2.3363  -18.3089  -40.0311 H         1 UNK         0.0600 
    178 H178        1.6268  -19.1273  -41.4124 H         1 UNK         0.0600 
    179 H179        3.1947  -16.0089  -40.6899 H         1 UNK         0.3000 
    180 H180        2.3331  -12.8320  -39.9399 H         1 UNK         0.0600 
    181 H181        4.7345  -13.2244  -39.5036 H         1 UNK         0.0600 
    182 H182        4.7443  -14.6350  -40.5513 H         1 UNK         0.0600 
    183 H183        3.8112  -14.6432  -39.0529 H         1 UNK         0.0600 
    184 H184        3.2222  -11.5805  -41.5437 H         1 UNK         0.3000 
    185 H185        3.6239  -10.9638  -43.7153 H         1 UNK         0.0600 
    186 H186        5.7938  -10.9710  -42.4707 H         1 UNK         0.0600 
    187 H187        6.4538  -12.1612  -43.5878 H         1 UNK         0.0600 
    188 H188        6.0574  -10.5396  -44.1536 H         1 UNK         0.0600 
    189 H189        4.6992  -13.2138  -45.3415 H         1 UNK         0.3000 
    190 H190       -2.1749  -21.2521  -46.7922 H         1 UNK         0.3000 
    191 H191       -3.4530  -23.2722  -48.2905 H         1 UNK         0.0600 
    192 H192       -4.6444  -23.7386  -46.1421 H         1 UNK         0.0600 
    193 H193       -4.5746  -22.0144  -46.4675 H         1 UNK         0.0600 
    194 H194       -3.4999  -22.7269  -45.2768 H         1 UNK         0.0600 
    195 H195       -1.2999  -23.5951  -45.4460 H         1 UNK         0.3000 
    196 H196       -0.1534  -25.2382  -44.5384 H         1 UNK         0.0600 
    197 H197        0.2271  -26.3551  -47.3745 H         1 UNK         0.0600 
    198 H198        1.1680  -25.0421  -46.6788 H         1 UNK         0.0600 
    199 H199        1.2681  -26.6443  -45.9798 H         1 UNK         0.0600 
    200 H200       -0.0501  -28.0999  -45.6299 H         1 UNK         0.3000 
    201 H201       -2.4507  -29.1394  -44.3176 H         1 UNK         0.0600 
    202 H202       -0.1328  -30.5458  -45.7508 H         1 UNK         0.0600 
    203 H203       -1.3721  -31.3339  -44.7821 H         1 UNK         0.0600 
    204 H204       -0.2369  -30.2339  -44.0175 H         1 UNK         0.0600 
    205 H205       -1.5412  -28.2787  -47.5524 H         1 UNK         0.3000 
    206 H206       -3.1780  -30.1967  -48.9737 H         1 UNK         0.0600 
    207 H207       -1.0842  -29.2720  -49.9324 H         1 UNK         0.0600 
    208 H208       -2.4486  -28.8442  -50.9518 H         1 UNK         0.0600 
    209 H209       -1.7473  -27.6384  -49.8792 H         1 UNK         0.0600 
    210 H210       -3.7341  -27.0468  -47.6157 H         1 UNK         0.3000 
    211 H211       -5.3787  -25.5739  -47.5510 H         1 UNK         0.0600 
    212 H212       -7.7206  -26.1536  -47.9678 H         1 UNK         0.0600 
    213 H213       -6.9547  -27.4743  -47.0997 H         1 UNK         0.0600 
    214 H214       -7.2696  -27.6157  -48.8290 H         1 UNK         0.0600 
    215 H215       -3.4903  -25.5433  -49.5688 H         1 UNK         0.3000 
    216 H216       -4.5500  -25.2242  -52.1931 H         1 UNK         0.0600 
    217 H217       -1.8586  -24.4382  -50.9755 H         1 UNK         0.0600 
    218 H218       -2.2150  -24.4218  -52.6983 H         1 UNK         0.0600 
    219 H219       -2.2453  -25.9374  -51.8125 H         1 UNK         0.0600 
    220 H220       -4.7230  -23.0330  -49.6096 H         1 UNK         0.3000 
    221 H221       -4.5508  -20.5213  -50.9639 H         1 UNK         0.0600 
    222 H222       -5.7041  -19.6675  -48.9034 H         1 UNK         0.0600 
    223 H223       -4.3221  -20.6721  -48.5260 H         1 UNK         0.0600 
    224 H224       -5.9583  -21.3229  -48.3669 H         1 UNK         0.0600 
    225 H225       -6.9320  -22.9830  -51.1797 H         1 UNK         0.3000 
    226 H226       -9.2150  -21.4172  -51.9521 H         1 UNK         0.0600 
    227 H227       -9.3762  -23.8185  -51.3331 H         1 UNK         0.0600 
    228 H228       -9.9566  -23.5771  -52.9742 H         1 UNK         0.0600 
    229 H229       -8.3602  -24.2676  -52.7013 H         1 UNK         0.0600 
    230 H230       -6.2462  -22.4117  -53.5996 H         1 UNK         0.3000 
    231 H231       -7.1240  -21.1805  -56.1767 H         1 UNK         0.0600 
    232 H232       -4.7075  -22.9478  -55.5123 H         1 UNK         0.0600 
    233 H233       -5.0897  -22.2754  -57.0928 H         1 UNK         0.0600 
    234 H234       -6.1618  -23.4622  -56.3647 H         1 UNK         0.0600 
    235 H235       -4.5867  -21.1646  -53.6619 H         1 UNK         0.3000 
    236 H236       -3.0662  -19.7490  -52.9526 H         1 UNK         0.0600 
    237 H237       -4.9655  -18.4232  -52.1713 H         1 UNK         0.0600 
    238 H238       -3.7280  -17.3214  -52.7266 H         1 UNK         0.0600 
    239 H239       -5.1478  -17.6312  -53.7284 H         1 UNK         0.0600 
    240 H240       -3.6577  -17.0635  -55.0075 H         1 UNK         0.3000 
    241 H241       -1.0682  -17.2985  -56.2671 H         1 UNK         0.0600 
    242 H242       -3.7066  -18.7506  -58.9521 H         1 UNK         0.3800 
    243 H243       -4.1298  -18.6033  -57.2623 H         1 UNK         0.3800 
    244 H244       -3.1731  -15.1675  -56.8353 H         1 UNK         0.0800 
    245 H245       -1.4608  -15.0629  -57.1436 H         1 UNK         0.0800 
    246 H246        0.2401  -15.5759  -55.2892 H         1 UNK         0.0800 
    247 H247        0.2873  -13.9165  -54.7590 H         1 UNK         0.0800 
@<TRIPOS>BOND
     1    1    2 1    
     2    1  127 1    
     3    1  128 1    
     4    1  129 1    
     5    2    3 2    
     6    2    4 am   BACKBONE|DICT|INTERRES
     7    4    5 1    
     8    4  130 1    
     9    5    6 1    
    10    5   65 1    
    11    5  131 1    
    12    6    7 1    
    13    6  132 1    
    14    6  133 1    
    15    7    8 1    
    16    8    9 1    
    17    8  134 1    
    18    8  135 1    
    19    9   10 ar   
    20    9   14 ar   
    21   10   11 ar   
    22   10  136 1    
    23   11   12 ar   
    24   11  126 1    
    25   12   13 ar   
    26   12  137 1    
    27   13   14 ar   
    28   13   15 1    
    29   14  138 1    
    30   15   16 1    
    31   15  139 1    
    32   15  140 1    
    33   16   17 1    
    34   17   18 1    
    35   17  141 1    
    36   17  142 1    
    37   18   19 1    
    38   18   67 1    
    39   18  143 1    
    40   19   20 am   BACKBONE|DICT|INTERRES
    41   19  144 1    
    42   20   21 2    
    43   20   22 1    
    44   22   23 1    
    45   22   24 1    
    46   22  145 1    
    47   23  146 1    
    48   23  147 1    
    49   23  148 1    
    50   24   25 am   BACKBONE|DICT|INTERRES
    51   24  149 1    
    52   25   26 2    
    53   25   27 1    
    54   27   28 1    
    55   27   29 1    
    56   27  150 1    
    57   28  151 1    
    58   28  152 1    
    59   28  153 1    
    60   29   30 am   BACKBONE|DICT|INTERRES
    61   29  154 1    
    62   30   31 2    
    63   30   32 1    
    64   32   33 1    
    65   32   34 1    
    66   32  155 1    
    67   33  156 1    
    68   33  157 1    
    69   33  158 1    
    70   34   35 am   BACKBONE|DICT|INTERRES
    71   34  159 1    
    72   35   36 2    
    73   35   37 1    
    74   37   38 1    
    75   37   39 1    
    76   37  160 1    
    77   38  161 1    
    78   38  162 1    
    79   38  163 1    
    80   39   40 am   BACKBONE|DICT|INTERRES
    81   39  164 1    
    82   40   41 2    
    83   40   42 1    
    84   42   43 1    
    85   42   44 1    
    86   42  165 1    
    87   43  166 1    
    88   43  167 1    
    89   43  168 1    
    90   44   45 am   BACKBONE|DICT|INTERRES
    91   44  169 1    
    92   45   46 2    
    93   45   47 1    
    94   47   48 1    
    95   47   49 1    
    96   47  170 1    
    97   48  171 1    
    98   48  172 1    
    99   48  173 1    
   100   49   50 am   BACKBONE|DICT|INTERRES
   101   49  174 1    
   102   50   51 2    
   103   50   52 1    
   104   52   53 1    
   105   52   54 1    
   106   52  175 1    
   107   53  176 1    
   108   53  177 1    
   109   53  178 1    
   110   54   55 am   BACKBONE|DICT|INTERRES
   111   54  179 1    
   112   55   56 2    
   113   55   57 1    
   114   57   58 1    
   115   57   59 1    
   116   57  180 1    
   117   58  181 1    
   118   58  182 1    
   119   58  183 1    
   120   59   60 am   BACKBONE|DICT|INTERRES
   121   59  184 1    
   122   60   61 2    
   123   60   62 1    
   124   62   63 1    
   125   62   64 1    
   126   62  185 1    
   127   63  186 1    
   128   63  187 1    
   129   63  188 1    
   130   64   65 am   BACKBONE|DICT|INTERRES
   131   64  189 1    
   132   65   66 2    
   133   67   68 2    
   134   67   69 am   BACKBONE|DICT|INTERRES
   135   69   70 1    
   136   69  190 1    
   137   70   71 1    
   138   70   72 1    
   139   70  191 1    
   140   71  192 1    
   141   71  193 1    
   142   71  194 1    
   143   72   73 2    
   144   72   74 am   BACKBONE|DICT|INTERRES
   145   74   75 1    
   146   74  195 1    
   147   75   76 1    
   148   75   77 1    
   149   75  196 1    
   150   76  197 1    
   151   76  198 1    
   152   76  199 1    
   153   77   78 2    
   154   77   79 am   BACKBONE|DICT|INTERRES
   155   79   80 1    
   156   79  200 1    
   157   80   81 1    
   158   80   82 1    
   159   80  201 1    
   160   81  202 1    
   161   81  203 1    
   162   81  204 1    
   163   82   83 2    
   164   82   84 am   BACKBONE|DICT|INTERRES
   165   84   85 1    
   166   84  205 1    
   167   85   86 1    
   168   85   87 1    
   169   85  206 1    
   170   86  207 1    
   171   86  208 1    
   172   86  209 1    
   173   87   88 2    
   174   87   89 am   BACKBONE|DICT|INTERRES
   175   89   90 1    
   176   89  210 1    
   177   90   91 1    
   178   90   92 1    
   179   90  211 1    
   180   91  212 1    
   181   91  213 1    
   182   91  214 1    
   183   92   93 2    
   184   92   94 am   BACKBONE|DICT|INTERRES
   185   94   95 1    
   186   94  215 1    
   187   95   96 1    
   188   95   97 1    
   189   95  216 1    
   190   96  217 1    
   191   96  218 1    
   192   96  219 1    
   193   97   98 2    
   194   97   99 am   BACKBONE|DICT|INTERRES
   195   99  100 1    
   196   99  220 1    
   197  100  101 1    
   198  100  102 1    
   199  100  221 1    
   200  101  222 1    
   201  101  223 1    
   202  101  224 1    
   203  102  103 2    
   204  102  104 am   BACKBONE|DICT|INTERRES
   205  104  105 1    
   206  104  225 1    
   207  105  106 1    
   208  105  107 1    
   209  105  226 1    
   210  106  227 1    
   211  106  228 1    
   212  106  229 1    
   213  107  108 2    
   214  107  109 am   BACKBONE|DICT|INTERRES
   215  109  110 1    
   216  109  230 1    
   217  110  111 1    
   218  110  112 1    
   219  110  231 1    
   220  111  232 1    
   221  111  233 1    
   222  111  234 1    
   223  112  113 2    
   224  112  114 am   BACKBONE|DICT|INTERRES
   225  114  115 1    
   226  114  235 1    
   227  115  116 1    
   228  115  117 1    
   229  115  236 1    
   230  116  237 1    
   231  116  238 1    
   232  116  239 1    
   233  117  118 2    
   234  117  119 am   BACKBONE|DICT|INTERRES
   235  119  120 1    
   236  119  240 1    
   237  120  121 1    
   238  120  124 1    
   239  120  241 1    
   240  121  122 am   BACKBONE|DICT|INTERRES
   241  121  123 2    
   242  122  242 1    
   243  122  243 1    
   244  124  125 1    
   245  124  244 1    
   246  124  245 1    
   247  125  126 1    
   248  126  246 1    
   249  126  247 1    
@<TRIPOS>SUBSTRUCTURE
     1 UNK         1 GROUP             0       ****    0 ROOT    
