@<TRIPOS>MOLECULE
3R540
247   249    1
SMALL
USER_CHARGES


@<TRIPOS>ATOM
      1 CA          4.0948  -13.3614  -45.9700 C.3       0 UNK        -0.1800 
      2 C           2.6215  -13.4837  -45.6151 C.2       0 UNK         0.5000 
      3 O           2.1991  -13.0101  -44.5576 O.2       0 UNK        -0.5000 
      4 N           1.8351  -14.1279  -46.4879 N.am      1 UNK        -0.5000 
      5 CA          0.3911  -14.3264  -46.3236 C.3       1 UNK         0.1400 
      6 C6         -0.1981  -15.3818  -47.2919 C.3       23 UNK        -0.0398 
      7 S7          0.1747  -15.1164  -49.0575 S.3       23 UNK        -0.2404 
      8 C8         -0.7529  -16.5035  -49.7872 C.3       23 UNK        -0.0205 
      9 C9          0.1661  -17.5786  -50.3480 C.ar      23 UNK        -0.0193 
     10 C10         0.3008  -17.7231  -51.7313 C.ar      23 UNK        -0.1150 
     11 C11         1.1068  -18.7274  -52.2735 C.ar      23 UNK        -0.0193 
     12 C12         1.8273  -19.5588  -51.4101 C.ar      23 UNK        -0.1150 
     13 C13         1.7135  -19.4200  -50.0239 C.ar      23 UNK        -0.0193 
     14 C14         0.8687  -18.4374  -49.4966 C.ar      23 UNK        -0.1150 
     15 C15         2.5228  -20.3232  -49.1049 C.3       23 UNK        -0.0205 
     16 S16         1.9094  -22.0328  -49.1076 S.3       23 UNK        -0.2404 
     17 C17         0.2842  -21.8412  -48.3059 C.3       23 UNK        -0.0398 
     18 CA          0.0720  -22.9099  -47.2025 C.3       11 UNK         0.1400 
     19 N           0.8720  -22.5992  -46.0148 N.am      11 UNK        -0.5000 
     20 C           1.4765  -23.4855  -45.2166 C.2       10 UNK         0.5000 
     21 O           1.4053  -24.7049  -45.3667 O.2       10 UNK        -0.5000 
     22 CA          2.2478  -22.9014  -44.0211 C.3       10 UNK         0.1400 
     23 CB          3.5913  -22.3049  -44.4710 C.3       10 UNK        -0.1800 
     24 N           1.4646  -21.8772  -43.3284 N.am      10 UNK        -0.5000 
     25 C           0.4452  -22.1371  -42.4970 C.2       9 UNK         0.5000 
     26 O           0.0872  -23.2749  -42.1935 O.2       9 UNK        -0.5000 
     27 CA         -0.3072  -20.9258  -41.9129 C.3       9 UNK         0.1400 
     28 CB          0.3552  -20.4545  -40.6097 C.3       9 UNK        -0.1800 
     29 N          -0.3706  -19.8048  -42.8493 N.am      9 UNK        -0.5000 
     30 C          -1.1590  -19.7677  -43.9332 C.2       8 UNK         0.5000 
     31 O          -1.9826  -20.6362  -44.2117 O.2       8 UNK        -0.5000 
     32 CA         -0.9804  -18.5708  -44.8849 C.3       8 UNK         0.1400 
     33 CB         -1.9968  -17.4668  -44.5544 C.3       8 UNK        -0.1800 
     34 N           0.3768  -18.0181  -44.8598 N.am      8 UNK        -0.5000 
     35 C           1.4691  -18.6681  -45.2893 C.2       7 UNK         0.5000 
     36 O           1.4345  -19.8028  -45.7609 O.2       7 UNK        -0.5000 
     37 CA          2.8253  -17.9548  -45.1348 C.3       7 UNK         0.1400 
     38 CB          3.2926  -17.3566  -46.4701 C.3       7 UNK        -0.1800 
     39 N           2.7869  -16.9005  -44.1203 N.am      7 UNK        -0.5000 
     40 C           2.8017  -17.1336  -42.8012 C.2       6 UNK         0.5000 
     41 O           2.8401  -18.2594  -42.3046 O.2       6 UNK        -0.5000 
     42 CA          2.7037  -15.8954  -41.8981 C.3       6 UNK         0.1400 
     43 CB          4.0152  -15.0948  -41.9062 C.3       6 UNK        -0.1800 
     44 N           1.5997  -15.0189  -42.2879 N.am      6 UNK        -0.5000 
     45 C           0.3016  -15.3027  -42.1076 C.2       5 UNK         0.5000 
     46 O          -0.0980  -16.3917  -41.6944 O.2       5 UNK        -0.5000 
     47 CA         -0.7154  -14.1927  -42.4616 C.3       5 UNK         0.1400 
     48 CB         -1.9943  -14.2613  -41.6008 C.3       5 UNK        -0.1800 
     49 N          -0.1352  -12.8400  -42.4498 N.am      5 UNK        -0.5000 
     50 C           0.3859  -12.2049  -41.3873 C.2       4 UNK         0.5000 
     51 O           0.3762  -12.6725  -40.2477 O.2       4 UNK        -0.5000 
     52 CA          1.0535  -10.8382  -41.6252 C.3       4 UNK         0.1400 
     53 CB          2.3448  -10.6827  -40.7945 C.3       4 UNK        -0.1800 
     54 N           1.3538  -10.5781  -43.0370 N.am      4 UNK        -0.5000 
     55 C           1.4473   -9.3447  -43.5535 C.2       3 UNK         0.5000 
     56 O           1.1641   -8.3178  -42.9343 O.2       3 UNK        -0.5000 
     57 CA          1.9659   -9.2307  -44.9954 C.3       3 UNK         0.1400 
     58 CB          3.4628   -9.5736  -45.0671 C.3       3 UNK        -0.1800 
     59 N           1.2220  -10.0777  -45.9233 N.am      3 UNK        -0.5000 
     60 C           0.0058   -9.7888  -46.4076 C.2       2 UNK         0.5000 
     61 O          -0.6352   -8.7850  -46.0947 O.2       2 UNK        -0.5000 
     62 CA         -0.5877  -10.7739  -47.4333 C.3       2 UNK         0.1400 
     63 CB         -0.3476  -10.2682  -48.8641 C.3       2 UNK        -0.1800 
     64 N          -0.0299  -12.1208  -47.3088 N.am      2 UNK        -0.5000 
     65 C          -0.3884  -12.9966  -46.3624 C.2       1 UNK         0.5000 
     66 O          -1.2485  -12.7709  -45.5120 O.2       1 UNK        -0.5000 
     67 C          -1.4211  -23.1039  -46.8553 C.2       11 UNK         0.5000 
     68 O          -2.2751  -22.8601  -47.7071 O.2       11 UNK        -0.5000 
     69 N          -1.7282  -23.5383  -45.6253 N.am      12 UNK        -0.5000 
     70 CA         -3.0914  -23.7190  -45.1179 C.3       12 UNK         0.1400 
     71 CB         -3.0351  -23.9462  -43.5996 C.3       12 UNK        -0.1800 
     72 C          -3.8700  -24.8623  -45.7980 C.2       12 UNK         0.5000 
     73 O          -5.0993  -24.8075  -45.8456 O.2       12 UNK        -0.5000 
     74 N          -3.1485  -25.8659  -46.3095 N.am      13 UNK        -0.5000 
     75 CA         -3.6840  -27.0104  -47.0420 C.3       13 UNK         0.1400 
     76 CB         -3.2667  -28.3001  -46.3181 C.3       13 UNK        -0.1800 
     77 C          -3.1313  -26.9990  -48.4740 C.2       13 UNK         0.5000 
     78 O          -2.0343  -26.4795  -48.6990 O.2       13 UNK        -0.5000 
     79 N          -3.9016  -27.5766  -49.4078 N.am      14 UNK        -0.5000 
     80 CA         -3.6583  -27.7279  -50.8522 C.3       14 UNK         0.1400 
     81 CB         -2.4067  -28.5830  -51.1281 C.3       14 UNK        -0.1800 
     82 C          -3.6096  -26.3970  -51.6268 C.2       14 UNK         0.5000 
     83 O          -4.3684  -26.2131  -52.5780 O.2       14 UNK        -0.5000 
     84 N          -2.7322  -25.4882  -51.1939 N.am      15 UNK        -0.5000 
     85 CA         -2.6206  -24.1142  -51.6711 C.3       15 UNK         0.1400 
     86 CB         -1.2663  -23.5515  -51.2218 C.3       15 UNK        -0.1800 
     87 C          -3.7711  -23.2282  -51.1664 C.2       15 UNK         0.5000 
     88 O          -4.2225  -22.3471  -51.9017 O.2       15 UNK        -0.5000 
     89 N          -4.2042  -23.4824  -49.9218 N.am      16 UNK        -0.5000 
     90 CA         -5.2668  -22.8027  -49.1714 C.3       16 UNK         0.1400 
     91 CB         -6.6471  -23.2170  -49.7153 C.3       16 UNK        -0.1800 
     92 C          -5.0777  -21.2728  -49.1151 C.2       16 UNK         0.5000 
     93 O          -6.0284  -20.5225  -49.3300 O.2       16 UNK        -0.5000 
     94 N          -3.8277  -20.8409  -48.8959 N.am      17 UNK        -0.5000 
     95 CA         -3.3536  -19.4513  -48.9198 C.3       17 UNK         0.1400 
     96 CB         -3.8359  -18.7029  -47.6610 C.3       17 UNK        -0.1800 
     97 C          -3.6992  -18.7138  -50.2365 C.2       17 UNK         0.5000 
     98 O          -4.0418  -17.5316  -50.2128 O.2       17 UNK        -0.5000 
     99 N          -3.6127  -19.4517  -51.3530 N.am      18 UNK        -0.5000 
    100 CA        -3.9392  -19.0672  -52.7294 C.3       18 UNK         0.1400 
    101 CB        -3.1700  -17.8157  -53.1974 C.3       18 UNK        -0.1800 
    102 C         -5.4453  -19.0055  -53.0473 C.2       18 UNK         0.5000 
    103 O         -5.8110  -18.5172  -54.1176 O.2       18 UNK        -0.5000 
    104 N         -6.2988  -19.5556  -52.1709 N.am      19 UNK        -0.5000 
    105 CA        -7.7052  -19.8231  -52.4881 C.3       19 UNK         0.1400 
    106 CB        -8.5244  -19.9313  -51.1931 C.3       19 UNK        -0.1800 
    107 C         -7.8764  -21.0935  -53.3479 C.2       19 UNK         0.5000 
    108 O         -8.9323  -21.2609  -53.9600 O.2       19 UNK        -0.5000 
    109 N         -6.8520  -21.9579  -53.3805 N.am      20 UNK        -0.5000 
    110 CA        -6.8048  -23.1875  -54.1622 C.3       20 UNK         0.1400 
    111 CB        -6.9473  -24.3974  -53.2215 C.3       20 UNK        -0.1800 
    112 C         -5.5388  -23.1828  -55.0392 C.2       20 UNK         0.5000 
    113 O         -5.3943  -22.2720  -55.8572 O.2       20 UNK        -0.5000 
    114 N         -4.6620  -24.1897  -54.8985 N.am      21 UNK        -0.5000 
    115 CA        -3.5940  -24.5181  -55.8540 C.3       21 UNK         0.1400 
    116 CB        -2.8971  -25.8172  -55.4195 C.3       21 UNK        -0.1800 
    117 C         -2.5481  -23.4183  -56.1312 C.2       21 UNK         0.5000 
    118 O         -1.9516  -23.4350  -57.2090 O.2       21 UNK        -0.5000 
    119 N         -2.3432  -22.4914  -55.1851 N.am      22 UNK        -0.5000 
    120 CA        -1.4509  -21.3276  -55.3554 C.3       22 UNK         0.1400 
    121 C         -2.1598  -20.0725  -55.9473 C.2       22 UNK         0.5000 
    122 N         -3.4563  -20.1076  -56.2354 N.am      22 UNK        -0.7600 
    123 O         -1.5226  -19.0459  -56.1608 O.2       22 UNK        -0.5000 
    124 C124       -0.6565  -21.0150  -54.0547 C.3       23 UNK        -0.0398 
    125 S125        1.0944  -20.6013  -54.3717 S.3       23 UNK        -0.2404 
    126 C126        1.2184  -18.8754  -53.7887 C.3       23 UNK        -0.0205 
    127 H127        4.7123  -13.5643  -45.0954 H         1 UNK         0.0600 
    128 H128        4.3155  -12.3531  -46.3185 H         1 UNK         0.0600 
    129 H129        4.3780  -14.0637  -46.7543 H         1 UNK         0.0600 
    130 H130        2.2256  -14.4692  -47.3557 H         1 UNK         0.3000 
    131 H131        0.2555  -14.7300  -45.3202 H         1 UNK         0.0600 
    132 H132        0.1775  -16.3680  -47.0257 H         1 UNK         0.0800 
    133 H133       -1.2816  -15.4383  -47.1728 H         1 UNK         0.0800 
    134 H134       -1.4196  -16.9494  -49.0493 H         1 UNK         0.0800 
    135 H135       -1.4021  -16.1104  -50.5714 H         1 UNK         0.0800 
    136 H136       -0.2247  -17.0465  -52.3892 H         1 UNK         0.1150 
    137 H137        2.4763  -20.3220  -51.8160 H         1 UNK         0.1150 
    138 H138        0.7717  -18.3293  -48.4259 H         1 UNK         0.1150 
    139 H139        3.5648  -20.3210  -49.4274 H         1 UNK         0.0800 
    140 H140        2.5196  -19.9496  -48.0834 H         1 UNK         0.0800 
    141 H141       -0.4581  -21.9009  -49.0990 H         1 UNK         0.0800 
    142 H142        0.1779  -20.8399  -47.8874 H         1 UNK         0.0800 
    143 H143        0.3934  -23.8722  -47.6068 H         1 UNK         0.0600 
    144 H144        1.0044  -21.6088  -45.8230 H         1 UNK         0.3000 
    145 H145        2.4574  -23.7148  -43.3230 H         1 UNK         0.0600 
    146 H146        4.1560  -21.9212  -43.6212 H         1 UNK         0.0600 
    147 H147        4.2084  -23.0618  -44.9565 H         1 UNK         0.0600 
    148 H148        3.4592  -21.4881  -45.1810 H         1 UNK         0.0600 
    149 H149        1.6775  -20.9153  -43.5472 H         1 UNK         0.3000 
    150 H150       -1.3261  -21.2435  -41.6814 H         1 UNK         0.0600 
    151 H151        0.3854  -21.2593  -39.8741 H         1 UNK         0.0600 
    152 H152       -0.1965  -19.6264  -40.1642 H         1 UNK         0.0600 
    153 H153        1.3807  -20.1221  -40.7758 H         1 UNK         0.0600 
    154 H154        0.2585  -19.0327  -42.6774 H         1 UNK         0.3000 
    155 H155       -1.1773  -18.9249  -45.8991 H         1 UNK         0.0600 
    156 H156       -1.8801  -17.1021  -43.5345 H         1 UNK         0.0600 
    157 H157       -3.0172  -17.8410  -44.6464 H         1 UNK         0.0600 
    158 H158       -1.9047  -16.6174  -45.2283 H         1 UNK         0.0600 
    159 H159        0.4981  -17.1212  -44.4174 H         1 UNK         0.3000 
    160 H160        3.5593  -18.7031  -44.8275 H         1 UNK         0.0600 
    161 H161        2.5272  -16.7378  -46.9344 H         1 UNK         0.0600 
    162 H162        3.5469  -18.1424  -47.1797 H         1 UNK         0.0600 
    163 H163        4.1875  -16.7475  -46.3412 H         1 UNK         0.0600 
    164 H164        2.7520  -15.9467  -44.4450 H         1 UNK         0.3000 
    165 H165        2.5237  -16.2399  -40.8773 H         1 UNK         0.0600 
    166 H166        4.2350  -14.6822  -42.8911 H         1 UNK         0.0600 
    167 H167        4.8585  -15.7231  -41.6165 H         1 UNK         0.0600 
    168 H168        3.9717  -14.2649  -41.2005 H         1 UNK         0.0600 
    169 H169        1.8444  -14.1201  -42.6846 H         1 UNK         0.3000 
    170 H170       -1.0250  -14.3896  -43.4856 H         1 UNK         0.0600 
    171 H171       -2.5144  -15.2084  -41.7487 H         1 UNK         0.0600 
    172 H172       -1.7762  -14.1752  -40.5362 H         1 UNK         0.0600 
    173 H173       -2.6910  -13.4666  -41.8672 H         1 UNK         0.0600 
    174 H174       -0.1112  -12.3734  -43.3466 H         1 UNK         0.3000 
    175 H175        0.3293  -10.1003  -41.2739 H         1 UNK         0.0600 
    176 H176        3.0978  -11.4140  -41.0909 H         1 UNK         0.0600 
    177 H177        2.7787   -9.6898  -40.9127 H         1 UNK         0.0600 
    178 H178        2.1532  -10.8190  -39.7295 H         1 UNK         0.0600 
    179 H179        1.6345  -11.3765  -43.5996 H         1 UNK         0.3000 
    180 H180        1.8507   -8.1914  -45.3116 H         1 UNK         0.0600 
    181 H181        3.6655  -10.5906  -44.7319 H         1 UNK         0.0600 
    182 H182        4.0438   -8.9023  -44.4335 H         1 UNK         0.0600 
    183 H183        3.8443   -9.4711  -46.0832 H         1 UNK         0.0600 
    184 H184        1.6639  -10.9350  -46.2159 H         1 UNK         0.3000 
    185 H185       -1.6659  -10.8200  -47.2649 H         1 UNK         0.0600 
    186 H186       -0.7768   -9.2753  -49.0049 H         1 UNK         0.0600 
    187 H187        0.7163  -10.2019  -49.0955 H         1 UNK         0.0600 
    188 H188       -0.8107  -10.9281  -49.5981 H         1 UNK         0.0600 
    189 H189        0.6773  -12.3893  -47.9781 H         1 UNK         0.3000 
    190 H190       -0.9752  -23.7161  -44.9768 H         1 UNK         0.3000 
    191 H191       -3.6419  -22.7941  -45.3034 H         1 UNK         0.0600 
    192 H192       -2.6002  -23.0871  -43.0896 H         1 UNK         0.0600 
    193 H193       -4.0340  -24.0928  -43.1867 H         1 UNK         0.0600 
    194 H194       -2.4402  -24.8243  -43.3451 H         1 UNK         0.0600 
    195 H195       -2.1411  -25.7892  -46.2967 H         1 UNK         0.3000 
    196 H196       -4.7742  -26.9675  -47.0880 H         1 UNK         0.0600 
    197 H197       -3.6539  -29.1815  -46.8309 H         1 UNK         0.0600 
    198 H198       -3.6542  -28.3211  -45.2993 H         1 UNK         0.0600 
    199 H199       -2.1816  -28.4002  -46.2653 H         1 UNK         0.0600 
    200 H200       -4.7887  -27.9527  -49.1020 H         1 UNK         0.3000 
    201 H201       -4.5167  -28.2789  -51.2400 H         1 UNK         0.0600 
    202 H202       -2.4845  -29.5588  -50.6488 H         1 UNK         0.0600 
    203 H203       -1.4941  -28.1066  -50.7691 H         1 UNK         0.0600 
    204 H204       -2.2831  -28.7555  -52.1980 H         1 UNK         0.0600 
    205 H205       -2.1825  -25.7402  -50.3754 H         1 UNK         0.3000 
    206 H206       -2.6544  -24.1077  -52.7604 H         1 UNK         0.0600 
    207 H207       -0.4537  -23.9633  -51.8205 H         1 UNK         0.0600 
    208 H208       -1.2277  -22.4658  -51.3141 H         1 UNK         0.0600 
    209 H209       -1.0634  -23.8001  -50.1803 H         1 UNK         0.0600 
    210 H210       -3.6964  -24.1800  -49.3974 H         1 UNK         0.3000 
    211 H211       -5.1949  -23.1567  -48.1425 H         1 UNK         0.0600 
    212 H212       -6.8136  -22.8315  -50.7197 H         1 UNK         0.0600 
    213 H213       -7.4478  -22.8347  -49.0814 H         1 UNK         0.0600 
    214 H214       -6.7495  -24.3016  -49.7500 H         1 UNK         0.0600 
    215 H215       -3.1359  -21.5506  -48.6618 H         1 UNK         0.3000 
    216 H216       -2.2645  -19.5005  -48.8768 H         1 UNK         0.0600 
    217 H217       -3.3766  -17.7166  -47.5877 H         1 UNK         0.0600 
    218 H218       -3.5768  -19.2513  -46.7554 H         1 UNK         0.0600 
    219 H219       -4.9172  -18.5620  -47.6673 H         1 UNK         0.0600 
    220 H220       -3.4071  -20.4359  -51.2376 H         1 UNK         0.3000 
    221 H221       -3.5786  -19.8987  -53.3338 H         1 UNK         0.0600 
    222 H222       -3.4460  -16.9219  -52.6391 H         1 UNK         0.0600 
    223 H223       -2.0992  -17.9674  -53.0985 H         1 UNK         0.0600 
    224 H224       -3.3581  -17.6077  -54.2511 H         1 UNK         0.0600 
    225 H225       -5.9590  -19.9055  -51.2811 H         1 UNK         0.3000 
    226 H226       -8.1044  -18.9817  -53.0584 H         1 UNK         0.0600 
    227 H227       -8.3612  -19.0694  -50.5459 H         1 UNK         0.0600 
    228 H228       -9.5915  -19.9761  -51.4137 H         1 UNK         0.0600 
    229 H229       -8.2748  -20.8293  -50.6290 H         1 UNK         0.0600 
    230 H230       -6.0091  -21.7430  -52.8600 H         1 UNK         0.3000 
    231 H231       -7.6402  -23.2207  -54.8640 H         1 UNK         0.0600 
    232 H232       -6.1791  -24.4013  -52.4508 H         1 UNK         0.0600 
    233 H233       -6.8883  -25.3403  -53.7663 H         1 UNK         0.0600 
    234 H234       -7.9130  -24.3813  -52.7162 H         1 UNK         0.0600 
    235 H235       -4.8210  -24.8745  -54.1665 H         1 UNK         0.3000 
    236 H236       -4.0881  -24.7172  -56.8072 H         1 UNK         0.0600 
    237 H237       -3.6130  -26.6306  -55.2998 H         1 UNK         0.0600 
    238 H238       -2.1678  -26.1373  -56.1648 H         1 UNK         0.0600 
    239 H239       -2.3643  -25.6962  -54.4767 H         1 UNK         0.0600 
    240 H240       -2.9163  -22.5135  -54.3549 H         1 UNK         0.3000 
    241 H241       -0.7150  -21.5976  -56.1148 H         1 UNK         0.0600 
    242 H242       -3.8937  -19.2845  -56.6170 H         1 UNK         0.3800 
    243 H243       -4.0157  -20.9445  -56.0985 H         1 UNK         0.3800 
    244 H244       -1.1345  -20.2403  -53.4542 H         1 UNK         0.0800 
    245 H245       -0.6266  -21.9002  -53.4230 H         1 UNK         0.0800 
    246 H246        0.4560  -18.2808  -54.2947 H         1 UNK         0.0800 
    247 H247        2.1816  -18.4714  -54.1023 H         1 UNK         0.0800 
@<TRIPOS>BOND
     1    1    2 1    
     2    1  127 1    
     3    1  128 1    
     4    1  129 1    
     5    2    3 2    
     6    2    4 am   BACKBONE|DICT|INTERRES
     7    4    5 1    
     8    4  130 1    
     9    5    6 1    
    10    5   65 1    
    11    5  131 1    
    12    6    7 1    
    13    6  132 1    
    14    6  133 1    
    15    7    8 1    
    16    8    9 1    
    17    8  134 1    
    18    8  135 1    
    19    9   10 ar   
    20    9   14 ar   
    21   10   11 ar   
    22   10  136 1    
    23   11   12 ar   
    24   11  126 1    
    25   12   13 ar   
    26   12  137 1    
    27   13   14 ar   
    28   13   15 1    
    29   14  138 1    
    30   15   16 1    
    31   15  139 1    
    32   15  140 1    
    33   16   17 1    
    34   17   18 1    
    35   17  141 1    
    36   17  142 1    
    37   18   19 1    
    38   18   67 1    
    39   18  143 1    
    40   19   20 am   BACKBONE|DICT|INTERRES
    41   19  144 1    
    42   20   21 2    
    43   20   22 1    
    44   22   23 1    
    45   22   24 1    
    46   22  145 1    
    47   23  146 1    
    48   23  147 1    
    49   23  148 1    
    50   24   25 am   BACKBONE|DICT|INTERRES
    51   24  149 1    
    52   25   26 2    
    53   25   27 1    
    54   27   28 1    
    55   27   29 1    
    56   27  150 1    
    57   28  151 1    
    58   28  152 1    
    59   28  153 1    
    60   29   30 am   BACKBONE|DICT|INTERRES
    61   29  154 1    
    62   30   31 2    
    63   30   32 1    
    64   32   33 1    
    65   32   34 1    
    66   32  155 1    
    67   33  156 1    
    68   33  157 1    
    69   33  158 1    
    70   34   35 am   BACKBONE|DICT|INTERRES
    71   34  159 1    
    72   35   36 2    
    73   35   37 1    
    74   37   38 1    
    75   37   39 1    
    76   37  160 1    
    77   38  161 1    
    78   38  162 1    
    79   38  163 1    
    80   39   40 am   BACKBONE|DICT|INTERRES
    81   39  164 1    
    82   40   41 2    
    83   40   42 1    
    84   42   43 1    
    85   42   44 1    
    86   42  165 1    
    87   43  166 1    
    88   43  167 1    
    89   43  168 1    
    90   44   45 am   BACKBONE|DICT|INTERRES
    91   44  169 1    
    92   45   46 2    
    93   45   47 1    
    94   47   48 1    
    95   47   49 1    
    96   47  170 1    
    97   48  171 1    
    98   48  172 1    
    99   48  173 1    
   100   49   50 am   BACKBONE|DICT|INTERRES
   101   49  174 1    
   102   50   51 2    
   103   50   52 1    
   104   52   53 1    
   105   52   54 1    
   106   52  175 1    
   107   53  176 1    
   108   53  177 1    
   109   53  178 1    
   110   54   55 am   BACKBONE|DICT|INTERRES
   111   54  179 1    
   112   55   56 2    
   113   55   57 1    
   114   57   58 1    
   115   57   59 1    
   116   57  180 1    
   117   58  181 1    
   118   58  182 1    
   119   58  183 1    
   120   59   60 am   BACKBONE|DICT|INTERRES
   121   59  184 1    
   122   60   61 2    
   123   60   62 1    
   124   62   63 1    
   125   62   64 1    
   126   62  185 1    
   127   63  186 1    
   128   63  187 1    
   129   63  188 1    
   130   64   65 am   BACKBONE|DICT|INTERRES
   131   64  189 1    
   132   65   66 2    
   133   67   68 2    
   134   67   69 am   BACKBONE|DICT|INTERRES
   135   69   70 1    
   136   69  190 1    
   137   70   71 1    
   138   70   72 1    
   139   70  191 1    
   140   71  192 1    
   141   71  193 1    
   142   71  194 1    
   143   72   73 2    
   144   72   74 am   BACKBONE|DICT|INTERRES
   145   74   75 1    
   146   74  195 1    
   147   75   76 1    
   148   75   77 1    
   149   75  196 1    
   150   76  197 1    
   151   76  198 1    
   152   76  199 1    
   153   77   78 2    
   154   77   79 am   BACKBONE|DICT|INTERRES
   155   79   80 1    
   156   79  200 1    
   157   80   81 1    
   158   80   82 1    
   159   80  201 1    
   160   81  202 1    
   161   81  203 1    
   162   81  204 1    
   163   82   83 2    
   164   82   84 am   BACKBONE|DICT|INTERRES
   165   84   85 1    
   166   84  205 1    
   167   85   86 1    
   168   85   87 1    
   169   85  206 1    
   170   86  207 1    
   171   86  208 1    
   172   86  209 1    
   173   87   88 2    
   174   87   89 am   BACKBONE|DICT|INTERRES
   175   89   90 1    
   176   89  210 1    
   177   90   91 1    
   178   90   92 1    
   179   90  211 1    
   180   91  212 1    
   181   91  213 1    
   182   91  214 1    
   183   92   93 2    
   184   92   94 am   BACKBONE|DICT|INTERRES
   185   94   95 1    
   186   94  215 1    
   187   95   96 1    
   188   95   97 1    
   189   95  216 1    
   190   96  217 1    
   191   96  218 1    
   192   96  219 1    
   193   97   98 2    
   194   97   99 am   BACKBONE|DICT|INTERRES
   195   99  100 1    
   196   99  220 1    
   197  100  101 1    
   198  100  102 1    
   199  100  221 1    
   200  101  222 1    
   201  101  223 1    
   202  101  224 1    
   203  102  103 2    
   204  102  104 am   BACKBONE|DICT|INTERRES
   205  104  105 1    
   206  104  225 1    
   207  105  106 1    
   208  105  107 1    
   209  105  226 1    
   210  106  227 1    
   211  106  228 1    
   212  106  229 1    
   213  107  108 2    
   214  107  109 am   BACKBONE|DICT|INTERRES
   215  109  110 1    
   216  109  230 1    
   217  110  111 1    
   218  110  112 1    
   219  110  231 1    
   220  111  232 1    
   221  111  233 1    
   222  111  234 1    
   223  112  113 2    
   224  112  114 am   BACKBONE|DICT|INTERRES
   225  114  115 1    
   226  114  235 1    
   227  115  116 1    
   228  115  117 1    
   229  115  236 1    
   230  116  237 1    
   231  116  238 1    
   232  116  239 1    
   233  117  118 2    
   234  117  119 am   BACKBONE|DICT|INTERRES
   235  119  120 1    
   236  119  240 1    
   237  120  121 1    
   238  120  124 1    
   239  120  241 1    
   240  121  122 am   BACKBONE|DICT|INTERRES
   241  121  123 2    
   242  122  242 1    
   243  122  243 1    
   244  124  125 1    
   245  124  244 1    
   246  124  245 1    
   247  125  126 1    
   248  126  246 1    
   249  126  247 1    
@<TRIPOS>SUBSTRUCTURE
     1 UNK         1 GROUP             0       ****    0 ROOT    
