@<TRIPOS>MOLECULE
3R540
247   249    1
SMALL
USER_CHARGES


@<TRIPOS>ATOM
      1 CA         -0.8352   -9.7346  -52.2593 C.3       0 UNK        -0.1800 
      2 C          -0.9964  -10.9087  -51.3049 C.2       0 UNK         0.5000 
      3 O          -0.0161  -11.3523  -50.7056 O.2       0 UNK        -0.5000 
      4 N          -2.2326  -11.4016  -51.1374 N.am      1 UNK        -0.5000 
      5 CA         -2.5697  -12.5625  -50.2982 C.3       1 UNK         0.1400 
      6 C6         -3.9869  -13.1204  -50.6007 C.3       23 UNK        -0.0398 
      7 S7         -3.9826  -14.9402  -50.7107 S.3       23 UNK        -0.2404 
      8 C8         -4.8136  -15.4281  -49.1665 C.3       23 UNK        -0.0205 
      9 C9         -4.7074  -16.9308  -48.9574 C.ar      23 UNK        -0.0193 
     10 C10        -5.4340  -17.7993  -49.7750 C.ar      23 UNK        -0.1150 
     11 C11        -5.2903  -19.1845  -49.6568 C.ar      23 UNK        -0.0193 
     12 C12        -4.4518  -19.6979  -48.6608 C.ar      23 UNK        -0.1150 
     13 C13        -3.7541  -18.8402  -47.8031 C.ar      23 UNK        -0.0193 
     14 C14        -3.8760  -17.4569  -47.9645 C.ar      23 UNK        -0.1150 
     15 C15        -2.8919  -19.4132  -46.6887 C.3       23 UNK        -0.0205 
     16 S16        -1.2360  -19.8679  -47.2852 S.3       23 UNK        -0.2404 
     17 C17        -0.6701  -20.9654  -45.9470 C.3       23 UNK        -0.0398 
     18 CA         -0.7064  -22.4673  -46.3251 C.3       11 UNK         0.1400 
     19 N           0.0222  -23.2676  -45.3363 N.am      11 UNK        -0.5000 
     20 C           0.1116  -24.6067  -45.3045 C.2       10 UNK         0.5000 
     21 O          -0.3285  -25.3443  -46.1878 O.2       10 UNK        -0.5000 
     22 CA          0.7259  -25.2408  -44.0396 C.3       10 UNK         0.1400 
     23 CB          2.2027  -25.5814  -44.2835 C.3       10 UNK        -0.1800 
     24 N           0.6192  -24.4153  -42.8314 N.am      10 UNK        -0.5000 
     25 C          -0.5003  -23.8767  -42.3224 C.2       9 UNK         0.5000 
     26 O          -1.6247  -24.0596  -42.7906 O.2       9 UNK        -0.5000 
     27 CA         -0.3328  -22.9102  -41.1351 C.3       9 UNK         0.1400 
     28 CB         -0.5536  -23.6562  -39.8112 C.3       9 UNK        -0.1800 
     29 N           0.9555  -22.2060  -41.0844 N.am      9 UNK        -0.5000 
     30 C           1.4897  -21.4639  -42.0658 C.2       8 UNK         0.5000 
     31 O           1.0043  -21.3656  -43.1963 O.2       8 UNK        -0.5000 
     32 CA          2.8226  -20.7654  -41.7317 C.3       8 UNK         0.1400 
     33 CB          3.9904  -21.7533  -41.8841 C.3       8 UNK        -0.1800 
     34 N           3.0837  -19.6009  -42.5795 N.am      8 UNK        -0.5000 
     35 C           2.3328  -18.4925  -42.6259 C.2       7 UNK         0.5000 
     36 O           1.3549  -18.3005  -41.8974 O.2       7 UNK        -0.5000 
     37 CA          2.7664  -17.4368  -43.6649 C.3       7 UNK         0.1400 
     38 CB          2.7291  -18.0112  -45.0935 C.3       7 UNK        -0.1800 
     39 N           1.9402  -16.2286  -43.6085 N.am      7 UNK        -0.5000 
     40 C           2.0565  -15.2727  -42.6748 C.2       6 UNK         0.5000 
     41 O           2.9084  -15.3033  -41.7843 O.2       6 UNK        -0.5000 
     42 CA          1.0953  -14.0656  -42.7362 C.3       6 UNK         0.1400 
     43 CB          1.8689  -12.7790  -43.0681 C.3       6 UNK        -0.1800 
     44 N           0.0116  -14.2200  -43.7062 N.am      6 UNK        -0.5000 
     45 C          -1.1205  -14.9061  -43.5006 C.2       5 UNK         0.5000 
     46 O          -1.4111  -15.4418  -42.4309 O.2       5 UNK        -0.5000 
     47 CA         -2.0801  -15.0364  -44.7028 C.3       5 UNK         0.1400 
     48 CB         -3.1212  -13.9079  -44.6944 C.3       5 UNK        -0.1800 
     49 N          -1.3915  -15.0426  -45.9957 N.am      5 UNK        -0.5000 
     50 C          -0.5116  -15.9761  -46.3820 C.2       4 UNK         0.5000 
     51 O          -0.2177  -16.9491  -45.6928 O.2       4 UNK        -0.5000 
     52 CA          0.2057  -15.7465  -47.7220 C.3       4 UNK         0.1400 
     53 CB         -0.6767  -16.1643  -48.9054 C.3       4 UNK        -0.1800 
     54 N           0.6106  -14.3507  -47.8815 N.am      4 UNK        -0.5000 
     55 C           1.6274  -13.7753  -47.2247 C.2       3 UNK         0.5000 
     56 O           2.3767  -14.3804  -46.4592 O.2       3 UNK        -0.5000 
     57 CA          1.8232  -12.2625  -47.4381 C.3       3 UNK         0.1400 
     58 CB          2.7307  -12.0012  -48.6492 C.3       3 UNK        -0.1800 
     59 N           0.5548  -11.5538  -47.6186 N.am      3 UNK        -0.5000 
     60 C          -0.3376  -11.3493  -46.6368 C.2       2 UNK         0.5000 
     61 O          -0.1551  -11.6950  -45.4705 O.2       2 UNK        -0.5000 
     62 CA         -1.6812  -10.6995  -47.0293 C.3       2 UNK         0.1400 
     63 CB         -1.5902   -9.1700  -46.9289 C.3       2 UNK        -0.1800 
     64 N          -2.1238  -11.0688  -48.3752 N.am      2 UNK        -0.5000 
     65 C          -2.3529  -12.3245  -48.7856 C.2       1 UNK         0.5000 
     66 O          -2.3347  -13.2859  -48.0194 O.2       1 UNK        -0.5000 
     67 C          -2.1526  -22.9716  -46.5404 C.2       11 UNK         0.5000 
     68 O          -2.5835  -23.0951  -47.6883 O.2       11 UNK        -0.5000 
     69 N          -2.8401  -23.2992  -45.4378 N.am      12 UNK        -0.5000 
     70 CA         -4.1954  -23.8413  -45.4345 C.3       12 UNK         0.1400 
     71 CB         -5.0433  -23.0555  -44.4226 C.3       12 UNK        -0.1800 
     72 C          -4.2051  -25.3407  -45.0937 C.2       12 UNK         0.5000 
     73 O          -4.9266  -26.0971  -45.7425 O.2       12 UNK        -0.5000 
     74 N          -3.4116  -25.7532  -44.0937 N.am      13 UNK        -0.5000 
     75 CA         -3.4227  -27.1039  -43.5222 C.3       13 UNK         0.1400 
     76 CB         -2.6450  -27.1061  -42.1969 C.3       13 UNK        -0.1800 
     77 C          -2.8784  -28.1886  -44.4677 C.2       13 UNK         0.5000 
     78 O          -3.3930  -29.3073  -44.4595 O.2       13 UNK        -0.5000 
     79 N          -1.8690  -27.8356  -45.2733 N.am      14 UNK        -0.5000 
     80 CA         -1.3099  -28.6841  -46.3297 C.3       14 UNK         0.1400 
     81 CB          0.2234  -28.7009  -46.1998 C.3       14 UNK        -0.1800 
     82 C          -1.7448  -28.1960  -47.7258 C.2       14 UNK         0.5000 
     83 O          -1.3322  -28.7851  -48.7255 O.2       14 UNK        -0.5000 
     84 N          -2.5572  -27.1271  -47.7660 N.am      15 UNK        -0.5000 
     85 CA         -3.0609  -26.4179  -48.9440 C.3       15 UNK         0.1400 
     86 CB         -4.0716  -27.2948  -49.7114 C.3       15 UNK        -0.1800 
     87 C          -1.9345  -25.8632  -49.8412 C.2       15 UNK         0.5000 
     88 O          -2.0673  -25.8667  -51.0666 O.2       15 UNK        -0.5000 
     89 N          -0.8369  -25.4037  -49.2188 N.am      16 UNK        -0.5000 
     90 CA          0.3359  -24.8688  -49.9143 C.3       16 UNK         0.1400 
     91 CB          1.5126  -24.7580  -48.9327 C.3       16 UNK        -0.1800 
     92 C           0.0750  -23.5252  -50.6247 C.2       16 UNK         0.5000 
     93 O           0.7867  -23.2108  -51.5791 O.2       16 UNK        -0.5000 
     94 N          -0.9336  -22.7696  -50.1611 N.am      17 UNK        -0.5000 
     95 CA         -1.5023  -21.5302  -50.7118 C.3       17 UNK         0.1400 
     96 CB         -2.1206  -21.7846  -52.0983 C.3       17 UNK        -0.1800 
     97 C          -0.5752  -20.2977  -50.7481 C.2       17 UNK         0.5000 
     98 O          -1.0715  -19.1877  -50.5675 O.2       17 UNK        -0.5000 
     99 N           0.7313  -20.4960  -50.9756 N.am      18 UNK        -0.5000 
    100 CA         1.8158  -19.5119  -51.0894 C.3       18 UNK         0.1400 
    101 CB         2.0487  -18.7754  -49.7557 C.3       18 UNK        -0.1800 
    102 C          1.6282  -18.5435  -52.2746 C.2       18 UNK         0.5000 
    103 O          2.3871  -18.6074  -53.2425 O.2       18 UNK        -0.5000 
    104 N          0.5870  -17.7088  -52.2033 N.am      19 UNK        -0.5000 
    105 CA         0.0194  -16.9681  -53.3214 C.3       19 UNK         0.1400 
    106 CB        -0.6176  -15.6711  -52.7910 C.3       19 UNK        -0.1800 
    107 C         -1.0105  -17.8997  -53.9802 C.2       19 UNK         0.5000 
    108 O         -2.1737  -17.9066  -53.5794 O.2       19 UNK        -0.5000 
    109 N         -0.5399  -18.7235  -54.9268 N.am      20 UNK        -0.5000 
    110 CA        -1.2336  -19.8864  -55.4980 C.3       20 UNK         0.1400 
    111 CB        -0.3214  -20.5335  -56.5513 C.3       20 UNK        -0.1800 
    112 C         -2.6374  -19.6336  -56.0864 C.2       20 UNK         0.5000 
    113 O         -3.4360  -20.5684  -56.1584 O.2       20 UNK        -0.5000 
    114 N         -2.9188  -18.3885  -56.4894 N.am      21 UNK        -0.5000 
    115 CA        -4.2314  -17.9458  -56.9595 C.3       21 UNK         0.1400 
    116 CB        -4.0617  -16.6117  -57.7037 C.3       21 UNK        -0.1800 
    117 C         -5.2778  -17.8027  -55.8330 C.2       21 UNK         0.5000 
    118 O         -6.4727  -17.8042  -56.1319 O.2       21 UNK        -0.5000 
    119 N         -4.8247  -17.6582  -54.5779 N.am      22 UNK        -0.5000 
    120 CA        -5.6388  -17.4183  -53.3716 C.3       22 UNK         0.1400 
    121 C         -6.4352  -16.0735  -53.3814 C.2       22 UNK         0.5000 
    122 N         -6.0467  -15.0825  -54.1756 N.am      22 UNK        -0.7600 
    123 O         -7.4021  -15.9060  -52.6428 O.2       22 UNK        -0.5000 
    124 C124       -6.5107  -18.6475  -52.9753 C.3       23 UNK        -0.0398 
    125 S125       -5.5127  -20.0335  -52.3219 S.3       23 UNK        -0.2404 
    126 C126       -6.0591  -20.1259  -50.5790 C.3       23 UNK        -0.0205 
    127 H127       -0.4258   -8.8745  -51.7295 H         1 UNK         0.0600 
    128 H128       -1.7858   -9.4401  -52.7046 H         1 UNK         0.0600 
    129 H129       -0.1494   -9.9987  -53.0642 H         1 UNK         0.0600 
    130 H130       -3.0016  -10.9818  -51.6409 H         1 UNK         0.3000 
    131 H131       -1.8392  -13.3272  -50.5729 H         1 UNK         0.0600 
    132 H132       -4.3393  -12.7635  -51.5693 H         1 UNK         0.0800 
    133 H133       -4.7320  -12.7808  -49.8786 H         1 UNK         0.0800 
    134 H134       -4.3726  -14.8954  -48.3236 H         1 UNK         0.0800 
    135 H135       -5.8634  -15.1349  -49.2095 H         1 UNK         0.0800 
    136 H136       -6.0926  -17.3846  -50.5217 H         1 UNK         0.1150 
    137 H137       -4.3444  -20.7675  -48.5433 H         1 UNK         0.1150 
    138 H138       -3.3227  -16.7906  -47.3184 H         1 UNK         0.1150 
    139 H139       -2.7898  -18.6928  -45.8754 H         1 UNK         0.0800 
    140 H140       -3.3899  -20.2866  -46.2662 H         1 UNK         0.0800 
    141 H141       -1.2347  -20.7720  -45.0330 H         1 UNK         0.0800 
    142 H142        0.3565  -20.6713  -45.7248 H         1 UNK         0.0800 
    143 H143       -0.1802  -22.5835  -47.2725 H         1 UNK         0.0600 
    144 H144        0.4121  -22.7463  -44.5566 H         1 UNK         0.3000 
    145 H145        0.1886  -26.1707  -43.8491 H         1 UNK         0.0600 
    146 H146        2.8018  -24.6828  -44.4370 H         1 UNK         0.0600 
    147 H147        2.6261  -26.1285  -43.4411 H         1 UNK         0.0600 
    148 H148        2.3201  -26.2092  -45.1680 H         1 UNK         0.0600 
    149 H149        1.4894  -24.1856  -42.3749 H         1 UNK         0.3000 
    150 H150       -1.1106  -22.1503  -41.2324 H         1 UNK         0.0600 
    151 H151        0.2219  -24.4030  -39.6362 H         1 UNK         0.0600 
    152 H152       -1.5141  -24.1740  -39.8089 H         1 UNK         0.0600 
    153 H153       -0.5562  -22.9686  -38.9653 H         1 UNK         0.0600 
    154 H154        1.4409  -22.2484  -40.1997 H         1 UNK         0.3000 
    155 H155        2.7822  -20.4226  -40.6958 H         1 UNK         0.0600 
    156 H156        4.0755  -22.1201  -42.9080 H         1 UNK         0.0600 
    157 H157        3.8616  -22.6205  -41.2352 H         1 UNK         0.0600 
    158 H158        4.9389  -21.2885  -41.6140 H         1 UNK         0.0600 
    159 H159        3.8528  -19.6902  -43.2265 H         1 UNK         0.3000 
    160 H160        3.7974  -17.1533  -43.4435 H         1 UNK         0.0600 
    161 H161        1.7818  -18.5077  -45.3048 H         1 UNK         0.0600 
    162 H162        3.5174  -18.7495  -45.2415 H         1 UNK         0.0600 
    163 H163        2.8755  -17.2316  -45.8417 H         1 UNK         0.0600 
    164 H164        1.1835  -16.1747  -44.2794 H         1 UNK         0.3000 
    165 H165        0.6609  -13.9491  -41.7412 H         1 UNK         0.0600 
    166 H166        1.2147  -11.9075  -43.0396 H         1 UNK         0.0600 
    167 H167        2.6708  -12.6039  -42.3499 H         1 UNK         0.0600 
    168 H168        2.3201  -12.8272  -44.0597 H         1 UNK         0.0600 
    169 H169        0.1384  -13.7594  -44.5983 H         1 UNK         0.3000 
    170 H170       -2.6062  -15.9882  -44.6043 H         1 UNK         0.0600 
    171 H171       -2.6497  -12.9289  -44.7805 H         1 UNK         0.0600 
    172 H172       -3.8266  -14.0145  -45.5190 H         1 UNK         0.0600 
    173 H173       -3.6970  -13.9150  -43.7683 H         1 UNK         0.0600 
    174 H174       -1.6263  -14.2955  -46.6455 H         1 UNK         0.3000 
    175 H175        1.1013  -16.3714  -47.7315 H         1 UNK         0.0600 
    176 H176       -0.9891  -17.2036  -48.8066 H         1 UNK         0.0600 
    177 H177       -1.5827  -15.5653  -48.9753 H         1 UNK         0.0600 
    178 H178       -0.1396  -16.0720  -49.8483 H         1 UNK         0.0600 
    179 H179        0.0173  -13.7699  -48.4549 H         1 UNK         0.3000 
    180 H180        2.3173  -11.8612  -46.5506 H         1 UNK         0.0600 
    181 H181        2.2940  -12.3870  -49.5712 H         1 UNK         0.0600 
    182 H182        3.7013  -12.4818  -48.5197 H         1 UNK         0.0600 
    183 H183        2.9112  -10.9346  -48.7845 H         1 UNK         0.0600 
    184 H184        0.3234  -11.2724  -48.5647 H         1 UNK         0.3000 
    185 H185       -2.4376  -11.0457  -46.3226 H         1 UNK         0.0600 
    186 H186       -2.5550   -8.7032  -47.1279 H         1 UNK         0.0600 
    187 H187       -1.2818   -8.8627  -45.9286 H         1 UNK         0.0600 
    188 H188       -0.8665   -8.7622  -47.6358 H         1 UNK         0.0600 
    189 H189       -2.1502  -10.3317  -49.0642 H         1 UNK         0.3000 
    190 H190       -2.3757  -23.2433  -44.5384 H         1 UNK         0.3000 
    191 H191       -4.6563  -23.7226  -46.4176 H         1 UNK         0.0600 
    192 H192       -5.0991  -22.0011  -44.6938 H         1 UNK         0.0600 
    193 H193       -6.0647  -23.4367  -44.3880 H         1 UNK         0.0600 
    194 H194       -4.6326  -23.1199  -43.4140 H         1 UNK         0.0600 
    195 H195       -2.8286  -25.0732  -43.6091 H         1 UNK         0.3000 
    196 H196       -4.4613  -27.3576  -43.2994 H         1 UNK         0.0600 
    197 H197       -2.6968  -28.0837  -41.7160 H         1 UNK         0.0600 
    198 H198       -3.0551  -26.3779  -41.4969 H         1 UNK         0.0600 
    199 H199       -1.5912  -26.8707  -42.3451 H         1 UNK         0.0600 
    200 H200       -1.5148  -26.8882  -45.2387 H         1 UNK         0.3000 
    201 H201       -1.6651  -29.7111  -46.2259 H         1 UNK         0.0600 
    202 H202        0.6643  -29.4129  -46.8984 H         1 UNK         0.0600 
    203 H203        0.5323  -28.9976  -45.1974 H         1 UNK         0.0600 
    204 H204        0.6625  -27.7269  -46.4124 H         1 UNK         0.0600 
    205 H205       -2.8599  -26.7517  -46.8793 H         1 UNK         0.3000 
    206 H206       -3.6015  -25.5486  -48.5672 H         1 UNK         0.0600 
    207 H207       -4.8613  -27.6533  -49.0510 H         1 UNK         0.0600 
    208 H208       -4.5515  -26.7304  -50.5117 H         1 UNK         0.0600 
    209 H209       -3.5924  -28.1632  -50.1645 H         1 UNK         0.0600 
    210 H210       -0.7901  -25.4452  -48.2059 H         1 UNK         0.3000 
    211 H211        0.6168  -25.5890  -50.6856 H         1 UNK         0.0600 
    212 H212        1.3218  -24.0319  -48.1447 H         1 UNK         0.0600 
    213 H213        2.4211  -24.4458  -49.4491 H         1 UNK         0.0600 
    214 H214        1.7221  -25.7171  -48.4583 H         1 UNK         0.0600 
    215 H215       -1.4346  -23.1189  -49.3501 H         1 UNK         0.3000 
    216 H216       -2.3193  -21.2677  -50.0383 H         1 UNK         0.0600 
    217 H217       -2.5738  -20.8747  -52.4947 H         1 UNK         0.0600 
    218 H218       -2.9036  -22.5410  -52.0462 H         1 UNK         0.0600 
    219 H219       -1.3763  -22.1207  -52.8199 H         1 UNK         0.0600 
    220 H220        0.9959  -21.4570  -51.1813 H         1 UNK         0.3000 
    221 H221        2.7181  -20.0880  -51.2998 H         1 UNK         0.0600 
    222 H222        1.1609  -18.2428  -49.4205 H         1 UNK         0.0600 
    223 H223        2.3272  -19.4745  -48.9671 H         1 UNK         0.0600 
    224 H224        2.8547  -18.0463  -49.8453 H         1 UNK         0.0600 
    225 H225       -0.0522  -17.8734  -51.4281 H         1 UNK         0.3000 
    226 H226        0.7926  -16.7058  -54.0464 H         1 UNK         0.0600 
    227 H227        0.1303  -15.0232  -52.3336 H         1 UNK         0.0600 
    228 H228       -1.0886  -15.1087  -53.5979 H         1 UNK         0.0600 
    229 H229       -1.3838  -15.8733  -52.0415 H         1 UNK         0.0600 
    230 H230        0.4383  -18.6435  -55.1678 H         1 UNK         0.3000 
    231 H231       -1.3639  -20.6017  -54.6856 H         1 UNK         0.0600 
    232 H232       -0.1086  -19.8478  -57.3723 H         1 UNK         0.0600 
    233 H233       -0.7843  -21.4242  -56.9787 H         1 UNK         0.0600 
    234 H234        0.6288  -20.8428  -56.1153 H         1 UNK         0.0600 
    235 H235       -2.2047  -17.6820  -56.3924 H         1 UNK         0.3000 
    236 H236       -4.6122  -18.6842  -57.6684 H         1 UNK         0.0600 
    237 H237       -3.3852  -16.7165  -58.5521 H         1 UNK         0.0600 
    238 H238       -5.0166  -16.2569  -58.0939 H         1 UNK         0.0600 
    239 H239       -3.6643  -15.8338  -57.0505 H         1 UNK         0.0600 
    240 H240       -3.8235  -17.7119  -54.4040 H         1 UNK         0.3000 
    241 H241       -4.9078  -17.2727  -52.5763 H         1 UNK         0.0600 
    242 H242       -6.5593  -14.2151  -54.1711 H         1 UNK         0.3800 
    243 H243       -5.2451  -15.1907  -54.7749 H         1 UNK         0.3800 
    244 H244       -7.2578  -18.3844  -52.2269 H         1 UNK         0.0800 
    245 H245       -7.0834  -19.0055  -53.8309 H         1 UNK         0.0800 
    246 H246       -5.9300  -21.1567  -50.2457 H         1 UNK         0.0800 
    247 H247       -7.1281  -19.9233  -50.5042 H         1 UNK         0.0800 
@<TRIPOS>BOND
     1    1    2 1    
     2    1  127 1    
     3    1  128 1    
     4    1  129 1    
     5    2    3 2    
     6    2    4 am   BACKBONE|DICT|INTERRES
     7    4    5 1    
     8    4  130 1    
     9    5    6 1    
    10    5   65 1    
    11    5  131 1    
    12    6    7 1    
    13    6  132 1    
    14    6  133 1    
    15    7    8 1    
    16    8    9 1    
    17    8  134 1    
    18    8  135 1    
    19    9   10 ar   
    20    9   14 ar   
    21   10   11 ar   
    22   10  136 1    
    23   11   12 ar   
    24   11  126 1    
    25   12   13 ar   
    26   12  137 1    
    27   13   14 ar   
    28   13   15 1    
    29   14  138 1    
    30   15   16 1    
    31   15  139 1    
    32   15  140 1    
    33   16   17 1    
    34   17   18 1    
    35   17  141 1    
    36   17  142 1    
    37   18   19 1    
    38   18   67 1    
    39   18  143 1    
    40   19   20 am   BACKBONE|DICT|INTERRES
    41   19  144 1    
    42   20   21 2    
    43   20   22 1    
    44   22   23 1    
    45   22   24 1    
    46   22  145 1    
    47   23  146 1    
    48   23  147 1    
    49   23  148 1    
    50   24   25 am   BACKBONE|DICT|INTERRES
    51   24  149 1    
    52   25   26 2    
    53   25   27 1    
    54   27   28 1    
    55   27   29 1    
    56   27  150 1    
    57   28  151 1    
    58   28  152 1    
    59   28  153 1    
    60   29   30 am   BACKBONE|DICT|INTERRES
    61   29  154 1    
    62   30   31 2    
    63   30   32 1    
    64   32   33 1    
    65   32   34 1    
    66   32  155 1    
    67   33  156 1    
    68   33  157 1    
    69   33  158 1    
    70   34   35 am   BACKBONE|DICT|INTERRES
    71   34  159 1    
    72   35   36 2    
    73   35   37 1    
    74   37   38 1    
    75   37   39 1    
    76   37  160 1    
    77   38  161 1    
    78   38  162 1    
    79   38  163 1    
    80   39   40 am   BACKBONE|DICT|INTERRES
    81   39  164 1    
    82   40   41 2    
    83   40   42 1    
    84   42   43 1    
    85   42   44 1    
    86   42  165 1    
    87   43  166 1    
    88   43  167 1    
    89   43  168 1    
    90   44   45 am   BACKBONE|DICT|INTERRES
    91   44  169 1    
    92   45   46 2    
    93   45   47 1    
    94   47   48 1    
    95   47   49 1    
    96   47  170 1    
    97   48  171 1    
    98   48  172 1    
    99   48  173 1    
   100   49   50 am   BACKBONE|DICT|INTERRES
   101   49  174 1    
   102   50   51 2    
   103   50   52 1    
   104   52   53 1    
   105   52   54 1    
   106   52  175 1    
   107   53  176 1    
   108   53  177 1    
   109   53  178 1    
   110   54   55 am   BACKBONE|DICT|INTERRES
   111   54  179 1    
   112   55   56 2    
   113   55   57 1    
   114   57   58 1    
   115   57   59 1    
   116   57  180 1    
   117   58  181 1    
   118   58  182 1    
   119   58  183 1    
   120   59   60 am   BACKBONE|DICT|INTERRES
   121   59  184 1    
   122   60   61 2    
   123   60   62 1    
   124   62   63 1    
   125   62   64 1    
   126   62  185 1    
   127   63  186 1    
   128   63  187 1    
   129   63  188 1    
   130   64   65 am   BACKBONE|DICT|INTERRES
   131   64  189 1    
   132   65   66 2    
   133   67   68 2    
   134   67   69 am   BACKBONE|DICT|INTERRES
   135   69   70 1    
   136   69  190 1    
   137   70   71 1    
   138   70   72 1    
   139   70  191 1    
   140   71  192 1    
   141   71  193 1    
   142   71  194 1    
   143   72   73 2    
   144   72   74 am   BACKBONE|DICT|INTERRES
   145   74   75 1    
   146   74  195 1    
   147   75   76 1    
   148   75   77 1    
   149   75  196 1    
   150   76  197 1    
   151   76  198 1    
   152   76  199 1    
   153   77   78 2    
   154   77   79 am   BACKBONE|DICT|INTERRES
   155   79   80 1    
   156   79  200 1    
   157   80   81 1    
   158   80   82 1    
   159   80  201 1    
   160   81  202 1    
   161   81  203 1    
   162   81  204 1    
   163   82   83 2    
   164   82   84 am   BACKBONE|DICT|INTERRES
   165   84   85 1    
   166   84  205 1    
   167   85   86 1    
   168   85   87 1    
   169   85  206 1    
   170   86  207 1    
   171   86  208 1    
   172   86  209 1    
   173   87   88 2    
   174   87   89 am   BACKBONE|DICT|INTERRES
   175   89   90 1    
   176   89  210 1    
   177   90   91 1    
   178   90   92 1    
   179   90  211 1    
   180   91  212 1    
   181   91  213 1    
   182   91  214 1    
   183   92   93 2    
   184   92   94 am   BACKBONE|DICT|INTERRES
   185   94   95 1    
   186   94  215 1    
   187   95   96 1    
   188   95   97 1    
   189   95  216 1    
   190   96  217 1    
   191   96  218 1    
   192   96  219 1    
   193   97   98 2    
   194   97   99 am   BACKBONE|DICT|INTERRES
   195   99  100 1    
   196   99  220 1    
   197  100  101 1    
   198  100  102 1    
   199  100  221 1    
   200  101  222 1    
   201  101  223 1    
   202  101  224 1    
   203  102  103 2    
   204  102  104 am   BACKBONE|DICT|INTERRES
   205  104  105 1    
   206  104  225 1    
   207  105  106 1    
   208  105  107 1    
   209  105  226 1    
   210  106  227 1    
   211  106  228 1    
   212  106  229 1    
   213  107  108 2    
   214  107  109 am   BACKBONE|DICT|INTERRES
   215  109  110 1    
   216  109  230 1    
   217  110  111 1    
   218  110  112 1    
   219  110  231 1    
   220  111  232 1    
   221  111  233 1    
   222  111  234 1    
   223  112  113 2    
   224  112  114 am   BACKBONE|DICT|INTERRES
   225  114  115 1    
   226  114  235 1    
   227  115  116 1    
   228  115  117 1    
   229  115  236 1    
   230  116  237 1    
   231  116  238 1    
   232  116  239 1    
   233  117  118 2    
   234  117  119 am   BACKBONE|DICT|INTERRES
   235  119  120 1    
   236  119  240 1    
   237  120  121 1    
   238  120  124 1    
   239  120  241 1    
   240  121  122 am   BACKBONE|DICT|INTERRES
   241  121  123 2    
   242  122  242 1    
   243  122  243 1    
   244  124  125 1    
   245  124  244 1    
   246  124  245 1    
   247  125  126 1    
   248  126  246 1    
   249  126  247 1    
@<TRIPOS>SUBSTRUCTURE
     1 UNK         1 GROUP             0       ****    0 ROOT    
