@<TRIPOS>MOLECULE
3R540
247   249    1
SMALL
USER_CHARGES


@<TRIPOS>ATOM
      1 CA          0.9589   -8.6626  -49.2775 C.3       0 UNK        -0.1800 
      2 C           1.0713  -10.1686  -49.4640 C.2       0 UNK         0.5000 
      3 O           2.0376  -10.6438  -50.0615 O.2       0 UNK        -0.5000 
      4 N           0.0976  -10.9266  -48.9407 N.am      1 UNK        -0.5000 
      5 CA          0.0292  -12.3917  -49.0363 C.3       1 UNK         0.1400 
      6 C6         -1.3806  -12.9368  -48.7075 C.3       23 UNK        -0.0398 
      7 S7         -1.9833  -12.5817  -47.0127 S.3       23 UNK        -0.2404 
      8 C8         -1.5870  -14.1057  -46.0847 C.3       23 UNK        -0.0205 
      9 C9         -2.1188  -15.3594  -46.7624 C.ar      23 UNK        -0.0193 
     10 C10        -3.4904  -15.6305  -46.7854 C.ar      23 UNK        -0.1150 
     11 C11        -3.9780  -16.7544  -47.4591 C.ar      23 UNK        -0.0193 
     12 C12        -3.0805  -17.6022  -48.1121 C.ar      23 UNK        -0.1150 
     13 C13        -1.7077  -17.3437  -48.0958 C.ar      23 UNK        -0.0193 
     14 C14        -1.2331  -16.2309  -47.4012 C.ar      23 UNK        -0.1150 
     15 C15        -0.7276  -18.2289  -48.8542 C.3       23 UNK        -0.0205 
     16 S16        -1.1220  -20.0035  -48.7757 S.3       23 UNK        -0.2404 
     17 C17        -1.3063  -20.2569  -46.9849 C.3       23 UNK        -0.0398 
     18 CA         -0.8076  -21.6472  -46.5376 C.3       11 UNK         0.1400 
     19 N          -0.3144  -21.6072  -45.1617 N.am      11 UNK        -0.5000 
     20 C           0.2962  -22.6149  -44.5269 C.2       10 UNK         0.5000 
     21 O           0.5697  -23.6932  -45.0521 O.2       10 UNK        -0.5000 
     22 CA          0.5886  -22.3924  -43.0333 C.3       10 UNK         0.1400 
     23 CB          1.8927  -21.6030  -42.8379 C.3       10 UNK        -0.1800 
     24 N          -0.5169  -21.6975  -42.3695 N.am      10 UNK        -0.5000 
     25 C          -1.7279  -22.2364  -42.1630 C.2       9 UNK         0.5000 
     26 O          -2.0170  -23.3964  -42.4559 O.2       9 UNK        -0.5000 
     27 CA         -2.8090  -21.3082  -41.5791 C.3       9 UNK         0.1400 
     28 CB         -2.6768  -21.2160  -40.0518 C.3       9 UNK        -0.1800 
     29 N          -2.7642  -19.9617  -42.1525 N.am      9 UNK        -0.5000 
     30 C          -3.0380  -19.6674  -43.4324 C.2       8 UNK         0.5000 
     31 O          -3.4036  -20.5001  -44.2587 O.2       8 UNK        -0.5000 
     32 CA         -2.8133  -18.2090  -43.8762 C.3       8 UNK         0.1400 
     33 CB         -4.0914  -17.3826  -43.6745 C.3       8 UNK        -0.1800 
     34 N          -1.7022  -17.5674  -43.1686 N.am      8 UNK        -0.5000 
     35 C          -0.4260  -17.9631  -43.2509 C.2       7 UNK         0.5000 
     36 O          -0.0401  -18.9018  -43.9541 O.2       7 UNK        -0.5000 
     37 CA          0.5674  -17.2379  -42.3384 C.3       7 UNK         0.1400 
     38 CB          0.5667  -17.8620  -40.9314 C.3       7 UNK        -0.1800 
     39 N           1.8964  -17.3425  -42.9224 N.am      7 UNK        -0.5000 
     40 C           2.8965  -16.4759  -42.7335 C.2       6 UNK         0.5000 
     41 O           2.8260  -15.5088  -41.9736 O.2       6 UNK        -0.5000 
     42 CA          4.2001  -16.7189  -43.5222 C.3       6 UNK         0.1400 
     43 CB          5.2581  -17.3676  -42.6157 C.3       6 UNK        -0.1800 
     44 N           4.0502  -17.5376  -44.7305 N.am      6 UNK        -0.5000 
     45 C           3.3260  -17.1954  -45.8029 C.2       5 UNK         0.5000 
     46 O           2.6107  -16.1939  -45.8619 O.2       5 UNK        -0.5000 
     47 CA          3.3882  -18.1462  -47.0019 C.3       5 UNK         0.1400 
     48 CB          2.3648  -19.2840  -46.8397 C.3       5 UNK        -0.1800 
     49 N           3.1167  -17.3600  -48.2006 N.am      5 UNK        -0.5000 
     50 C           3.4375  -17.7034  -49.4521 C.2       4 UNK         0.5000 
     51 O           3.9235  -18.7915  -49.7622 O.2       4 UNK        -0.5000 
     52 CA          3.2159  -16.6346  -50.5356 C.3       4 UNK         0.1400 
     53 CB          1.7445  -16.5863  -50.9763 C.3       4 UNK        -0.1800 
     54 N           3.6432  -15.3085  -50.0830 N.am      4 UNK        -0.5000 
     55 C           4.9155  -14.8815  -50.1090 C.2       3 UNK         0.5000 
     56 O           5.8499  -15.5633  -50.5324 O.2       3 UNK        -0.5000 
     57 CA          5.2095  -13.4550  -49.5990 C.3       3 UNK         0.1400 
     58 CB          5.2611  -12.4670  -50.7744 C.3       3 UNK        -0.1800 
     59 N           4.2328  -12.9728  -48.6255 N.am      3 UNK        -0.5000 
     60 C           4.1445  -13.3935  -47.3558 C.2       2 UNK         0.5000 
     61 O           4.9547  -14.1628  -46.8384 O.2       2 UNK        -0.5000 
     62 CA          2.9479  -12.8739  -46.5272 C.3       2 UNK         0.1400 
     63 CB          3.3958  -11.7340  -45.6001 C.3       2 UNK        -0.1800 
     64 N           1.8098  -12.4086  -47.3268 N.am      2 UNK        -0.5000 
     65 C           1.1364  -13.1216  -48.2430 C.2       1 UNK         0.5000 
     66 O           1.3935  -14.2951  -48.5095 O.2       1 UNK        -0.5000 
     67 C          -1.8989  -22.7217  -46.7395 C.2       11 UNK         0.5000 
     68 O          -1.8772  -23.4364  -47.7422 O.2       11 UNK        -0.5000 
     69 N          -2.8246  -22.8303  -45.7768 N.am      12 UNK        -0.5000 
     70 CA         -3.8779  -23.8427  -45.7395 C.3       12 UNK         0.1400 
     71 CB         -4.9178  -23.4718  -44.6729 C.3       12 UNK        -0.1800 
     72 C          -3.3265  -25.2587  -45.5101 C.2       12 UNK         0.5000 
     73 O          -3.7726  -26.1886  -46.1810 O.2       12 UNK        -0.5000 
     74 N          -2.3351  -25.3957  -44.6174 N.am      13 UNK        -0.5000 
     75 CA         -1.6163  -26.6485  -44.3628 C.3       13 UNK         0.1400 
     76 CB         -0.6918  -26.4759  -43.1485 C.3       13 UNK        -0.1800 
     77 C          -0.8257  -27.1452  -45.5902 C.2       13 UNK         0.5000 
     78 O          -0.7782  -28.3502  -45.8384 O.2       13 UNK        -0.5000 
     79 N          -0.2619  -26.2042  -46.3592 N.am      14 UNK        -0.5000 
     80 CA          0.4002  -26.4457  -47.6429 C.3       14 UNK         0.1400 
     81 CB          1.3010  -25.2406  -47.9606 C.3       14 UNK        -0.1800 
     82 C          -0.5811  -26.7016  -48.8082 C.2       14 UNK         0.5000 
     83 O          -0.1346  -27.0900  -49.8880 O.2       14 UNK        -0.5000 
     84 N          -1.8817  -26.4542  -48.5844 N.am      15 UNK        -0.5000 
     85 CA         -2.9959  -26.5096  -49.5399 C.3       15 UNK         0.1400 
     86 CB         -3.1943  -27.9374  -50.0879 C.3       15 UNK        -0.1800 
     87 C          -2.9112  -25.4475  -50.6583 C.2       15 UNK         0.5000 
     88 O          -3.5844  -25.5765  -51.6813 O.2       15 UNK        -0.5000 
     89 N          -2.1148  -24.3955  -50.4360 N.am      16 UNK        -0.5000 
     90 CA         -1.9376  -23.2718  -51.3506 C.3       16 UNK         0.1400 
     91 CB         -0.5572  -22.6443  -51.1137 C.3       16 UNK        -0.1800 
     92 C          -3.0706  -22.2401  -51.2162 C.2       16 UNK         0.5000 
     93 O          -3.4382  -21.6144  -52.2105 O.2       16 UNK        -0.5000 
     94 N          -3.6631  -22.1174  -50.0180 N.am      17 UNK        -0.5000 
     95 CA         -4.8378  -21.2698  -49.7784 C.3       17 UNK         0.1400 
     96 CB         -5.1447  -21.2046  -48.2760 C.3       17 UNK        -0.1800 
     97 C          -6.0719  -21.7538  -50.5653 C.2       17 UNK         0.5000 
     98 O          -6.8311  -20.9339  -51.0803 O.2       17 UNK        -0.5000 
     99 N          -6.2020  -23.0814  -50.7098 N.am      18 UNK        -0.5000 
    100 CA        -7.2157  -23.7455  -51.5336 C.3       18 UNK         0.1400 
    101 CB        -7.2334  -25.2436  -51.1936 C.3       18 UNK        -0.1800 
    102 C         -7.0055  -23.5324  -53.0478 C.2       18 UNK         0.5000 
    103 O         -7.9683  -23.6234  -53.8094 O.2       18 UNK        -0.5000 
    104 N         -5.7666  -23.2185  -53.4518 N.am      19 UNK        -0.5000 
    105 CA        -5.3863  -22.8317  -54.8121 C.3       19 UNK         0.1400 
    106 CB        -3.9675  -23.3529  -55.1004 C.3       19 UNK        -0.1800 
    107 C         -5.4877  -21.3061  -55.0396 C.2       19 UNK         0.5000 
    108 O         -5.0689  -20.8280  -56.0945 O.2       19 UNK        -0.5000 
    109 N         -6.0460  -20.5750  -54.0616 N.am      20 UNK        -0.5000 
    110 CA        -6.3013  -19.1330  -54.0496 C.3       20 UNK         0.1400 
    111 CB        -7.2681  -18.7233  -55.1811 C.3       20 UNK        -0.1800 
    112 C         -5.0208  -18.2754  -54.0001 C.2       20 UNK         0.5000 
    113 O         -5.0005  -17.1691  -54.5440 O.2       20 UNK        -0.5000 
    114 N         -3.9868  -18.7623  -53.2962 N.am      21 UNK        -0.5000 
    115 CA        -2.7378  -18.0315  -53.0405 C.3       21 UNK         0.1400 
    116 CB        -1.6796  -19.0081  -52.5091 C.3       21 UNK        -0.1800 
    117 C         -2.8890  -16.8174  -52.0938 C.2       21 UNK         0.5000 
    118 O         -1.9291  -16.0641  -51.9289 O.2       21 UNK        -0.5000 
    119 N         -4.0794  -16.6370  -51.5042 N.am      22 UNK        -0.5000 
    120 CA        -4.4616  -15.4893  -50.6644 C.3       22 UNK         0.1400 
    121 C         -4.4614  -14.1133  -51.3957 C.2       22 UNK         0.5000 
    122 N         -4.5083  -14.0649  -52.7224 N.am      22 UNK        -0.7600 
    123 O         -4.4265  -13.0722  -50.7467 O.2       22 UNK        -0.5000 
    124 C124       -5.8359  -15.6999  -49.9668 C.3       23 UNK        -0.0398 
    125 S125       -6.0753  -17.3406  -49.1981 S.3       23 UNK        -0.2404 
    126 C126       -5.4714  -17.0469  -47.5020 C.3       23 UNK        -0.0205 
    127 H127        0.0606   -8.3885  -48.7237 H         1 UNK         0.0600 
    128 H128        1.8239   -8.2869  -48.7310 H         1 UNK         0.0600 
    129 H129        0.9252   -8.1666  -50.2475 H         1 UNK         0.0600 
    130 H130       -0.6662  -10.4880  -48.4447 H         1 UNK         0.3000 
    131 H131        0.2158  -12.6402  -50.0836 H         1 UNK         0.0600 
    132 H132       -1.4327  -14.0024  -48.9271 H         1 UNK         0.0800 
    133 H133       -2.0957  -12.4850  -49.3958 H         1 UNK         0.0800 
    134 H134       -0.5065  -14.1722  -45.9471 H         1 UNK         0.0800 
    135 H135       -2.0145  -14.0311  -45.0840 H         1 UNK         0.0800 
    136 H136       -4.1756  -14.9543  -46.2940 H         1 UNK         0.1150 
    137 H137       -3.4588  -18.4567  -48.6540 H         1 UNK         0.1150 
    138 H138       -0.1723  -16.0228  -47.3873 H         1 UNK         0.1150 
    139 H139        0.2875  -18.0779  -48.4892 H         1 UNK         0.0800 
    140 H140       -0.7285  -17.9194  -49.8987 H         1 UNK         0.0800 
    141 H141       -2.3442  -20.0832  -46.7004 H         1 UNK         0.0800 
    142 H142       -0.7437  -19.4751  -46.4777 H         1 UNK         0.0800 
    143 H143        0.0470  -21.9294  -47.1566 H         1 UNK         0.0600 
    144 H144       -0.4476  -20.7367  -44.6577 H         1 UNK         0.3000 
    145 H145        0.7090  -23.3711  -42.5641 H         1 UNK         0.0600 
    146 H146        2.1175  -21.4683  -41.7798 H         1 UNK         0.0600 
    147 H147        2.7357  -22.1320  -43.2841 H         1 UNK         0.0600 
    148 H148        1.8477  -20.6165  -43.2987 H         1 UNK         0.0600 
    149 H149       -0.3722  -20.7254  -42.1435 H         1 UNK         0.3000 
    150 H150       -3.7830  -21.7436  -41.8124 H         1 UNK         0.0600 
    151 H151       -1.7320  -20.7596  -39.7539 H         1 UNK         0.0600 
    152 H152       -2.7214  -22.2062  -39.5962 H         1 UNK         0.0600 
    153 H153       -3.4856  -20.6252  -39.6213 H         1 UNK         0.0600 
    154 H154       -2.4794  -19.2137  -41.5385 H         1 UNK         0.3000 
    155 H155       -2.5741  -18.2150  -44.9418 H         1 UNK         0.0600 
    156 H156       -3.9553  -16.3551  -44.0110 H         1 UNK         0.0600 
    157 H157       -4.3938  -17.3544  -42.6270 H         1 UNK         0.0600 
    158 H158       -4.9200  -17.8035  -44.2458 H         1 UNK         0.0600 
    159 H159       -1.9411  -16.7951  -42.5635 H         1 UNK         0.3000 
    160 H160        0.2768  -16.1868  -42.2784 H         1 UNK         0.0600 
    161 H161        0.8657  -18.9107  -40.9568 H         1 UNK         0.0600 
    162 H162       -0.4232  -17.8110  -40.4766 H         1 UNK         0.0600 
    163 H163        1.2533  -17.3372  -40.2669 H         1 UNK         0.0600 
    164 H164        1.9990  -18.0826  -43.6042 H         1 UNK         0.3000 
    165 H165        4.5717  -15.7403  -43.8344 H         1 UNK         0.0600 
    166 H166        6.2173  -17.4549  -43.1266 H         1 UNK         0.0600 
    167 H167        4.9544  -18.3649  -42.2947 H         1 UNK         0.0600 
    168 H168        5.4244  -16.7705  -41.7180 H         1 UNK         0.0600 
    169 H169        4.5910  -18.3898  -44.7582 H         1 UNK         0.3000 
    170 H170        4.3953  -18.5619  -47.0752 H         1 UNK         0.0600 
    171 H171        2.6473  -19.9507  -46.0243 H         1 UNK         0.0600 
    172 H172        2.2778  -19.8906  -47.7411 H         1 UNK         0.0600 
    173 H173        1.3802  -18.8872  -46.6012 H         1 UNK         0.0600 
    174 H174        2.7386  -16.4376  -48.0121 H         1 UNK         0.3000 
    175 H175        3.8084  -16.9187  -51.4081 H         1 UNK         0.0600 
    176 H176        1.0847  -16.2872  -50.1627 H         1 UNK         0.0600 
    177 H177        1.6006  -15.8814  -51.7952 H         1 UNK         0.0600 
    178 H178        1.4112  -17.5637  -51.3267 H         1 UNK         0.0600 
    179 H179        2.9289  -14.7260  -49.6581 H         1 UNK         0.3000 
    180 H180        6.1926  -13.4701  -49.1235 H         1 UNK         0.0600 
    181 H181        4.2966  -12.3921  -51.2787 H         1 UNK         0.0600 
    182 H182        5.9976  -12.7784  -51.5163 H         1 UNK         0.0600 
    183 H183        5.5411  -11.4684  -50.4384 H         1 UNK         0.0600 
    184 H184        3.5346  -12.3258  -48.9672 H         1 UNK         0.3000 
    185 H185        2.5921  -13.6922  -45.9027 H         1 UNK         0.0600 
    186 H186        2.5849  -11.4158  -44.9446 H         1 UNK         0.0600 
    187 H187        4.2213  -12.0514  -44.9615 H         1 UNK         0.0600 
    188 H188        3.7332  -10.8649  -46.1663 H         1 UNK         0.0600 
    189 H189        1.5297  -11.4489  -47.1886 H         1 UNK         0.3000 
    190 H190       -2.8355  -22.1407  -45.0304 H         1 UNK         0.3000 
    191 H191       -4.3763  -23.8460  -46.7100 H         1 UNK         0.0600 
    192 H192       -5.7266  -24.2029  -44.6444 H         1 UNK         0.0600 
    193 H193       -5.3647  -22.4997  -44.8822 H         1 UNK         0.0600 
    194 H194       -4.4772  -23.4293  -43.6768 H         1 UNK         0.0600 
    195 H195       -2.0611  -24.5912  -44.0619 H         1 UNK         0.3000 
    196 H196       -2.3577  -27.4116  -44.1173 H         1 UNK         0.0600 
    197 H197        0.0717  -25.7189  -43.3266 H         1 UNK         0.0600 
    198 H198       -1.2549  -26.1810  -42.2629 H         1 UNK         0.0600 
    199 H199       -0.1793  -27.4093  -42.9129 H         1 UNK         0.0600 
    200 H200       -0.2780  -25.2424  -46.0344 H         1 UNK         0.3000 
    201 H201        1.0331  -27.3303  -47.5474 H         1 UNK         0.0600 
    202 H202        0.7219  -24.3234  -48.0716 H         1 UNK         0.0600 
    203 H203        1.8522  -25.3946  -48.8891 H         1 UNK         0.0600 
    204 H204        2.0349  -25.0780  -47.1711 H         1 UNK         0.0600 
    205 H205       -2.1396  -26.1451  -47.6558 H         1 UNK         0.3000 
    206 H206       -3.8882  -26.2575  -48.9657 H         1 UNK         0.0600 
    207 H207       -3.2555  -28.6647  -49.2783 H         1 UNK         0.0600 
    208 H208       -4.1204  -28.0113  -50.6592 H         1 UNK         0.0600 
    209 H209       -2.3806  -28.2363  -50.7489 H         1 UNK         0.0600 
    210 H210       -1.6760  -24.3125  -49.5247 H         1 UNK         0.3000 
    211 H211       -1.9607  -23.6408  -52.3782 H         1 UNK         0.0600 
    212 H212       -0.4435  -21.7095  -51.6640 H         1 UNK         0.0600 
    213 H213        0.2350  -23.3157  -51.4449 H         1 UNK         0.0600 
    214 H214       -0.3854  -22.4352  -50.0586 H         1 UNK         0.0600 
    215 H215       -3.2861  -22.6377  -49.2361 H         1 UNK         0.3000 
    216 H216       -4.5972  -20.2604  -50.1197 H         1 UNK         0.0600 
    217 H217       -5.4471  -22.1744  -47.8829 H         1 UNK         0.0600 
    218 H218       -5.9585  -20.5055  -48.0789 H         1 UNK         0.0600 
    219 H219       -4.2827  -20.8607  -47.7075 H         1 UNK         0.0600 
    220 H220       -5.5168  -23.6787  -50.2726 H         1 UNK         0.3000 
    221 H221       -8.1899  -23.3251  -51.2754 H         1 UNK         0.0600 
    222 H222       -7.4361  -25.4069  -50.1350 H         1 UNK         0.0600 
    223 H223       -6.2839  -25.7234  -51.4326 H         1 UNK         0.0600 
    224 H224       -8.0114  -25.7615  -51.7560 H         1 UNK         0.0600 
    225 H225       -5.0377  -23.1355  -52.7564 H         1 UNK         0.3000 
    226 H226       -6.0645  -23.3067  -55.5237 H         1 UNK         0.0600 
    227 H227       -3.2158  -22.8414  -54.5002 H         1 UNK         0.0600 
    228 H228       -3.8893  -24.4211  -54.8969 H         1 UNK         0.0600 
    229 H229       -3.7027  -23.2028  -56.1476 H         1 UNK         0.0600 
    230 H230       -6.3296  -21.0592  -53.2191 H         1 UNK         0.3000 
    231 H231       -6.8158  -18.9377  -53.1077 H         1 UNK         0.0600 
    232 H232       -8.1646  -19.3432  -55.1778 H         1 UNK         0.0600 
    233 H233       -6.8042  -18.8073  -56.1641 H         1 UNK         0.0600 
    234 H234       -7.5913  -17.6885  -55.0625 H         1 UNK         0.0600 
    235 H235       -4.0465  -19.6985  -52.9098 H         1 UNK         0.3000 
    236 H236       -2.3795  -17.6425  -53.9956 H         1 UNK         0.0600 
    237 H237       -1.5240  -19.8373  -53.1994 H         1 UNK         0.0600 
    238 H238       -0.7170  -18.5138  -52.3756 H         1 UNK         0.0600 
    239 H239       -1.9739  -19.4211  -51.5452 H         1 UNK         0.0600 
    240 H240       -4.8026  -17.3187  -51.6714 H         1 UNK         0.3000 
    241 H241       -3.6996  -15.4086  -49.8884 H         1 UNK         0.0600 
    242 H242       -4.5088  -13.1704  -53.1865 H         1 UNK         0.3800 
    243 H243       -4.5478  -14.9136  -53.2674 H         1 UNK         0.3800 
    244 H244       -6.6430  -15.5749  -50.6909 H         1 UNK         0.0800 
    245 H245       -5.9950  -14.9306  -49.2090 H         1 UNK         0.0800 
    246 H246       -5.6679  -17.9355  -46.9009 H         1 UNK         0.0800 
    247 H247       -6.0438  -16.2345  -47.0519 H         1 UNK         0.0800 
@<TRIPOS>BOND
     1    1    2 1    
     2    1  127 1    
     3    1  128 1    
     4    1  129 1    
     5    2    3 2    
     6    2    4 am   BACKBONE|DICT|INTERRES
     7    4    5 1    
     8    4  130 1    
     9    5    6 1    
    10    5   65 1    
    11    5  131 1    
    12    6    7 1    
    13    6  132 1    
    14    6  133 1    
    15    7    8 1    
    16    8    9 1    
    17    8  134 1    
    18    8  135 1    
    19    9   10 ar   
    20    9   14 ar   
    21   10   11 ar   
    22   10  136 1    
    23   11   12 ar   
    24   11  126 1    
    25   12   13 ar   
    26   12  137 1    
    27   13   14 ar   
    28   13   15 1    
    29   14  138 1    
    30   15   16 1    
    31   15  139 1    
    32   15  140 1    
    33   16   17 1    
    34   17   18 1    
    35   17  141 1    
    36   17  142 1    
    37   18   19 1    
    38   18   67 1    
    39   18  143 1    
    40   19   20 am   BACKBONE|DICT|INTERRES
    41   19  144 1    
    42   20   21 2    
    43   20   22 1    
    44   22   23 1    
    45   22   24 1    
    46   22  145 1    
    47   23  146 1    
    48   23  147 1    
    49   23  148 1    
    50   24   25 am   BACKBONE|DICT|INTERRES
    51   24  149 1    
    52   25   26 2    
    53   25   27 1    
    54   27   28 1    
    55   27   29 1    
    56   27  150 1    
    57   28  151 1    
    58   28  152 1    
    59   28  153 1    
    60   29   30 am   BACKBONE|DICT|INTERRES
    61   29  154 1    
    62   30   31 2    
    63   30   32 1    
    64   32   33 1    
    65   32   34 1    
    66   32  155 1    
    67   33  156 1    
    68   33  157 1    
    69   33  158 1    
    70   34   35 am   BACKBONE|DICT|INTERRES
    71   34  159 1    
    72   35   36 2    
    73   35   37 1    
    74   37   38 1    
    75   37   39 1    
    76   37  160 1    
    77   38  161 1    
    78   38  162 1    
    79   38  163 1    
    80   39   40 am   BACKBONE|DICT|INTERRES
    81   39  164 1    
    82   40   41 2    
    83   40   42 1    
    84   42   43 1    
    85   42   44 1    
    86   42  165 1    
    87   43  166 1    
    88   43  167 1    
    89   43  168 1    
    90   44   45 am   BACKBONE|DICT|INTERRES
    91   44  169 1    
    92   45   46 2    
    93   45   47 1    
    94   47   48 1    
    95   47   49 1    
    96   47  170 1    
    97   48  171 1    
    98   48  172 1    
    99   48  173 1    
   100   49   50 am   BACKBONE|DICT|INTERRES
   101   49  174 1    
   102   50   51 2    
   103   50   52 1    
   104   52   53 1    
   105   52   54 1    
   106   52  175 1    
   107   53  176 1    
   108   53  177 1    
   109   53  178 1    
   110   54   55 am   BACKBONE|DICT|INTERRES
   111   54  179 1    
   112   55   56 2    
   113   55   57 1    
   114   57   58 1    
   115   57   59 1    
   116   57  180 1    
   117   58  181 1    
   118   58  182 1    
   119   58  183 1    
   120   59   60 am   BACKBONE|DICT|INTERRES
   121   59  184 1    
   122   60   61 2    
   123   60   62 1    
   124   62   63 1    
   125   62   64 1    
   126   62  185 1    
   127   63  186 1    
   128   63  187 1    
   129   63  188 1    
   130   64   65 am   BACKBONE|DICT|INTERRES
   131   64  189 1    
   132   65   66 2    
   133   67   68 2    
   134   67   69 am   BACKBONE|DICT|INTERRES
   135   69   70 1    
   136   69  190 1    
   137   70   71 1    
   138   70   72 1    
   139   70  191 1    
   140   71  192 1    
   141   71  193 1    
   142   71  194 1    
   143   72   73 2    
   144   72   74 am   BACKBONE|DICT|INTERRES
   145   74   75 1    
   146   74  195 1    
   147   75   76 1    
   148   75   77 1    
   149   75  196 1    
   150   76  197 1    
   151   76  198 1    
   152   76  199 1    
   153   77   78 2    
   154   77   79 am   BACKBONE|DICT|INTERRES
   155   79   80 1    
   156   79  200 1    
   157   80   81 1    
   158   80   82 1    
   159   80  201 1    
   160   81  202 1    
   161   81  203 1    
   162   81  204 1    
   163   82   83 2    
   164   82   84 am   BACKBONE|DICT|INTERRES
   165   84   85 1    
   166   84  205 1    
   167   85   86 1    
   168   85   87 1    
   169   85  206 1    
   170   86  207 1    
   171   86  208 1    
   172   86  209 1    
   173   87   88 2    
   174   87   89 am   BACKBONE|DICT|INTERRES
   175   89   90 1    
   176   89  210 1    
   177   90   91 1    
   178   90   92 1    
   179   90  211 1    
   180   91  212 1    
   181   91  213 1    
   182   91  214 1    
   183   92   93 2    
   184   92   94 am   BACKBONE|DICT|INTERRES
   185   94   95 1    
   186   94  215 1    
   187   95   96 1    
   188   95   97 1    
   189   95  216 1    
   190   96  217 1    
   191   96  218 1    
   192   96  219 1    
   193   97   98 2    
   194   97   99 am   BACKBONE|DICT|INTERRES
   195   99  100 1    
   196   99  220 1    
   197  100  101 1    
   198  100  102 1    
   199  100  221 1    
   200  101  222 1    
   201  101  223 1    
   202  101  224 1    
   203  102  103 2    
   204  102  104 am   BACKBONE|DICT|INTERRES
   205  104  105 1    
   206  104  225 1    
   207  105  106 1    
   208  105  107 1    
   209  105  226 1    
   210  106  227 1    
   211  106  228 1    
   212  106  229 1    
   213  107  108 2    
   214  107  109 am   BACKBONE|DICT|INTERRES
   215  109  110 1    
   216  109  230 1    
   217  110  111 1    
   218  110  112 1    
   219  110  231 1    
   220  111  232 1    
   221  111  233 1    
   222  111  234 1    
   223  112  113 2    
   224  112  114 am   BACKBONE|DICT|INTERRES
   225  114  115 1    
   226  114  235 1    
   227  115  116 1    
   228  115  117 1    
   229  115  236 1    
   230  116  237 1    
   231  116  238 1    
   232  116  239 1    
   233  117  118 2    
   234  117  119 am   BACKBONE|DICT|INTERRES
   235  119  120 1    
   236  119  240 1    
   237  120  121 1    
   238  120  124 1    
   239  120  241 1    
   240  121  122 am   BACKBONE|DICT|INTERRES
   241  121  123 2    
   242  122  242 1    
   243  122  243 1    
   244  124  125 1    
   245  124  244 1    
   246  124  245 1    
   247  125  126 1    
   248  126  246 1    
   249  126  247 1    
@<TRIPOS>SUBSTRUCTURE
     1 UNK         1 GROUP             0       ****    0 ROOT    
