@<TRIPOS>MOLECULE
3R540
247   249    1
SMALL
USER_CHARGES


@<TRIPOS>ATOM
      1 CA          4.0394  -17.5284  -40.8997 C.3       0 UNK        -0.1800 
      2 C           2.8296  -17.0306  -41.6774 C.2       0 UNK         0.5000 
      3 O           2.6696  -17.3838  -42.8429 O.2       0 UNK        -0.5000 
      4 N           1.9895  -16.2066  -41.0347 N.am      1 UNK        -0.5000 
      5 CA          0.7432  -15.6238  -41.5663 C.3       1 UNK         0.1400 
      6 C6         -0.3174  -16.6705  -42.0147 C.3       23 UNK        -0.0398 
      7 S7         -0.6026  -18.0008  -40.7933 S.3       23 UNK        -0.2404 
      8 C8         -0.3088  -19.4873  -41.8089 C.3       23 UNK        -0.0205 
      9 C9         -1.6111  -20.0739  -42.3366 C.ar      23 UNK        -0.0193 
     10 C10        -2.3585  -19.4005  -43.3095 C.ar      23 UNK        -0.1150 
     11 C11        -3.5653  -19.9331  -43.7780 C.ar      23 UNK        -0.0193 
     12 C12        -4.0213  -21.1486  -43.2590 C.ar      23 UNK        -0.1150 
     13 C13        -3.2469  -21.8656  -42.3435 C.ar      23 UNK        -0.0193 
     14 C14        -2.0563  -21.3125  -41.8664 C.ar      23 UNK        -0.1150 
     15 C15        -3.6542  -23.2744  -41.9441 C.3       23 UNK        -0.0205 
     16 S16        -3.6158  -24.4060  -43.3773 S.3       23 UNK        -0.2404 
     17 C17        -1.8676  -24.3211  -43.9208 C.3       23 UNK        -0.0398 
     18 CA         -1.5595  -23.2154  -44.9797 C.3       11 UNK         0.1400 
     19 N          -0.1662  -22.7713  -44.9419 N.am      11 UNK        -0.5000 
     20 C           0.9260  -23.5184  -45.1301 C.2       10 UNK         0.5000 
     21 O           0.8990  -24.7319  -45.3451 O.2       10 UNK        -0.5000 
     22 CA          2.2704  -22.7602  -45.0784 C.3       10 UNK         0.1400 
     23 CB          3.4866  -23.7037  -45.0831 C.3       10 UNK        -0.1800 
     24 N           2.4094  -21.8070  -46.1819 N.am      10 UNK        -0.5000 
     25 C           1.7853  -20.6258  -46.2734 C.2       9 UNK         0.5000 
     26 O           1.0057  -20.2013  -45.4171 O.2       9 UNK        -0.5000 
     27 CA          2.0610  -19.8058  -47.5508 C.3       9 UNK         0.1400 
     28 CB          0.9839  -20.0879  -48.6107 C.3       9 UNK        -0.1800 
     29 N           2.1036  -18.3670  -47.2894 N.am      9 UNK        -0.5000 
     30 C           2.9884  -17.7523  -46.4899 C.2       8 UNK         0.5000 
     31 O           3.9557  -18.3316  -45.9920 O.2       8 UNK        -0.5000 
     32 CA          2.8047  -16.2394  -46.2220 C.3       8 UNK         0.1400 
     33 CB          4.0201  -15.4488  -46.7350 C.3       8 UNK        -0.1800 
     34 N           1.6000  -15.6521  -46.8091 N.am      8 UNK        -0.5000 
     35 C           0.3347  -15.9052  -46.4474 C.2       7 UNK         0.5000 
     36 O           0.0241  -16.6607  -45.5299 O.2       7 UNK        -0.5000 
     37 CA         -0.7730  -15.2203  -47.2719 C.3       7 UNK         0.1400 
     38 CB         -1.3797  -14.0425  -46.4938 C.3       7 UNK        -0.1800 
     39 N          -0.3246  -14.7461  -48.5858 N.am      7 UNK        -0.5000 
     40 C           0.0404  -15.5349  -49.6071 C.2       6 UNK         0.5000 
     41 O           0.0844  -16.7628  -49.5394 O.2       6 UNK        -0.5000 
     42 CA          0.4399  -14.8296  -50.9147 C.3       6 UNK         0.1400 
     43 CB         -0.8080  -14.4702  -51.7356 C.3       6 UNK        -0.1800 
     44 N           1.2277  -13.6213  -50.6671 N.am      6 UNK        -0.5000 
     45 C           2.5109  -13.6302  -50.2795 C.2       5 UNK         0.5000 
     46 O           3.1822  -14.6548  -50.1608 O.2       5 UNK        -0.5000 
     47 CA          3.1419  -12.2668  -49.9365 C.3       5 UNK         0.1400 
     48 CB          3.7467  -11.6201  -51.1919 C.3       5 UNK        -0.1800 
     49 N           2.2061  -11.3270  -49.3094 N.am      5 UNK        -0.5000 
     50 C           1.6120  -11.5280  -48.1269 C.2       4 UNK         0.5000 
     51 O           1.7620  -12.5509  -47.4501 O.2       4 UNK        -0.5000 
     52 CA          0.6725  -10.4195  -47.6293 C.3       4 UNK         0.1400 
     53 CB         -0.6705  -10.4461  -48.3788 C.3       4 UNK        -0.1800 
     54 N           0.4462  -10.6567  -46.2131 N.am      4 UNK        -0.5000 
     55 C           0.2059   -9.7522  -45.2600 C.2       3 UNK         0.5000 
     56 O           0.0286   -8.5533  -45.4780 O.2       3 UNK        -0.5000 
     57 CA          0.1765  -10.2861  -43.8116 C.3       3 UNK         0.1400 
     58 CB         -1.2722  -10.4770  -43.3379 C.3       3 UNK        -0.1800 
     59 N           0.8881  -11.5605  -43.6736 N.am      3 UNK        -0.5000 
     60 C           2.2161  -11.7157  -43.7234 C.2       2 UNK         0.5000 
     61 O           3.0052  -10.7694  -43.7336 O.2       2 UNK        -0.5000 
     62 CA          2.7354  -13.1681  -43.8108 C.3       2 UNK         0.1400 
     63 CB          4.2724  -13.2511  -43.8142 C.3       2 UNK        -0.1800 
     64 N           2.2284  -14.0539  -42.7610 N.am      2 UNK        -0.5000 
     65 C           0.9916  -14.5634  -42.6676 C.2       1 UNK         0.5000 
     66 O           0.0661  -14.2139  -43.4018 O.2       1 UNK        -0.5000 
     67 C          -2.0369  -23.5382  -46.4148 C.2       11 UNK         0.5000 
     68 O          -1.3129  -23.3140  -47.3898 O.2       11 UNK        -0.5000 
     69 N          -3.2810  -24.0231  -46.5191 N.am      12 UNK        -0.5000 
     70 CA         -4.0110  -24.2713  -47.7613 C.3       12 UNK         0.1400 
     71 CB         -5.4137  -24.7979  -47.4279 C.3       12 UNK        -0.1800 
     72 C          -3.2989  -25.2269  -48.7313 C.2       12 UNK         0.5000 
     73 O          -3.3838  -25.0183  -49.9399 O.2       12 UNK        -0.5000 
     74 N          -2.5931  -26.2314  -48.1943 N.am      13 UNK        -0.5000 
     75 CA         -1.8254  -27.2158  -48.9593 C.3       13 UNK         0.1400 
     76 CB         -1.2846  -28.2917  -48.0058 C.3       13 UNK        -0.1800 
     77 C          -0.6824  -26.5851  -49.7757 C.2       13 UNK         0.5000 
     78 O          -0.5193  -26.9170  -50.9504 O.2       13 UNK        -0.5000 
     79 N           0.0540  -25.6515  -49.1565 N.am      14 UNK        -0.5000 
     80 CA          1.1232  -24.8830  -49.7994 C.3       14 UNK         0.1400 
     81 CB          1.9616  -24.1889  -48.7196 C.3       14 UNK        -0.1800 
     82 C           0.5821  -23.8523  -50.8069 C.2       14 UNK         0.5000 
     83 O           1.2564  -23.5445  -51.7891 O.2       14 UNK        -0.5000 
     84 N          -0.6428  -23.3725  -50.5618 N.am      15 UNK        -0.5000 
     85 CA         -1.3984  -22.4665  -51.4246 C.3       15 UNK         0.1400 
     86 CB         -2.3085  -21.6087  -50.5345 C.3       15 UNK        -0.1800 
     87 C          -2.1994  -23.1961  -52.5271 C.2       15 UNK         0.5000 
     88 O          -3.0876  -22.5828  -53.1217 O.2       15 UNK        -0.5000 
     89 N          -1.8847  -24.4777  -52.7758 N.am      16 UNK        -0.5000 
     90 CA         -2.4455  -25.3585  -53.8058 C.3       16 UNK         0.1400 
     91 CB         -2.0828  -24.8448  -55.2151 C.3       16 UNK        -0.1800 
     92 C          -3.9553  -25.6037  -53.6182 C.2       16 UNK         0.5000 
     93 O          -4.7473  -25.3381  -54.5220 O.2       16 UNK        -0.5000 
     94 N          -4.3213  -26.0772  -52.4193 N.am      17 UNK        -0.5000 
     95 CA         -5.6891  -26.2787  -51.9220 C.3       17 UNK         0.1400 
     96 CB         -6.4439  -27.3396  -52.7503 C.3       17 UNK        -0.1800 
     97 C          -6.4502  -24.9431  -51.7892 C.2       17 UNK         0.5000 
     98 O          -7.6363  -24.8608  -52.1112 O.2       17 UNK        -0.5000 
     99 N          -5.7192  -23.9171  -51.3296 N.am      18 UNK        -0.5000 
    100 CA        -6.1270  -22.5197  -51.1610 C.3       18 UNK         0.1400 
    101 CB        -7.2011  -22.3801  -50.0635 C.3       18 UNK        -0.1800 
    102 C         -6.5140  -21.8009  -52.4722 C.2       18 UNK         0.5000 
    103 O         -7.1703  -20.7598  -52.4170 O.2       18 UNK        -0.5000 
    104 N         -6.0607  -22.3183  -53.6244 N.am      19 UNK        -0.5000 
    105 CA        -6.2255  -21.6963  -54.9415 C.3       19 UNK         0.1400 
    106 CB        -5.7762  -22.6731  -56.0362 C.3       19 UNK        -0.1800 
    107 C         -5.4673  -20.3617  -55.0656 C.2       19 UNK         0.5000 
    108 O         -5.9446  -19.4535  -55.7457 O.2       19 UNK        -0.5000 
    109 N         -4.3380  -20.2419  -54.3539 N.am      20 UNK        -0.5000 
    110 CA        -3.5606  -19.0110  -54.1948 C.3       20 UNK         0.1400 
    111 CB        -2.0786  -19.3802  -54.0043 C.3       20 UNK        -0.1800 
    112 C         -4.0917  -18.1200  -53.0470 C.2       20 UNK         0.5000 
    113 O         -3.3089  -17.4015  -52.4249 O.2       20 UNK        -0.5000 
    114 N         -5.4004  -18.1995  -52.7561 N.am      21 UNK        -0.5000 
    115 CA        -6.1478  -17.4342  -51.7478 C.3       21 UNK         0.1400 
    116 CB        -6.2256  -15.9476  -52.1535 C.3       21 UNK        -0.1800 
    117 C         -5.6263  -17.6333  -50.3080 C.2       21 UNK         0.5000 
    118 O         -5.6739  -16.7067  -49.4973 O.2       21 UNK        -0.5000 
    119 N         -5.1213  -18.8422  -50.0289 N.am      22 UNK        -0.5000 
    120 CA        -4.4017  -19.2126  -48.7983 C.3       22 UNK         0.1400 
    121 C         -2.9907  -18.5554  -48.6619 C.2       22 UNK         0.5000 
    122 N         -2.4091  -18.0073  -49.7213 N.am      22 UNK        -0.7600 
    123 O         -2.3911  -18.5667  -47.5936 O.2       22 UNK        -0.5000 
    124 C124       -5.2846  -19.0873  -47.5229 C.3       23 UNK        -0.0398 
    125 S125       -4.8356  -20.3043  -46.2375 S.3       23 UNK        -0.2404 
    126 C126       -4.3591  -19.2054  -44.8571 C.3       23 UNK        -0.0205 
    127 H127        4.0619  -17.1315  -39.8845 H         1 UNK         0.0600 
    128 H128        4.9583  -17.2281  -41.4034 H         1 UNK         0.0600 
    129 H129        4.0225  -18.6165  -40.8391 H         1 UNK         0.0600 
    130 H130        2.1899  -15.9675  -40.0734 H         1 UNK         0.3000 
    131 H131        0.3088  -15.0710  -40.7322 H         1 UNK         0.0600 
    132 H132       -0.0255  -17.1069  -42.9696 H         1 UNK         0.0800 
    133 H133       -1.2760  -16.1820  -42.1968 H         1 UNK         0.0800 
    134 H134        0.2118  -20.2195  -41.1902 H         1 UNK         0.0800 
    135 H135        0.3652  -19.2739  -42.6402 H         1 UNK         0.0800 
    136 H136       -1.9964  -18.4606  -43.7025 H         1 UNK         0.1150 
    137 H137       -4.9431  -21.5774  -43.6264 H         1 UNK         0.1150 
    138 H138       -1.4611  -21.8602  -41.1494 H         1 UNK         0.1150 
    139 H139       -3.0052  -23.6644  -41.1585 H         1 UNK         0.0800 
    140 H140       -4.6636  -23.2536  -41.5312 H         1 UNK         0.0800 
    141 H141       -1.2595  -24.1590  -43.0297 H         1 UNK         0.0800 
    142 H142       -1.5731  -25.3023  -44.2966 H         1 UNK         0.0800 
    143 H143       -2.1131  -22.3192  -44.7159 H         1 UNK         0.0600 
    144 H144       -0.0266  -21.7665  -44.8787 H         1 UNK         0.3000 
    145 H145        2.2912  -22.2060  -44.1374 H         1 UNK         0.0600 
    146 H146        4.4167  -23.1475  -44.9647 H         1 UNK         0.0600 
    147 H147        3.4304  -24.4169  -44.2598 H         1 UNK         0.0600 
    148 H148        3.5543  -24.2757  -46.0085 H         1 UNK         0.0600 
    149 H149        3.0174  -22.0937  -46.9345 H         1 UNK         0.3000 
    150 H150        3.0321  -20.0983  -47.9549 H         1 UNK         0.0600 
    151 H151        0.9383  -21.1491  -48.8570 H         1 UNK         0.0600 
    152 H152        1.1840  -19.5468  -49.5357 H         1 UNK         0.0600 
    153 H153       -0.0057  -19.7928  -48.2599 H         1 UNK         0.0600 
    154 H154        1.3340  -17.8235  -47.6557 H         1 UNK         0.3000 
    155 H155        2.7410  -16.1059  -45.1414 H         1 UNK         0.0600 
    156 H156        4.1796  -15.6111  -47.8013 H         1 UNK         0.0600 
    157 H157        4.9308  -15.7524  -46.2176 H         1 UNK         0.0600 
    158 H158        3.8986  -14.3773  -46.5770 H         1 UNK         0.0600 
    159 H159        1.7461  -14.9874  -47.5566 H         1 UNK         0.3000 
    160 H160       -1.5603  -15.9585  -47.4353 H         1 UNK         0.0600 
    161 H161       -2.1875  -13.5690  -47.0518 H         1 UNK         0.0600 
    162 H162       -0.6318  -13.2840  -46.2672 H         1 UNK         0.0600 
    163 H163       -1.7959  -14.3802  -45.5438 H         1 UNK         0.0600 
    164 H164       -0.2851  -13.7470  -48.7123 H         1 UNK         0.3000 
    165 H165        1.0416  -15.5274  -51.5013 H         1 UNK         0.0600 
    166 H166       -0.5355  -14.0327  -52.6961 H         1 UNK         0.0600 
    167 H167       -1.4065  -15.3587  -51.9426 H         1 UNK         0.0600 
    168 H168       -1.4482  -13.7596  -51.2114 H         1 UNK         0.0600 
    169 H169        0.7551  -12.7342  -50.7569 H         1 UNK         0.3000 
    170 H170        3.9507  -12.4523  -49.2263 H         1 UNK         0.0600 
    171 H171        4.4641  -12.2894  -51.6687 H         1 UNK         0.0600 
    172 H172        2.9810  -11.3796  -51.9304 H         1 UNK         0.0600 
    173 H173        4.2773  -10.7003  -50.9454 H         1 UNK         0.0600 
    174 H174        2.0306  -10.4666  -49.8085 H         1 UNK         0.3000 
    175 H175        1.1637   -9.4543  -47.7691 H         1 UNK         0.0600 
    176 H176       -1.1763  -11.4056  -48.2662 H         1 UNK         0.0600 
    177 H177       -1.3419   -9.6714  -48.0082 H         1 UNK         0.0600 
    178 H178       -0.5309  -10.2688  -49.4456 H         1 UNK         0.0600 
    179 H179        0.6472  -11.6081  -45.9335 H         1 UNK         0.3000 
    180 H180        0.6575   -9.5443  -43.1708 H         1 UNK         0.0600 
    181 H181       -1.7968  -11.2203  -43.9399 H         1 UNK         0.0600 
    182 H182       -1.8323   -9.5434  -43.4052 H         1 UNK         0.0600 
    183 H183       -1.3070  -10.8026  -42.2981 H         1 UNK         0.0600 
    184 H184        0.3236  -12.4067  -43.6350 H         1 UNK         0.3000 
    185 H185        2.3854  -13.5567  -44.7690 H         1 UNK         0.0600 
    186 H186        4.6120  -14.2798  -43.9374 H         1 UNK         0.0600 
    187 H187        4.6948  -12.6727  -44.6369 H         1 UNK         0.0600 
    188 H188        4.6979  -12.8664  -42.8866 H         1 UNK         0.0600 
    189 H189        2.9083  -14.3717  -42.0862 H         1 UNK         0.3000 
    190 H190       -3.7977  -24.1735  -45.6619 H         1 UNK         0.3000 
    191 H191       -4.1243  -23.3115  -48.2672 H         1 UNK         0.0600 
    192 H192       -5.9822  -25.0053  -48.3356 H         1 UNK         0.0600 
    193 H193       -5.9807  -24.0675  -46.8501 H         1 UNK         0.0600 
    194 H194       -5.3701  -25.7222  -46.8506 H         1 UNK         0.0600 
    195 H195       -2.5728  -26.3179  -47.1891 H         1 UNK         0.3000 
    196 H196       -2.5083  -27.6965  -49.6630 H         1 UNK         0.0600 
    197 H197       -0.7174  -29.0473  -48.5511 H         1 UNK         0.0600 
    198 H198       -2.0962  -28.8057  -47.4906 H         1 UNK         0.0600 
    199 H199       -0.6232  -27.8661  -47.2499 H         1 UNK         0.0600 
    200 H200       -0.1761  -25.3973  -48.2051 H         1 UNK         0.3000 
    201 H201        1.7692  -25.5755  -50.3433 H         1 UNK         0.0600 
    202 H202        1.3543  -23.4972  -48.1370 H         1 UNK         0.0600 
    203 H203        2.7819  -23.6217  -49.1610 H         1 UNK         0.0600 
    204 H204        2.3960  -24.9161  -48.0339 H         1 UNK         0.0600 
    205 H205       -1.1091  -23.6764  -49.7165 H         1 UNK         0.3000 
    206 H206       -0.7015  -21.7971  -51.9323 H         1 UNK         0.0600 
    207 H207       -1.7231  -21.0600  -49.7968 H         1 UNK         0.0600 
    208 H208       -2.8660  -20.8747  -51.1161 H         1 UNK         0.0600 
    209 H209       -3.0267  -22.2232  -49.9957 H         1 UNK         0.0600 
    210 H210       -1.1761  -24.8993  -52.1912 H         1 UNK         0.3000 
    211 H211       -1.9610  -26.3277  -53.6777 H         1 UNK         0.0600 
    212 H212       -1.0037  -24.7453  -55.3307 H         1 UNK         0.0600 
    213 H213       -2.5312  -23.8735  -55.4241 H         1 UNK         0.0600 
    214 H214       -2.4291  -25.5365  -55.9838 H         1 UNK         0.0600 
    215 H215       -3.6008  -26.1512  -51.7107 H         1 UNK         0.3000 
    216 H216       -5.5879  -26.6691  -50.9083 H         1 UNK         0.0600 
    217 H217       -7.3976  -27.5893  -52.2841 H         1 UNK         0.0600 
    218 H218       -5.8689  -28.2623  -52.8265 H         1 UNK         0.0600 
    219 H219       -6.6587  -26.9927  -53.7612 H         1 UNK         0.0600 
    220 H220       -4.7573  -24.1274  -51.0821 H         1 UNK         0.3000 
    221 H221       -5.2399  -21.9987  -50.8038 H         1 UNK         0.0600 
    222 H222       -8.1436  -22.8420  -50.3583 H         1 UNK         0.0600 
    223 H223       -6.8767  -22.8418  -49.1319 H         1 UNK         0.0600 
    224 H224       -7.4059  -21.3316  -49.8435 H         1 UNK         0.0600 
    225 H225       -5.4914  -23.1540  -53.5898 H         1 UNK         0.3000 
    226 H226       -7.2881  -21.4894  -55.0839 H         1 UNK         0.0600 
    227 H227       -5.9172  -22.2419  -57.0280 H         1 UNK         0.0600 
    228 H228       -4.7211  -22.9287  -55.9355 H         1 UNK         0.0600 
    229 H229       -6.3515  -23.5983  -55.9990 H         1 UNK         0.0600 
    230 H230       -4.0008  -21.0578  -53.8479 H         1 UNK         0.3000 
    231 H231       -3.6367  -18.4224  -55.1111 H         1 UNK         0.0600 
    232 H232       -1.7267  -20.0300  -54.8057 H         1 UNK         0.0600 
    233 H233       -1.9101  -19.8936  -53.0589 H         1 UNK         0.0600 
    234 H234       -1.4482  -18.4901  -54.0094 H         1 UNK         0.0600 
    235 H235       -5.9573  -18.8511  -53.2931 H         1 UNK         0.3000 
    236 H236       -7.1635  -17.8324  -51.7566 H         1 UNK         0.0600 
    237 H237       -6.6110  -15.8353  -53.1669 H         1 UNK         0.0600 
    238 H238       -6.8927  -15.3942  -51.4916 H         1 UNK         0.0600 
    239 H239       -5.2483  -15.4657  -52.1106 H         1 UNK         0.0600 
    240 H240       -5.1233  -19.5252  -50.7701 H         1 UNK         0.3000 
    241 H241       -4.1927  -20.2733  -48.9310 H         1 UNK         0.0600 
    242 H242       -2.8760  -17.9180  -50.6170 H         1 UNK         0.3800 
    243 H243       -1.4763  -17.6172  -49.6112 H         1 UNK         0.3800 
    244 H244       -5.2551  -18.0716  -47.1255 H         1 UNK         0.0800 
    245 H245       -6.3291  -19.2761  -47.7737 H         1 UNK         0.0800 
    246 H246       -3.7714  -18.3750  -45.2516 H         1 UNK         0.0800 
    247 H247       -5.2564  -18.7728  -44.4133 H         1 UNK         0.0800 
@<TRIPOS>BOND
     1    1    2 1    
     2    1  127 1    
     3    1  128 1    
     4    1  129 1    
     5    2    3 2    
     6    2    4 am   BACKBONE|DICT|INTERRES
     7    4    5 1    
     8    4  130 1    
     9    5    6 1    
    10    5   65 1    
    11    5  131 1    
    12    6    7 1    
    13    6  132 1    
    14    6  133 1    
    15    7    8 1    
    16    8    9 1    
    17    8  134 1    
    18    8  135 1    
    19    9   10 ar   
    20    9   14 ar   
    21   10   11 ar   
    22   10  136 1    
    23   11   12 ar   
    24   11  126 1    
    25   12   13 ar   
    26   12  137 1    
    27   13   14 ar   
    28   13   15 1    
    29   14  138 1    
    30   15   16 1    
    31   15  139 1    
    32   15  140 1    
    33   16   17 1    
    34   17   18 1    
    35   17  141 1    
    36   17  142 1    
    37   18   19 1    
    38   18   67 1    
    39   18  143 1    
    40   19   20 am   BACKBONE|DICT|INTERRES
    41   19  144 1    
    42   20   21 2    
    43   20   22 1    
    44   22   23 1    
    45   22   24 1    
    46   22  145 1    
    47   23  146 1    
    48   23  147 1    
    49   23  148 1    
    50   24   25 am   BACKBONE|DICT|INTERRES
    51   24  149 1    
    52   25   26 2    
    53   25   27 1    
    54   27   28 1    
    55   27   29 1    
    56   27  150 1    
    57   28  151 1    
    58   28  152 1    
    59   28  153 1    
    60   29   30 am   BACKBONE|DICT|INTERRES
    61   29  154 1    
    62   30   31 2    
    63   30   32 1    
    64   32   33 1    
    65   32   34 1    
    66   32  155 1    
    67   33  156 1    
    68   33  157 1    
    69   33  158 1    
    70   34   35 am   BACKBONE|DICT|INTERRES
    71   34  159 1    
    72   35   36 2    
    73   35   37 1    
    74   37   38 1    
    75   37   39 1    
    76   37  160 1    
    77   38  161 1    
    78   38  162 1    
    79   38  163 1    
    80   39   40 am   BACKBONE|DICT|INTERRES
    81   39  164 1    
    82   40   41 2    
    83   40   42 1    
    84   42   43 1    
    85   42   44 1    
    86   42  165 1    
    87   43  166 1    
    88   43  167 1    
    89   43  168 1    
    90   44   45 am   BACKBONE|DICT|INTERRES
    91   44  169 1    
    92   45   46 2    
    93   45   47 1    
    94   47   48 1    
    95   47   49 1    
    96   47  170 1    
    97   48  171 1    
    98   48  172 1    
    99   48  173 1    
   100   49   50 am   BACKBONE|DICT|INTERRES
   101   49  174 1    
   102   50   51 2    
   103   50   52 1    
   104   52   53 1    
   105   52   54 1    
   106   52  175 1    
   107   53  176 1    
   108   53  177 1    
   109   53  178 1    
   110   54   55 am   BACKBONE|DICT|INTERRES
   111   54  179 1    
   112   55   56 2    
   113   55   57 1    
   114   57   58 1    
   115   57   59 1    
   116   57  180 1    
   117   58  181 1    
   118   58  182 1    
   119   58  183 1    
   120   59   60 am   BACKBONE|DICT|INTERRES
   121   59  184 1    
   122   60   61 2    
   123   60   62 1    
   124   62   63 1    
   125   62   64 1    
   126   62  185 1    
   127   63  186 1    
   128   63  187 1    
   129   63  188 1    
   130   64   65 am   BACKBONE|DICT|INTERRES
   131   64  189 1    
   132   65   66 2    
   133   67   68 2    
   134   67   69 am   BACKBONE|DICT|INTERRES
   135   69   70 1    
   136   69  190 1    
   137   70   71 1    
   138   70   72 1    
   139   70  191 1    
   140   71  192 1    
   141   71  193 1    
   142   71  194 1    
   143   72   73 2    
   144   72   74 am   BACKBONE|DICT|INTERRES
   145   74   75 1    
   146   74  195 1    
   147   75   76 1    
   148   75   77 1    
   149   75  196 1    
   150   76  197 1    
   151   76  198 1    
   152   76  199 1    
   153   77   78 2    
   154   77   79 am   BACKBONE|DICT|INTERRES
   155   79   80 1    
   156   79  200 1    
   157   80   81 1    
   158   80   82 1    
   159   80  201 1    
   160   81  202 1    
   161   81  203 1    
   162   81  204 1    
   163   82   83 2    
   164   82   84 am   BACKBONE|DICT|INTERRES
   165   84   85 1    
   166   84  205 1    
   167   85   86 1    
   168   85   87 1    
   169   85  206 1    
   170   86  207 1    
   171   86  208 1    
   172   86  209 1    
   173   87   88 2    
   174   87   89 am   BACKBONE|DICT|INTERRES
   175   89   90 1    
   176   89  210 1    
   177   90   91 1    
   178   90   92 1    
   179   90  211 1    
   180   91  212 1    
   181   91  213 1    
   182   91  214 1    
   183   92   93 2    
   184   92   94 am   BACKBONE|DICT|INTERRES
   185   94   95 1    
   186   94  215 1    
   187   95   96 1    
   188   95   97 1    
   189   95  216 1    
   190   96  217 1    
   191   96  218 1    
   192   96  219 1    
   193   97   98 2    
   194   97   99 am   BACKBONE|DICT|INTERRES
   195   99  100 1    
   196   99  220 1    
   197  100  101 1    
   198  100  102 1    
   199  100  221 1    
   200  101  222 1    
   201  101  223 1    
   202  101  224 1    
   203  102  103 2    
   204  102  104 am   BACKBONE|DICT|INTERRES
   205  104  105 1    
   206  104  225 1    
   207  105  106 1    
   208  105  107 1    
   209  105  226 1    
   210  106  227 1    
   211  106  228 1    
   212  106  229 1    
   213  107  108 2    
   214  107  109 am   BACKBONE|DICT|INTERRES
   215  109  110 1    
   216  109  230 1    
   217  110  111 1    
   218  110  112 1    
   219  110  231 1    
   220  111  232 1    
   221  111  233 1    
   222  111  234 1    
   223  112  113 2    
   224  112  114 am   BACKBONE|DICT|INTERRES
   225  114  115 1    
   226  114  235 1    
   227  115  116 1    
   228  115  117 1    
   229  115  236 1    
   230  116  237 1    
   231  116  238 1    
   232  116  239 1    
   233  117  118 2    
   234  117  119 am   BACKBONE|DICT|INTERRES
   235  119  120 1    
   236  119  240 1    
   237  120  121 1    
   238  120  124 1    
   239  120  241 1    
   240  121  122 am   BACKBONE|DICT|INTERRES
   241  121  123 2    
   242  122  242 1    
   243  122  243 1    
   244  124  125 1    
   245  124  244 1    
   246  124  245 1    
   247  125  126 1    
   248  126  246 1    
   249  126  247 1    
@<TRIPOS>SUBSTRUCTURE
     1 UNK         1 GROUP             0       ****    0 ROOT    
