@<TRIPOS>MOLECULE
3R540
247   249    1
SMALL
USER_CHARGES


@<TRIPOS>ATOM
      1 CA          4.2226  -15.9656  -47.4007 C.3       0 UNK        -0.1800 
      2 C           2.9966  -15.0768  -47.2491 C.2       0 UNK         0.5000 
      3 O           3.0592  -13.8878  -47.5668 O.2       0 UNK        -0.5000 
      4 N           1.8861  -15.6406  -46.7569 N.am      1 UNK        -0.5000 
      5 CA          0.5887  -14.9663  -46.6270 C.3       1 UNK         0.1400 
      6 C6         -0.3950  -15.7925  -45.7296 C.3       23 UNK        -0.0398 
      7 S7         -2.1039  -16.1022  -46.3207 S.3       23 UNK        -0.2404 
      8 C8         -2.0850  -17.8915  -46.6563 C.3       23 UNK        -0.0205 
      9 C9         -1.2147  -18.2490  -47.8510 C.ar      23 UNK        -0.0193 
     10 C10        -1.7401  -18.1984  -49.1441 C.ar      23 UNK        -0.1150 
     11 C11        -0.9396  -18.5079  -50.2478 C.ar      23 UNK        -0.0193 
     12 C12         0.3954  -18.8753  -50.0501 C.ar      23 UNK        -0.1150 
     13 C13         0.9334  -18.9242  -48.7603 C.ar      23 UNK        -0.0193 
     14 C14         0.1181  -18.6245  -47.6672 C.ar      23 UNK        -0.1150 
     15 C15         2.4078  -19.2380  -48.5505 C.3       23 UNK        -0.0205 
     16 S16         2.7558  -21.0227  -48.5161 S.3       23 UNK        -0.2404 
     17 C17         2.2060  -21.4960  -46.8397 C.3       23 UNK        -0.0398 
     18 CA          1.3087  -22.7563  -46.8594 C.3       11 UNK         0.1400 
     19 N           1.3413  -23.4788  -45.5854 N.am      11 UNK        -0.5000 
     20 C           0.9573  -24.7561  -45.4430 C.2       10 UNK         0.5000 
     21 O           0.5670  -25.4552  -46.3769 O.2       10 UNK        -0.5000 
     22 CA          0.9637  -25.3449  -44.0194 C.3       10 UNK         0.1400 
     23 CB          2.3223  -25.9906  -43.7111 C.3       10 UNK        -0.1800 
     24 N           0.6491  -24.3647  -42.9799 N.am      10 UNK        -0.5000 
     25 C          -0.4968  -23.6766  -42.8916 C.2       9 UNK         0.5000 
     26 O          -1.4326  -23.8136  -43.6805 O.2       9 UNK        -0.5000 
     27 CA         -0.6057  -22.6239  -41.7692 C.3       9 UNK         0.1400 
     28 CB          0.4670  -22.7711  -40.6667 C.3       9 UNK        -0.1800 
     29 N          -0.5994  -21.2520  -42.2915 N.am      9 UNK        -0.5000 
     30 C           0.3204  -20.6888  -43.0900 C.2       8 UNK         0.5000 
     31 O           1.2774  -21.3001  -43.5701 O.2       8 UNK        -0.5000 
     32 CA          0.1578  -19.1940  -43.4186 C.3       8 UNK         0.1400 
     33 CB         -1.0775  -18.5250  -42.7828 C.3       8 UNK        -0.1800 
     34 N           1.3497  -18.4917  -42.9630 N.am      8 UNK        -0.5000 
     35 C           2.3357  -18.0220  -43.7329 C.2       7 UNK         0.5000 
     36 O           2.3228  -18.0504  -44.9656 O.2       7 UNK        -0.5000 
     37 CA          3.5154  -17.3870  -42.9719 C.3       7 UNK         0.1400 
     38 CB          4.6349  -16.8859  -43.9002 C.3       7 UNK        -0.1800 
     39 N           3.0549  -16.2788  -42.1336 N.am      7 UNK        -0.5000 
     40 C           2.5793  -16.3981  -40.8858 C.2       6 UNK         0.5000 
     41 O           2.4763  -17.4809  -40.3073 O.2       6 UNK        -0.5000 
     42 CA          2.1280  -15.1132  -40.1605 C.3       6 UNK         0.1400 
     43 CB          3.2502  -14.5935  -39.2492 C.3       6 UNK        -0.1800 
     44 N           1.7199  -14.0390  -41.0661 N.am      6 UNK        -0.5000 
     45 C           0.6019  -14.0426  -41.8044 C.2       5 UNK         0.5000 
     46 O          -0.2472  -14.9324  -41.7542 O.2       5 UNK        -0.5000 
     47 CA          0.4056  -12.8656  -42.7838 C.3       5 UNK         0.1400 
     48 CB         -0.4761  -11.7810  -42.1479 C.3       5 UNK        -0.1800 
     49 N           1.6374  -12.2427  -43.2867 N.am      5 UNK        -0.5000 
     50 C           2.6520  -12.8803  -43.8852 C.2       4 UNK         0.5000 
     51 O           2.7161  -14.1030  -43.9958 O.2       4 UNK        -0.5000 
     52 CA          3.7267  -11.9962  -44.5279 C.3       4 UNK         0.1400 
     53 CB          5.0632  -12.7351  -44.7171 C.3       4 UNK        -0.1800 
     54 N           3.2036  -11.6049  -45.8295 N.am      4 UNK        -0.5000 
     55 C           2.7761  -10.3804  -46.1519 C.2       3 UNK         0.5000 
     56 O           2.9334   -9.3852  -45.4435 O.2       3 UNK        -0.5000 
     57 CA          1.9805  -10.2672  -47.4650 C.3       3 UNK         0.1400 
     58 CB          2.9119  -10.3485  -48.6844 C.3       3 UNK        -0.1800 
     59 N           0.9289  -11.2834  -47.5823 N.am      3 UNK        -0.5000 
     60 C          -0.1187  -11.4113  -46.7526 C.2       2 UNK         0.5000 
     61 O          -0.3051  -10.6885  -45.7744 O.2       2 UNK        -0.5000 
     62 CA         -1.1433  -12.5232  -47.0567 C.3       2 UNK         0.1400 
     63 CB         -2.4938  -11.9094  -47.4567 C.3       2 UNK        -0.1800 
     64 N          -0.7168  -13.4293  -48.1271 N.am      2 UNK        -0.5000 
     65 C           0.0453  -14.5279  -48.0192 C.2       1 UNK         0.5000 
     66 O           0.3253  -15.1916  -49.0170 O.2       1 UNK        -0.5000 
     67 C          -0.1386  -22.4383  -47.2856 C.2       11 UNK         0.5000 
     68 O          -0.4656  -22.5743  -48.4632 O.2       11 UNK        -0.5000 
     69 N          -0.9988  -22.0936  -46.3142 N.am      12 UNK        -0.5000 
     70 CA         -2.4303  -21.8766  -46.5333 C.3       12 UNK         0.1400 
     71 CB         -3.0689  -21.2578  -45.2811 C.3       12 UNK        -0.1800 
     72 C          -3.1522  -23.1782  -46.9193 C.2       12 UNK         0.5000 
     73 O          -3.9985  -23.1591  -47.8129 O.2       12 UNK        -0.5000 
     74 N          -2.7758  -24.2864  -46.2652 N.am      13 UNK        -0.5000 
     75 CA         -3.2541  -25.6347  -46.5658 C.3       13 UNK         0.1400 
     76 CB         -2.7698  -26.6102  -45.4829 C.3       13 UNK        -0.1800 
     77 C          -2.8313  -26.1061  -47.9690 C.2       13 UNK         0.5000 
     78 O          -3.6758  -26.5980  -48.7173 O.2       13 UNK        -0.5000 
     79 N          -1.5535  -25.9005  -48.3234 N.am      14 UNK        -0.5000 
     80 CA         -0.9949  -26.1970  -49.6470 C.3       14 UNK         0.1400 
     81 CB          0.5265  -25.9881  -49.6233 C.3       14 UNK        -0.1800 
     82 C          -1.6378  -25.3645  -50.7726 C.2       14 UNK         0.5000 
     83 O          -1.8714  -25.8883  -51.8619 O.2       14 UNK        -0.5000 
     84 N          -1.9531  -24.0981  -50.4725 N.am      15 UNK        -0.5000 
     85 CA         -2.6852  -23.1838  -51.3466 C.3       15 UNK         0.1400 
     86 CB         -2.4202  -21.7428  -50.8884 C.3       15 UNK        -0.1800 
     87 C          -4.2018  -23.4509  -51.3969 C.2       15 UNK         0.5000 
     88 O          -4.8934  -22.7628  -52.1486 O.2       15 UNK        -0.5000 
     89 N          -4.7059  -24.4038  -50.5991 N.am      16 UNK        -0.5000 
     90 CA         -6.1135  -24.7926  -50.4627 C.3       16 UNK         0.1400 
     91 CB         -6.6093  -25.4778  -51.7533 C.3       16 UNK        -0.1800 
     92 C          -7.0119  -23.6202  -50.0144 C.2       16 UNK         0.5000 
     93 O          -8.1025  -23.4351  -50.5550 O.2       16 UNK        -0.5000 
     94 N          -6.5105  -22.8351  -49.0487 N.am      17 UNK        -0.5000 
     95 CA         -7.0821  -21.5856  -48.5358 C.3       17 UNK         0.1400 
     96 CB         -8.4355  -21.8307  -47.8355 C.3       17 UNK        -0.1800 
     97 C          -7.1351  -20.4846  -49.6169 C.2       17 UNK         0.5000 
     98 O          -8.1360  -19.7758  -49.7357 O.2       17 UNK        -0.5000 
     99 N          -6.0347  -20.3735  -50.3766 N.am      18 UNK        -0.5000 
    100 CA        -5.8041  -19.4466  -51.4893 C.3       18 UNK         0.1400 
    101 CB        -5.7818  -17.9831  -50.9999 C.3       18 UNK        -0.1800 
    102 C         -6.7652  -19.6890  -52.6718 C.2       18 UNK         0.5000 
    103 O         -7.4052  -18.7541  -53.1584 O.2       18 UNK        -0.5000 
    104 N         -6.8469  -20.9539  -53.1009 N.am      19 UNK        -0.5000 
    105 CA        -7.6370  -21.4068  -54.2463 C.3       19 UNK         0.1400 
    106 CB        -8.7864  -22.2984  -53.7525 C.3       19 UNK        -0.1800 
    107 C         -6.7714  -22.1599  -55.2711 C.2       19 UNK         0.5000 
    108 O         -7.0132  -22.0282  -56.4715 O.2       19 UNK        -0.5000 
    109 N         -5.7763  -22.9225  -54.7969 N.am      20 UNK        -0.5000 
    110 CA        -4.8217  -23.6640  -55.6259 C.3       20 UNK         0.1400 
    111 CB        -4.4704  -24.9848  -54.9218 C.3       20 UNK        -0.1800 
    112 C         -3.5452  -22.8502  -55.9148 C.2       20 UNK         0.5000 
    113 O         -2.7724  -23.2294  -56.7957 O.2       20 UNK        -0.5000 
    114 N         -3.3469  -21.7505  -55.1812 N.am      21 UNK        -0.5000 
    115 CA        -2.2664  -20.7858  -55.3406 C.3       21 UNK         0.1400 
    116 CB        -1.0414  -21.2338  -54.5248 C.3       21 UNK        -0.1800 
    117 C         -2.7844  -19.4105  -54.8936 C.2       21 UNK         0.5000 
    118 O         -3.8446  -19.3350  -54.2678 O.2       21 UNK        -0.5000 
    119 N         -2.0329  -18.3542  -55.2274 N.am      22 UNK        -0.5000 
    120 CA        -2.3767  -16.9349  -54.9981 C.3       22 UNK         0.1400 
    121 C         -3.5409  -16.4005  -55.8921 C.2       22 UNK         0.5000 
    122 N         -3.9404  -17.0957  -56.9504 N.am      22 UNK        -0.7600 
    123 O         -4.0711  -15.3194  -55.6499 O.2       22 UNK        -0.5000 
    124 C124       -2.5743  -16.5655  -53.4985 C.3       23 UNK        -0.0398 
    125 S125       -1.0995  -16.8646  -52.4646 S.3       23 UNK        -0.2404 
    126 C126       -1.5197  -18.4358  -51.6505 C.3       23 UNK        -0.0205 
    127 H127        4.4271  -16.1420  -48.4565 H         1 UNK         0.0600 
    128 H128        4.0852  -16.9304  -46.9134 H         1 UNK         0.0600 
    129 H129        5.0954  -15.4858  -46.9587 H         1 UNK         0.0600 
    130 H130        1.9178  -16.6076  -46.4569 H         1 UNK         0.3000 
    131 H131        0.8197  -14.0544  -46.0766 H         1 UNK         0.0600 
    132 H132       -0.4934  -15.2876  -44.7690 H         1 UNK         0.0800 
    133 H133        0.0437  -16.7518  -45.4635 H         1 UNK         0.0800 
    134 H134       -3.1074  -18.2280  -46.8344 H         1 UNK         0.0800 
    135 H135       -1.7445  -18.4151  -45.7660 H         1 UNK         0.0800 
    136 H136       -2.7683  -17.9013  -49.2915 H         1 UNK         0.1150 
    137 H137        1.0212  -19.1009  -50.9019 H         1 UNK         0.1150 
    138 H138        0.5331  -18.6587  -46.6738 H         1 UNK         0.1150 
    139 H139        2.9889  -18.7841  -49.3544 H         1 UNK         0.0800 
    140 H140        2.7680  -18.7838  -47.6270 H         1 UNK         0.0800 
    141 H141        1.7155  -20.6635  -46.3341 H         1 UNK         0.0800 
    142 H142        3.1098  -21.6943  -46.2621 H         1 UNK         0.0800 
    143 H143        1.7178  -23.4373  -47.6094 H         1 UNK         0.0600 
    144 H144        1.5892  -22.9396  -44.7619 H         1 UNK         0.3000 
    145 H145        0.1997  -26.1236  -43.9814 H         1 UNK         0.0600 
    146 H146        2.3124  -26.4875  -42.7409 H         1 UNK         0.0600 
    147 H147        3.1262  -25.2534  -43.7038 H         1 UNK         0.0600 
    148 H148        2.5746  -26.7445  -44.4582 H         1 UNK         0.0600 
    149 H149        1.3779  -24.1666  -42.3100 H         1 UNK         0.3000 
    150 H150       -1.5805  -22.7784  -41.3044 H         1 UNK         0.0600 
    151 H151        1.4731  -22.5718  -41.0377 H         1 UNK         0.0600 
    152 H152        0.4590  -23.7743  -40.2383 H         1 UNK         0.0600 
    153 H153        0.2781  -22.0751  -39.8493 H         1 UNK         0.0600 
    154 H154       -1.3646  -20.6724  -41.9769 H         1 UNK         0.3000 
    155 H155        0.0656  -19.1248  -44.5013 H         1 UNK         0.0600 
    156 H156       -2.0050  -19.0047  -43.0953 H         1 UNK         0.0600 
    157 H157       -1.1459  -17.4792  -43.0845 H         1 UNK         0.0600 
    158 H158       -1.0370  -18.5445  -41.6928 H         1 UNK         0.0600 
    159 H159        1.4738  -18.4230  -41.9596 H         1 UNK         0.3000 
    160 H160        3.9455  -18.1668  -42.3399 H         1 UNK         0.0600 
    161 H161        4.2874  -16.0883  -44.5543 H         1 UNK         0.0600 
    162 H162        5.0112  -17.6913  -44.5320 H         1 UNK         0.0600 
    163 H163        5.4780  -16.5008  -43.3269 H         1 UNK         0.0600 
    164 H164        3.0082  -15.3752  -42.5966 H         1 UNK         0.3000 
    165 H165        1.2729  -15.3740  -39.5334 H         1 UNK         0.0600 
    166 H166        2.9213  -13.7300  -38.6708 H         1 UNK         0.0600 
    167 H167        3.5623  -15.3594  -38.5379 H         1 UNK         0.0600 
    168 H168        4.1304  -14.2998  -39.8225 H         1 UNK         0.0600 
    169 H169        2.3612  -13.2675  -41.1754 H         1 UNK         0.3000 
    170 H170       -0.1256  -13.2576  -43.6518 H         1 UNK         0.0600 
    171 H171        0.0191  -11.3076  -41.2993 H         1 UNK         0.0600 
    172 H172       -0.7260  -11.0027  -42.8696 H         1 UNK         0.0600 
    173 H173       -1.4165  -12.2007  -41.7880 H         1 UNK         0.0600 
    174 H174        1.6546  -11.2326  -43.2724 H         1 UNK         0.3000 
    175 H175        3.8992  -11.1314  -43.8841 H         1 UNK         0.0600 
    176 H176        4.9613  -13.6042  -45.3667 H         1 UNK         0.0600 
    177 H177        5.8136  -12.0786  -45.1576 H         1 UNK         0.0600 
    178 H178        5.4542  -13.0842  -43.7608 H         1 UNK         0.0600 
    179 H179        3.0363  -12.3695  -46.4815 H         1 UNK         0.3000 
    180 H180        1.4965   -9.2884  -47.4741 H         1 UNK         0.0600 
    181 H181        2.3648  -10.1711  -49.6105 H         1 UNK         0.0600 
    182 H182        3.3935  -11.3241  -48.7613 H         1 UNK         0.0600 
    183 H183        3.7001   -9.5970  -48.6243 H         1 UNK         0.0600 
    184 H184        1.0158  -11.9356  -48.3485 H         1 UNK         0.3000 
    185 H185       -1.3039  -13.0843  -46.1353 H         1 UNK         0.0600 
    186 H186       -2.4139  -11.3173  -48.3692 H         1 UNK         0.0600 
    187 H187       -3.2436  -12.6835  -47.6227 H         1 UNK         0.0600 
    188 H188       -2.8760  -11.2543  -46.6726 H         1 UNK         0.0600 
    189 H189       -1.0508  -13.1857  -49.0478 H         1 UNK         0.3000 
    190 H190       -0.6778  -22.1020  -45.3576 H         1 UNK         0.3000 
    191 H191       -2.5400  -21.1691  -47.3582 H         1 UNK         0.0600 
    192 H192       -2.5326  -20.3694  -44.9584 H         1 UNK         0.0600 
    193 H193       -3.0876  -21.9536  -44.4427 H         1 UNK         0.0600 
    194 H194       -4.0998  -20.9625  -45.4801 H         1 UNK         0.0600 
    195 H195       -2.1204  -24.1929  -45.4955 H         1 UNK         0.3000 
    196 H196       -4.3455  -25.6124  -46.5365 H         1 UNK         0.0600 
    197 H197       -3.0954  -26.2931  -44.4919 H         1 UNK         0.0600 
    198 H198       -1.6834  -26.6915  -45.4674 H         1 UNK         0.0600 
    199 H199       -3.1701  -27.6103  -45.6536 H         1 UNK         0.0600 
    200 H200       -0.9038  -25.5355  -47.6326 H         1 UNK         0.3000 
    201 H201       -1.1907  -27.2496  -49.8614 H         1 UNK         0.0600 
    202 H202        1.0021  -26.6351  -48.8861 H         1 UNK         0.0600 
    203 H203        0.7866  -24.9571  -49.3821 H         1 UNK         0.0600 
    204 H204        0.9686  -26.2205  -50.5929 H         1 UNK         0.0600 
    205 H205       -1.6526  -23.7186  -49.5795 H         1 UNK         0.3000 
    206 H206       -2.3050  -23.2952  -52.3639 H         1 UNK         0.0600 
    207 H207       -1.3528  -21.5215  -50.8824 H         1 UNK         0.0600 
    208 H208       -2.8026  -21.5594  -49.8839 H         1 UNK         0.0600 
    209 H209       -2.8945  -21.0281  -51.5597 H         1 UNK         0.0600 
    210 H210       -4.0650  -24.9060  -49.9970 H         1 UNK         0.3000 
    211 H211       -6.1522  -25.5306  -49.6604 H         1 UNK         0.0600 
    212 H212       -6.6451  -24.7853  -52.5938 H         1 UNK         0.0600 
    213 H213       -7.6134  -25.8819  -51.6206 H         1 UNK         0.0600 
    214 H214       -5.9599  -26.3077  -52.0319 H         1 UNK         0.0600 
    215 H215       -5.5937  -23.0723  -48.6705 H         1 UNK         0.3000 
    216 H216       -6.3855  -21.2278  -47.7761 H         1 UNK         0.0600 
    217 H217       -8.7808  -20.9274  -47.3315 H         1 UNK         0.0600 
    218 H218       -8.3521  -22.6116  -47.0798 H         1 UNK         0.0600 
    219 H219       -9.2131  -22.1262  -48.5401 H         1 UNK         0.0600 
    220 H220       -5.3014  -21.0488  -50.2201 H         1 UNK         0.3000 
    221 H221       -4.8069  -19.6733  -51.8636 H         1 UNK         0.0600 
    222 H222       -6.7553  -17.6617  -50.6293 H         1 UNK         0.0600 
    223 H223       -5.0558  -17.8457  -50.1992 H         1 UNK         0.0600 
    224 H224       -5.5047  -17.3074  -51.8093 H         1 UNK         0.0600 
    225 H225       -6.2686  -21.6502  -52.6386 H         1 UNK         0.3000 
    226 H226       -8.0727  -20.5517  -54.7670 H         1 UNK         0.0600 
    227 H227       -9.4189  -21.7669  -53.0412 H         1 UNK         0.0600 
    228 H228       -9.4200  -22.6146  -54.5820 H         1 UNK         0.0600 
    229 H229       -8.4158  -23.1978  -53.2608 H         1 UNK         0.0600 
    230 H230       -5.6070  -22.9578  -53.7953 H         1 UNK         0.3000 
    231 H231       -5.2798  -23.9085  -56.5864 H         1 UNK         0.0600 
    232 H232       -3.8123  -25.5939  -55.5426 H         1 UNK         0.0600 
    233 H233       -3.9588  -24.8180  -53.9742 H         1 UNK         0.0600 
    234 H234       -5.3642  -25.5758  -54.7220 H         1 UNK         0.0600 
    235 H235       -4.0626  -21.4595  -54.5271 H         1 UNK         0.3000 
    236 H236       -1.9959  -20.7146  -56.3961 H         1 UNK         0.0600 
    237 H237       -1.2755  -21.3262  -53.4659 H         1 UNK         0.0600 
    238 H238       -0.6724  -22.2004  -54.8680 H         1 UNK         0.0600 
    239 H239       -0.2204  -20.5224  -54.6193 H         1 UNK         0.0600 
    240 H240       -1.1739  -18.5099  -55.7353 H         1 UNK         0.3000 
    241 H241       -1.5060  -16.3767  -55.3438 H         1 UNK         0.0600 
    242 H242       -4.6841  -16.7343  -57.5270 H         1 UNK         0.3800 
    243 H243       -3.5091  -17.9751  -57.1830 H         1 UNK         0.3800 
    244 H244       -3.4440  -17.0721  -53.0820 H         1 UNK         0.0800 
    245 H245       -2.7913  -15.5006  -53.4023 H         1 UNK         0.0800 
    246 H246       -1.1353  -19.2585  -52.2523 H         1 UNK         0.0800 
    247 H247       -2.6012  -18.5638  -51.6057 H         1 UNK         0.0800 
@<TRIPOS>BOND
     1    1    2 1    
     2    1  127 1    
     3    1  128 1    
     4    1  129 1    
     5    2    3 2    
     6    2    4 am   BACKBONE|DICT|INTERRES
     7    4    5 1    
     8    4  130 1    
     9    5    6 1    
    10    5   65 1    
    11    5  131 1    
    12    6    7 1    
    13    6  132 1    
    14    6  133 1    
    15    7    8 1    
    16    8    9 1    
    17    8  134 1    
    18    8  135 1    
    19    9   10 ar   
    20    9   14 ar   
    21   10   11 ar   
    22   10  136 1    
    23   11   12 ar   
    24   11  126 1    
    25   12   13 ar   
    26   12  137 1    
    27   13   14 ar   
    28   13   15 1    
    29   14  138 1    
    30   15   16 1    
    31   15  139 1    
    32   15  140 1    
    33   16   17 1    
    34   17   18 1    
    35   17  141 1    
    36   17  142 1    
    37   18   19 1    
    38   18   67 1    
    39   18  143 1    
    40   19   20 am   BACKBONE|DICT|INTERRES
    41   19  144 1    
    42   20   21 2    
    43   20   22 1    
    44   22   23 1    
    45   22   24 1    
    46   22  145 1    
    47   23  146 1    
    48   23  147 1    
    49   23  148 1    
    50   24   25 am   BACKBONE|DICT|INTERRES
    51   24  149 1    
    52   25   26 2    
    53   25   27 1    
    54   27   28 1    
    55   27   29 1    
    56   27  150 1    
    57   28  151 1    
    58   28  152 1    
    59   28  153 1    
    60   29   30 am   BACKBONE|DICT|INTERRES
    61   29  154 1    
    62   30   31 2    
    63   30   32 1    
    64   32   33 1    
    65   32   34 1    
    66   32  155 1    
    67   33  156 1    
    68   33  157 1    
    69   33  158 1    
    70   34   35 am   BACKBONE|DICT|INTERRES
    71   34  159 1    
    72   35   36 2    
    73   35   37 1    
    74   37   38 1    
    75   37   39 1    
    76   37  160 1    
    77   38  161 1    
    78   38  162 1    
    79   38  163 1    
    80   39   40 am   BACKBONE|DICT|INTERRES
    81   39  164 1    
    82   40   41 2    
    83   40   42 1    
    84   42   43 1    
    85   42   44 1    
    86   42  165 1    
    87   43  166 1    
    88   43  167 1    
    89   43  168 1    
    90   44   45 am   BACKBONE|DICT|INTERRES
    91   44  169 1    
    92   45   46 2    
    93   45   47 1    
    94   47   48 1    
    95   47   49 1    
    96   47  170 1    
    97   48  171 1    
    98   48  172 1    
    99   48  173 1    
   100   49   50 am   BACKBONE|DICT|INTERRES
   101   49  174 1    
   102   50   51 2    
   103   50   52 1    
   104   52   53 1    
   105   52   54 1    
   106   52  175 1    
   107   53  176 1    
   108   53  177 1    
   109   53  178 1    
   110   54   55 am   BACKBONE|DICT|INTERRES
   111   54  179 1    
   112   55   56 2    
   113   55   57 1    
   114   57   58 1    
   115   57   59 1    
   116   57  180 1    
   117   58  181 1    
   118   58  182 1    
   119   58  183 1    
   120   59   60 am   BACKBONE|DICT|INTERRES
   121   59  184 1    
   122   60   61 2    
   123   60   62 1    
   124   62   63 1    
   125   62   64 1    
   126   62  185 1    
   127   63  186 1    
   128   63  187 1    
   129   63  188 1    
   130   64   65 am   BACKBONE|DICT|INTERRES
   131   64  189 1    
   132   65   66 2    
   133   67   68 2    
   134   67   69 am   BACKBONE|DICT|INTERRES
   135   69   70 1    
   136   69  190 1    
   137   70   71 1    
   138   70   72 1    
   139   70  191 1    
   140   71  192 1    
   141   71  193 1    
   142   71  194 1    
   143   72   73 2    
   144   72   74 am   BACKBONE|DICT|INTERRES
   145   74   75 1    
   146   74  195 1    
   147   75   76 1    
   148   75   77 1    
   149   75  196 1    
   150   76  197 1    
   151   76  198 1    
   152   76  199 1    
   153   77   78 2    
   154   77   79 am   BACKBONE|DICT|INTERRES
   155   79   80 1    
   156   79  200 1    
   157   80   81 1    
   158   80   82 1    
   159   80  201 1    
   160   81  202 1    
   161   81  203 1    
   162   81  204 1    
   163   82   83 2    
   164   82   84 am   BACKBONE|DICT|INTERRES
   165   84   85 1    
   166   84  205 1    
   167   85   86 1    
   168   85   87 1    
   169   85  206 1    
   170   86  207 1    
   171   86  208 1    
   172   86  209 1    
   173   87   88 2    
   174   87   89 am   BACKBONE|DICT|INTERRES
   175   89   90 1    
   176   89  210 1    
   177   90   91 1    
   178   90   92 1    
   179   90  211 1    
   180   91  212 1    
   181   91  213 1    
   182   91  214 1    
   183   92   93 2    
   184   92   94 am   BACKBONE|DICT|INTERRES
   185   94   95 1    
   186   94  215 1    
   187   95   96 1    
   188   95   97 1    
   189   95  216 1    
   190   96  217 1    
   191   96  218 1    
   192   96  219 1    
   193   97   98 2    
   194   97   99 am   BACKBONE|DICT|INTERRES
   195   99  100 1    
   196   99  220 1    
   197  100  101 1    
   198  100  102 1    
   199  100  221 1    
   200  101  222 1    
   201  101  223 1    
   202  101  224 1    
   203  102  103 2    
   204  102  104 am   BACKBONE|DICT|INTERRES
   205  104  105 1    
   206  104  225 1    
   207  105  106 1    
   208  105  107 1    
   209  105  226 1    
   210  106  227 1    
   211  106  228 1    
   212  106  229 1    
   213  107  108 2    
   214  107  109 am   BACKBONE|DICT|INTERRES
   215  109  110 1    
   216  109  230 1    
   217  110  111 1    
   218  110  112 1    
   219  110  231 1    
   220  111  232 1    
   221  111  233 1    
   222  111  234 1    
   223  112  113 2    
   224  112  114 am   BACKBONE|DICT|INTERRES
   225  114  115 1    
   226  114  235 1    
   227  115  116 1    
   228  115  117 1    
   229  115  236 1    
   230  116  237 1    
   231  116  238 1    
   232  116  239 1    
   233  117  118 2    
   234  117  119 am   BACKBONE|DICT|INTERRES
   235  119  120 1    
   236  119  240 1    
   237  120  121 1    
   238  120  124 1    
   239  120  241 1    
   240  121  122 am   BACKBONE|DICT|INTERRES
   241  121  123 2    
   242  122  242 1    
   243  122  243 1    
   244  124  125 1    
   245  124  244 1    
   246  124  245 1    
   247  125  126 1    
   248  126  246 1    
   249  126  247 1    
@<TRIPOS>SUBSTRUCTURE
     1 UNK         1 GROUP             0       ****    0 ROOT    
