@<TRIPOS>MOLECULE
3R540
247   249    1
SMALL
USER_CHARGES


@<TRIPOS>ATOM
      1 CA          4.8423  -16.3633  -43.2395 C.3       0 UNK        -0.1800 
      2 C           3.9202  -15.3322  -43.8725 C.2       0 UNK         0.5000 
      3 O           3.0747  -14.7604  -43.1863 O.2       0 UNK        -0.5000 
      4 N           4.0808  -15.0824  -45.1768 N.am      1 UNK        -0.5000 
      5 CA          3.2647  -14.1731  -45.9949 C.3       1 UNK         0.1400 
      6 C6          3.3072  -14.5657  -47.4960 C.3       23 UNK        -0.0398 
      7 S7          2.8843  -16.3194  -47.7700 S.3       23 UNK        -0.2404 
      8 C8          1.4127  -16.2090  -48.8374 C.3       23 UNK        -0.0205 
      9 C9          0.7943  -17.5822  -49.0676 C.ar      23 UNK        -0.0193 
     10 C10        -0.5511  -17.8148  -48.7649 C.ar      23 UNK        -0.1150 
     11 C11        -1.1102  -19.0866  -48.9337 C.ar      23 UNK        -0.0193 
     12 C12        -0.3103  -20.1287  -49.4095 C.ar      23 UNK        -0.1150 
     13 C13         1.0307  -19.9061  -49.7277 C.ar      23 UNK        -0.0193 
     14 C14         1.5723  -18.6294  -49.5707 C.ar      23 UNK        -0.1150 
     15 C15         1.8992  -21.0483  -50.2214 C.3       23 UNK        -0.0205 
     16 S16         3.0240  -21.6178  -48.9070 S.3       23 UNK        -0.2404 
     17 C17         3.0912  -23.4059  -49.2534 C.3       23 UNK        -0.0398 
     18 CA          2.2826  -24.2888  -48.2723 C.3       11 UNK         0.1400 
     19 N           2.8485  -24.3188  -46.9219 N.am      11 UNK        -0.5000 
     20 C           2.8098  -25.4032  -46.1350 C.2       10 UNK         0.5000 
     21 O           2.3050  -26.4753  -46.4722 O.2       10 UNK        -0.5000 
     22 CA          3.4150  -25.2638  -44.7270 C.3       10 UNK         0.1400 
     23 CB          4.9503  -25.2717  -44.7888 C.3       10 UNK        -0.1800 
     24 N           2.9633  -24.0666  -44.0188 N.am      10 UNK        -0.5000 
     25 C           1.6914  -23.8090  -43.6850 C.2       9 UNK         0.5000 
     26 O           0.7428  -24.5412  -43.9686 O.2       9 UNK        -0.5000 
     27 CA          1.4309  -22.4981  -42.9191 C.3       9 UNK         0.1400 
     28 CB          1.6054  -22.7210  -41.4093 C.3       9 UNK        -0.1800 
     29 N           2.2505  -21.3532  -43.3321 N.am      9 UNK        -0.5000 
     30 C           2.3811  -20.8882  -44.5817 C.2       8 UNK         0.5000 
     31 O           1.9465  -21.4620  -45.5817 O.2       8 UNK        -0.5000 
     32 CA          3.0810  -19.5284  -44.7341 C.3       8 UNK         0.1400 
     33 CB          4.2340  -19.5900  -45.7466 C.3       8 UNK        -0.1800 
     34 N           2.1035  -18.5431  -45.1829 N.am      8 UNK        -0.5000 
     35 C           1.2192  -17.9338  -44.3864 C.2       7 UNK         0.5000 
     36 O           1.2078  -18.0389  -43.1573 O.2       7 UNK        -0.5000 
     37 CA          0.1442  -17.0969  -45.0869 C.3       7 UNK         0.1400 
     38 CB         -1.0953  -17.9533  -45.3929 C.3       7 UNK        -0.1800 
     39 N          -0.2435  -15.9779  -44.2368 N.am      7 UNK        -0.5000 
     40 C          -0.6527  -14.7921  -44.6950 C.2       6 UNK         0.5000 
     41 O          -0.7028  -14.5073  -45.8948 O.2       6 UNK        -0.5000 
     42 CA         -1.0597  -13.7498  -43.6355 C.3       6 UNK         0.1400 
     43 CB          0.1768  -13.0772  -43.0203 C.3       6 UNK        -0.1800 
     44 N          -1.8973  -12.7109  -44.2285 N.am      6 UNK        -0.5000 
     45 C          -3.2074  -12.8336  -44.4885 C.2       5 UNK         0.5000 
     46 O          -3.8850  -13.8036  -44.1468 O.2       5 UNK        -0.5000 
     47 CA         -3.8672  -11.6879  -45.2743 C.3       5 UNK         0.1400 
     48 CB         -4.3956  -10.6157  -44.3003 C.3       5 UNK        -0.1800 
     49 N          -2.9061  -11.1197  -46.2176 N.am      5 UNK        -0.5000 
     50 C          -3.1116  -10.1842  -47.1465 C.2       4 UNK         0.5000 
     51 O          -4.2059   -9.6621  -47.3671 O.2       4 UNK        -0.5000 
     52 CA         -1.8564   -9.7553  -47.9419 C.3       4 UNK         0.1400 
     53 CB         -2.1739   -8.7259  -49.0417 C.3       4 UNK        -0.1800 
     54 N          -0.8042   -9.2079  -47.0762 N.am      4 UNK        -0.5000 
     55 C          -0.0235   -9.9107  -46.2458 C.2       3 UNK         0.5000 
     56 O          -0.0994  -11.1358  -46.1047 O.2       3 UNK        -0.5000 
     57 CA          0.9750   -9.1157  -45.3960 C.3       3 UNK         0.1400 
     58 CB          0.2642   -8.4060  -44.2297 C.3       3 UNK        -0.1800 
     59 N           1.9599  -10.0532  -44.8734 N.am      3 UNK        -0.5000 
     60 C           3.2084   -9.7668  -44.4966 C.2       2 UNK         0.5000 
     61 O           3.6801   -8.6289  -44.5052 O.2       2 UNK        -0.5000 
     62 CA          4.0823  -10.9471  -44.0264 C.3       2 UNK         0.1400 
     63 CB          4.1519  -10.9810  -42.4918 C.3       2 UNK        -0.1800 
     64 N           3.6344  -12.2608  -44.4986 N.am      2 UNK        -0.5000 
     65 C           3.6749  -12.6982  -45.7639 C.2       1 UNK         0.5000 
     66 O           4.0520  -12.0001  -46.7065 O.2       1 UNK        -0.5000 
     67 C           0.7757  -23.9625  -48.2469 C.2       11 UNK         0.5000 
     68 O           0.0573  -24.4276  -49.1294 O.2       11 UNK        -0.5000 
     69 N           0.3029  -23.2255  -47.2284 N.am      12 UNK        -0.5000 
     70 CA         -1.1166  -22.9364  -47.0066 C.3       12 UNK         0.1400 
     71 CB         -1.2799  -21.9501  -45.8451 C.3       12 UNK        -0.1800 
     72 C          -1.9519  -24.2027  -46.7591 C.2       12 UNK         0.5000 
     73 O          -3.0758  -24.2865  -47.2534 O.2       12 UNK        -0.5000 
     74 N          -1.3728  -25.1779  -46.0437 N.am      13 UNK        -0.5000 
     75 CA         -1.9503  -26.5039  -45.8281 C.3       13 UNK         0.1400 
     76 CB         -1.1099  -27.2651  -44.7923 C.3       13 UNK        -0.1800 
     77 C          -2.0744  -27.3143  -47.1320 C.2       13 UNK         0.5000 
     78 O          -3.1040  -27.9525  -47.3502 O.2       13 UNK        -0.5000 
     79 N          -1.0459  -27.2445  -47.9902 N.am      14 UNK        -0.5000 
     80 CA         -1.0203  -27.8826  -49.3102 C.3       14 UNK         0.1400 
     81 CB          0.4147  -27.8690  -49.8592 C.3       14 UNK        -0.1800 
     82 C          -1.9976  -27.2209  -50.3012 C.2       14 UNK         0.5000 
     83 O          -2.6587  -27.9200  -51.0692 O.2       14 UNK        -0.5000 
     84 N          -2.0988  -25.8873  -50.2316 N.am      15 UNK        -0.5000 
     85 CA         -3.0544  -25.0573  -50.9668 C.3       15 UNK         0.1400 
     86 CB         -2.6017  -23.5904  -50.8577 C.3       15 UNK        -0.1800 
     87 C          -4.5071  -25.1974  -50.4679 C.2       15 UNK         0.5000 
     88 O          -5.4189  -24.7151  -51.1390 O.2       15 UNK        -0.5000 
     89 N          -4.6950  -25.7990  -49.2823 N.am      16 UNK        -0.5000 
     90 CA         -5.9510  -25.9443  -48.5356 C.3       16 UNK         0.1400 
     91 CB         -6.9025  -26.9144  -49.2652 C.3       16 UNK        -0.1800 
     92 C          -6.6156  -24.5885  -48.2057 C.2       16 UNK         0.5000 
     93 O          -7.8406  -24.5096  -48.0990 O.2       16 UNK        -0.5000 
     94 N          -5.7836  -23.5424  -48.0855 N.am      17 UNK        -0.5000 
     95 CA         -6.1233  -22.1252  -47.9293 C.3       17 UNK         0.1400 
     96 CB         -6.7216  -21.8710  -46.5309 C.3       17 UNK        -0.1800 
     97 C          -6.9998  -21.5431  -49.0661 C.2       17 UNK         0.5000 
     98 O          -7.6479  -20.5148  -48.8603 O.2       17 UNK        -0.5000 
     99 N          -7.0213  -22.1922  -50.2406 N.am      18 UNK        -0.5000 
    100 CA        -7.7890  -21.7562  -51.4048 C.3       18 UNK         0.1400 
    101 CB        -7.9602  -22.9339  -52.3763 C.3       18 UNK        -0.1800 
    102 C         -7.0867  -20.5831  -52.1026 C.2       18 UNK         0.5000 
    103 O         -5.8998  -20.6892  -52.4159 O.2       18 UNK        -0.5000 
    104 N         -7.8330  -19.5045  -52.3746 N.am      19 UNK        -0.5000 
    105 CA        -7.3335  -18.2652  -52.9819 C.3       19 UNK         0.1400 
    106 CB        -8.4810  -17.2485  -53.0740 C.3       19 UNK        -0.1800 
    107 C         -6.6734  -18.4588  -54.3607 C.2       19 UNK         0.5000 
    108 O         -5.7013  -17.7705  -54.6707 O.2       19 UNK        -0.5000 
    109 N         -7.1826  -19.4218  -55.1406 N.am      20 UNK        -0.5000 
    110 CA        -6.6449  -19.8111  -56.4453 C.3       20 UNK         0.1400 
    111 CB        -7.6492  -20.7456  -57.1372 C.3       20 UNK        -0.1800 
    112 C         -5.2553  -20.4767  -56.3691 C.2       20 UNK         0.5000 
    113 O         -4.5025  -20.4039  -57.3412 O.2       20 UNK        -0.5000 
    114 N         -4.9426  -21.1095  -55.2305 N.am      21 UNK        -0.5000 
    115 CA        -3.6544  -21.7439  -54.9602 C.3       21 UNK         0.1400 
    116 CB        -3.8911  -23.0514  -54.1900 C.3       21 UNK        -0.1800 
    117 C         -2.7157  -20.7972  -54.1912 C.2       21 UNK         0.5000 
    118 O         -1.5256  -20.7457  -54.5041 O.2       21 UNK        -0.5000 
    119 N         -3.2633  -20.0564  -53.2187 N.am      22 UNK        -0.5000 
    120 CA        -2.5496  -19.0364  -52.4333 C.3       22 UNK         0.1400 
    121 C         -2.1206  -17.7879  -53.2559 C.2       22 UNK         0.5000 
    122 N         -2.8835  -17.3548  -54.2521 N.am      22 UNK        -0.7600 
    123 O         -1.0749  -17.2033  -52.9890 O.2       22 UNK        -0.5000 
    124 C124       -3.3627  -18.6055  -51.1871 C.3       23 UNK        -0.0398 
    125 S125       -3.5486  -19.9623  -49.9802 S.3       23 UNK        -0.2404 
    126 C126       -2.5694  -19.3402  -48.5750 C.3       23 UNK        -0.0205 
    127 H127        4.2551  -17.1074  -42.7015 H         1 UNK         0.0600 
    128 H128        5.4455  -16.8804  -43.9859 H         1 UNK         0.0600 
    129 H129        5.5137  -15.8798  -42.5301 H         1 UNK         0.0600 
    130 H130        4.8066  -15.5704  -45.6817 H         1 UNK         0.3000 
    131 H131        2.2264  -14.2624  -45.6689 H         1 UNK         0.0600 
    132 H132        4.3035  -14.3992  -47.9094 H         1 UNK         0.0800 
    133 H133        2.6285  -13.9340  -48.0719 H         1 UNK         0.0800 
    134 H134        0.6891  -15.5330  -48.3781 H         1 UNK         0.0800 
    135 H135        1.6899  -15.7737  -49.7983 H         1 UNK         0.0800 
    136 H136       -1.1596  -17.0076  -48.3817 H         1 UNK         0.1150 
    137 H137       -0.7345  -21.1133  -49.5397 H         1 UNK         0.1150 
    138 H138        2.6131  -18.4597  -49.8083 H         1 UNK         0.1150 
    139 H139        1.2655  -21.8678  -50.5641 H         1 UNK         0.0800 
    140 H140        2.4833  -20.7273  -51.0850 H         1 UNK         0.0800 
    141 H141        2.7673  -23.5954  -50.2780 H         1 UNK         0.0800 
    142 H142        4.1390  -23.7079  -49.2280 H         1 UNK         0.0800 
    143 H143        2.3523  -25.2989  -48.6825 H         1 UNK         0.0600 
    144 H144        3.2182  -23.4490  -46.5629 H         1 UNK         0.3000 
    145 H145        3.0956  -26.1310  -44.1451 H         1 UNK         0.0600 
    146 H146        5.3848  -25.2770  -43.7889 H         1 UNK         0.0600 
    147 H147        5.3156  -26.1606  -45.3048 H         1 UNK         0.0600 
    148 H148        5.3387  -24.4012  -45.3189 H         1 UNK         0.0600 
    149 H149        3.6704  -23.3958  -43.7573 H         1 UNK         0.3000 
    150 H150        0.3905  -22.2214  -43.0920 H         1 UNK         0.0600 
    151 H151        0.9910  -23.5533  -41.0627 H         1 UNK         0.0600 
    152 H152        1.3040  -21.8401  -40.8421 H         1 UNK         0.0600 
    153 H153        2.6409  -22.9483  -41.1530 H         1 UNK         0.0600 
    154 H154        2.6339  -20.8000  -42.5793 H         1 UNK         0.3000 
    155 H155        3.4934  -19.2226  -43.7706 H         1 UNK         0.0600 
    156 H156        4.7614  -18.6374  -45.7983 H         1 UNK         0.0600 
    157 H157        3.8775  -19.8233  -46.7495 H         1 UNK         0.0600 
    158 H158        4.9614  -20.3531  -45.4678 H         1 UNK         0.0600 
    159 H159        2.0240  -18.4293  -46.1842 H         1 UNK         0.3000 
    160 H160        0.5604  -16.7211  -46.0221 H         1 UNK         0.0600 
    161 H161       -1.8627  -17.3730  -45.9052 H         1 UNK         0.0600 
    162 H162       -1.5360  -18.3652  -44.4842 H         1 UNK         0.0600 
    163 H163       -0.8342  -18.7887  -46.0401 H         1 UNK         0.0600 
    164 H164       -0.1432  -16.1424  -43.2432 H         1 UNK         0.3000 
    165 H165       -1.6196  -14.2504  -42.8427 H         1 UNK         0.0600 
    166 H166        0.8294  -12.6581  -43.7858 H         1 UNK         0.0600 
    167 H167       -0.1041  -12.2722  -42.3408 H         1 UNK         0.0600 
    168 H168        0.7599  -13.7942  -42.4428 H         1 UNK         0.0600 
    169 H169       -1.3970  -11.9082  -44.5837 H         1 UNK         0.3000 
    170 H170       -4.7025  -12.1035  -45.8410 H         1 UNK         0.0600 
    171 H171       -5.0502  -11.0596  -43.5491 H         1 UNK         0.0600 
    172 H172       -3.5810  -10.1173  -43.7735 H         1 UNK         0.0600 
    173 H173       -4.9770   -9.8525  -44.8168 H         1 UNK         0.0600 
    174 H174       -1.9631  -11.4952  -46.1634 H         1 UNK         0.3000 
    175 H175       -1.4674  -10.6506  -48.4317 H         1 UNK         0.0600 
    176 H176       -2.5559   -7.7937  -48.6235 H         1 UNK         0.0600 
    177 H177       -1.2866   -8.4911  -49.6299 H         1 UNK         0.0600 
    178 H178       -2.9258   -9.1098  -49.7323 H         1 UNK         0.0600 
    179 H179       -0.7015   -8.2035  -47.0972 H         1 UNK         0.3000 
    180 H180        1.4696   -8.3825  -46.0364 H         1 UNK         0.0600 
    181 H181       -0.2431   -9.1178  -43.5769 H         1 UNK         0.0600 
    182 H182       -0.4846   -7.7015  -44.5935 H         1 UNK         0.0600 
    183 H183        0.9701   -7.8403  -43.6215 H         1 UNK         0.0600 
    184 H184        1.6628  -11.0197  -44.9035 H         1 UNK         0.3000 
    185 H185        5.0900  -10.7781  -44.4113 H         1 UNK         0.0600 
    186 H186        4.5117  -10.0312  -42.0938 H         1 UNK         0.0600 
    187 H187        3.1729  -11.1733  -42.0507 H         1 UNK         0.0600 
    188 H188        4.8345  -11.7570  -42.1447 H         1 UNK         0.0600 
    189 H189        3.3464  -12.9288  -43.7889 H         1 UNK         0.3000 
    190 H190        0.9595  -22.8045  -46.5768 H         1 UNK         0.3000 
    191 H191       -1.5037  -22.4589  -47.9059 H         1 UNK         0.0600 
    192 H192       -2.3203  -21.6412  -45.7373 H         1 UNK         0.0600 
    193 H193       -0.6855  -21.0531  -46.0088 H         1 UNK         0.0600 
    194 H194       -0.9706  -22.3930  -44.9002 H         1 UNK         0.0600 
    195 H195       -0.4711  -24.9990  -45.6146 H         1 UNK         0.3000 
    196 H196       -2.9550  -26.3709  -45.4215 H         1 UNK         0.0600 
    197 H197       -1.5179  -28.2603  -44.6111 H         1 UNK         0.0600 
    198 H198       -1.0951  -26.7407  -43.8366 H         1 UNK         0.0600 
    199 H199       -0.0770  -27.3862  -45.1216 H         1 UNK         0.0600 
    200 H200       -0.2438  -26.6847  -47.7389 H         1 UNK         0.3000 
    201 H201       -1.3250  -28.9241  -49.1874 H         1 UNK         0.0600 
    202 H202        1.1045  -28.3621  -49.1739 H         1 UNK         0.0600 
    203 H203        0.7765  -26.8546  -50.0264 H         1 UNK         0.0600 
    204 H204        0.4702  -28.3961  -50.8124 H         1 UNK         0.0600 
    205 H205       -1.4453  -25.3878  -49.6327 H         1 UNK         0.3000 
    206 H206       -3.0374  -25.3522  -52.0176 H         1 UNK         0.0600 
    207 H207       -1.6230  -23.4415  -51.3141 H         1 UNK         0.0600 
    208 H208       -3.2976  -22.9127  -51.3507 H         1 UNK         0.0600 
    209 H209       -2.5380  -23.2703  -49.8190 H         1 UNK         0.0600 
    210 H210       -3.8694  -26.1195  -48.7948 H         1 UNK         0.3000 
    211 H211       -5.6848  -26.3941  -47.5781 H         1 UNK         0.0600 
    212 H212       -7.2622  -26.4967  -50.2061 H         1 UNK         0.0600 
    213 H213       -7.7757  -27.1419  -48.6529 H         1 UNK         0.0600 
    214 H214       -6.4067  -27.8599  -49.4853 H         1 UNK         0.0600 
    215 H215       -4.7892  -23.7496  -48.1114 H         1 UNK         0.3000 
    216 H216       -5.1756  -21.5882  -47.9799 H         1 UNK         0.0600 
    217 H217       -7.7037  -22.3320  -46.4225 H         1 UNK         0.0600 
    218 H218       -6.8378  -20.8035  -46.3405 H         1 UNK         0.0600 
    219 H219       -6.0754  -22.2687  -45.7483 H         1 UNK         0.0600 
    220 H220       -6.4406  -23.0134  -50.3675 H         1 UNK         0.3000 
    221 H221       -8.7809  -21.4421  -51.0730 H         1 UNK         0.0600 
    222 H222       -7.0034  -23.2680  -52.7796 H         1 UNK         0.0600 
    223 H223       -8.4301  -23.7860  -51.8847 H         1 UNK         0.0600 
    224 H224       -8.5909  -22.6546  -53.2210 H         1 UNK         0.0600 
    225 H225       -8.8027  -19.5016  -52.0926 H         1 UNK         0.3000 
    226 H226       -6.5741  -17.8573  -52.3128 H         1 UNK         0.0600 
    227 H227       -8.8898  -17.0240  -52.0886 H         1 UNK         0.0600 
    228 H228       -8.1353  -16.3067  -53.5024 H         1 UNK         0.0600 
    229 H229       -9.2948  -17.6152  -53.7007 H         1 UNK         0.0600 
    230 H230       -7.9790  -19.9414  -54.8023 H         1 UNK         0.3000 
    231 H231       -6.5433  -18.9085  -57.0516 H         1 UNK         0.0600 
    232 H232       -7.8082  -21.6601  -56.5642 H         1 UNK         0.0600 
    233 H233       -7.2949  -21.0360  -58.1272 H         1 UNK         0.0600 
    234 H234       -8.6155  -20.2586  -57.2696 H         1 UNK         0.0600 
    235 H235       -5.5913  -21.0695  -54.4541 H         1 UNK         0.3000 
    236 H236       -3.1605  -22.0029  -55.8992 H         1 UNK         0.0600 
    237 H237       -4.4260  -23.7750  -54.8049 H         1 UNK         0.0600 
    238 H238       -2.9471  -23.5104  -53.8945 H         1 UNK         0.0600 
    239 H239       -4.4822  -22.8873  -53.2893 H         1 UNK         0.0600 
    240 H240       -4.2378  -20.2102  -52.9704 H         1 UNK         0.3000 
    241 H241       -1.6245  -19.4954  -52.0783 H         1 UNK         0.0600 
    242 H242       -3.7970  -17.7580  -54.4382 H         1 UNK         0.3800 
    243 H243       -2.5877  -16.5490  -54.7789 H         1 UNK         0.3800 
    244 H244       -2.8940  -17.7532  -50.6923 H         1 UNK         0.0800 
    245 H245       -4.3569  -18.2686  -51.4815 H         1 UNK         0.0800 
    246 H246       -3.0396  -18.4329  -48.1927 H         1 UNK         0.0800 
    247 H247       -2.6135  -20.0701  -47.7667 H         1 UNK         0.0800 
@<TRIPOS>BOND
     1    1    2 1    
     2    1  127 1    
     3    1  128 1    
     4    1  129 1    
     5    2    3 2    
     6    2    4 am   BACKBONE|DICT|INTERRES
     7    4    5 1    
     8    4  130 1    
     9    5    6 1    
    10    5   65 1    
    11    5  131 1    
    12    6    7 1    
    13    6  132 1    
    14    6  133 1    
    15    7    8 1    
    16    8    9 1    
    17    8  134 1    
    18    8  135 1    
    19    9   10 ar   
    20    9   14 ar   
    21   10   11 ar   
    22   10  136 1    
    23   11   12 ar   
    24   11  126 1    
    25   12   13 ar   
    26   12  137 1    
    27   13   14 ar   
    28   13   15 1    
    29   14  138 1    
    30   15   16 1    
    31   15  139 1    
    32   15  140 1    
    33   16   17 1    
    34   17   18 1    
    35   17  141 1    
    36   17  142 1    
    37   18   19 1    
    38   18   67 1    
    39   18  143 1    
    40   19   20 am   BACKBONE|DICT|INTERRES
    41   19  144 1    
    42   20   21 2    
    43   20   22 1    
    44   22   23 1    
    45   22   24 1    
    46   22  145 1    
    47   23  146 1    
    48   23  147 1    
    49   23  148 1    
    50   24   25 am   BACKBONE|DICT|INTERRES
    51   24  149 1    
    52   25   26 2    
    53   25   27 1    
    54   27   28 1    
    55   27   29 1    
    56   27  150 1    
    57   28  151 1    
    58   28  152 1    
    59   28  153 1    
    60   29   30 am   BACKBONE|DICT|INTERRES
    61   29  154 1    
    62   30   31 2    
    63   30   32 1    
    64   32   33 1    
    65   32   34 1    
    66   32  155 1    
    67   33  156 1    
    68   33  157 1    
    69   33  158 1    
    70   34   35 am   BACKBONE|DICT|INTERRES
    71   34  159 1    
    72   35   36 2    
    73   35   37 1    
    74   37   38 1    
    75   37   39 1    
    76   37  160 1    
    77   38  161 1    
    78   38  162 1    
    79   38  163 1    
    80   39   40 am   BACKBONE|DICT|INTERRES
    81   39  164 1    
    82   40   41 2    
    83   40   42 1    
    84   42   43 1    
    85   42   44 1    
    86   42  165 1    
    87   43  166 1    
    88   43  167 1    
    89   43  168 1    
    90   44   45 am   BACKBONE|DICT|INTERRES
    91   44  169 1    
    92   45   46 2    
    93   45   47 1    
    94   47   48 1    
    95   47   49 1    
    96   47  170 1    
    97   48  171 1    
    98   48  172 1    
    99   48  173 1    
   100   49   50 am   BACKBONE|DICT|INTERRES
   101   49  174 1    
   102   50   51 2    
   103   50   52 1    
   104   52   53 1    
   105   52   54 1    
   106   52  175 1    
   107   53  176 1    
   108   53  177 1    
   109   53  178 1    
   110   54   55 am   BACKBONE|DICT|INTERRES
   111   54  179 1    
   112   55   56 2    
   113   55   57 1    
   114   57   58 1    
   115   57   59 1    
   116   57  180 1    
   117   58  181 1    
   118   58  182 1    
   119   58  183 1    
   120   59   60 am   BACKBONE|DICT|INTERRES
   121   59  184 1    
   122   60   61 2    
   123   60   62 1    
   124   62   63 1    
   125   62   64 1    
   126   62  185 1    
   127   63  186 1    
   128   63  187 1    
   129   63  188 1    
   130   64   65 am   BACKBONE|DICT|INTERRES
   131   64  189 1    
   132   65   66 2    
   133   67   68 2    
   134   67   69 am   BACKBONE|DICT|INTERRES
   135   69   70 1    
   136   69  190 1    
   137   70   71 1    
   138   70   72 1    
   139   70  191 1    
   140   71  192 1    
   141   71  193 1    
   142   71  194 1    
   143   72   73 2    
   144   72   74 am   BACKBONE|DICT|INTERRES
   145   74   75 1    
   146   74  195 1    
   147   75   76 1    
   148   75   77 1    
   149   75  196 1    
   150   76  197 1    
   151   76  198 1    
   152   76  199 1    
   153   77   78 2    
   154   77   79 am   BACKBONE|DICT|INTERRES
   155   79   80 1    
   156   79  200 1    
   157   80   81 1    
   158   80   82 1    
   159   80  201 1    
   160   81  202 1    
   161   81  203 1    
   162   81  204 1    
   163   82   83 2    
   164   82   84 am   BACKBONE|DICT|INTERRES
   165   84   85 1    
   166   84  205 1    
   167   85   86 1    
   168   85   87 1    
   169   85  206 1    
   170   86  207 1    
   171   86  208 1    
   172   86  209 1    
   173   87   88 2    
   174   87   89 am   BACKBONE|DICT|INTERRES
   175   89   90 1    
   176   89  210 1    
   177   90   91 1    
   178   90   92 1    
   179   90  211 1    
   180   91  212 1    
   181   91  213 1    
   182   91  214 1    
   183   92   93 2    
   184   92   94 am   BACKBONE|DICT|INTERRES
   185   94   95 1    
   186   94  215 1    
   187   95   96 1    
   188   95   97 1    
   189   95  216 1    
   190   96  217 1    
   191   96  218 1    
   192   96  219 1    
   193   97   98 2    
   194   97   99 am   BACKBONE|DICT|INTERRES
   195   99  100 1    
   196   99  220 1    
   197  100  101 1    
   198  100  102 1    
   199  100  221 1    
   200  101  222 1    
   201  101  223 1    
   202  101  224 1    
   203  102  103 2    
   204  102  104 am   BACKBONE|DICT|INTERRES
   205  104  105 1    
   206  104  225 1    
   207  105  106 1    
   208  105  107 1    
   209  105  226 1    
   210  106  227 1    
   211  106  228 1    
   212  106  229 1    
   213  107  108 2    
   214  107  109 am   BACKBONE|DICT|INTERRES
   215  109  110 1    
   216  109  230 1    
   217  110  111 1    
   218  110  112 1    
   219  110  231 1    
   220  111  232 1    
   221  111  233 1    
   222  111  234 1    
   223  112  113 2    
   224  112  114 am   BACKBONE|DICT|INTERRES
   225  114  115 1    
   226  114  235 1    
   227  115  116 1    
   228  115  117 1    
   229  115  236 1    
   230  116  237 1    
   231  116  238 1    
   232  116  239 1    
   233  117  118 2    
   234  117  119 am   BACKBONE|DICT|INTERRES
   235  119  120 1    
   236  119  240 1    
   237  120  121 1    
   238  120  124 1    
   239  120  241 1    
   240  121  122 am   BACKBONE|DICT|INTERRES
   241  121  123 2    
   242  122  242 1    
   243  122  243 1    
   244  124  125 1    
   245  124  244 1    
   246  124  245 1    
   247  125  126 1    
   248  126  246 1    
   249  126  247 1    
@<TRIPOS>SUBSTRUCTURE
     1 UNK         1 GROUP             0       ****    0 ROOT    
