@<TRIPOS>MOLECULE
3R540
247   249    1
SMALL
USER_CHARGES


@<TRIPOS>ATOM
      1 CA         -3.3268  -13.0028  -50.0645 C.3       0 UNK        -0.1800 
      2 C          -2.3982  -13.9043  -49.2646 C.2       0 UNK         0.5000 
      3 O          -2.7807  -15.0251  -48.9309 O.2       0 UNK        -0.5000 
      4 N          -1.1867  -13.4165  -48.9614 N.am      1 UNK        -0.5000 
      5 CA         -0.0908  -14.0775  -48.2346 C.3       1 UNK         0.1400 
      6 C6          0.4373  -15.3689  -48.9111 C.3       23 UNK        -0.0398 
      7 S7          1.2271  -15.0748  -50.5321 S.3       23 UNK        -0.2404 
      8 C8         -0.0480  -15.5898  -51.7335 C.3       23 UNK        -0.0205 
      9 C9         -0.6677  -16.9498  -51.4336 C.ar      23 UNK        -0.0193 
     10 C10        -2.0565  -17.0688  -51.3450 C.ar      23 UNK        -0.1150 
     11 C11        -2.6517  -18.2971  -51.0519 C.ar      23 UNK        -0.0193 
     12 C12        -1.8419  -19.4139  -50.8279 C.ar      23 UNK        -0.1150 
     13 C13        -0.4496  -19.3105  -50.9059 C.ar      23 UNK        -0.0193 
     14 C14         0.1305  -18.0803  -51.2302 C.ar      23 UNK        -0.1150 
     15 C15         0.4320  -20.5198  -50.6266 C.3       23 UNK        -0.0205 
     16 S16         1.1782  -20.4455  -48.9623 S.3       23 UNK        -0.2404 
     17 C17        -0.2601  -20.7692  -47.8872 C.3       23 UNK        -0.0398 
     18 CA         -0.1041  -22.0760  -47.0727 C.3       11 UNK         0.1400 
     19 N           0.9475  -21.9849  -46.0577 N.am      11 UNK        -0.5000 
     20 C           1.4474  -23.0170  -45.3655 C.2       10 UNK         0.5000 
     21 O           0.9486  -24.1417  -45.3594 O.2       10 UNK        -0.5000 
     22 CA          2.7239  -22.7517  -44.5507 C.3       10 UNK         0.1400 
     23 CB          3.8017  -22.0197  -45.3715 C.3       10 UNK        -0.1800 
     24 N           2.3916  -21.9625  -43.3736 N.am      10 UNK        -0.5000 
     25 C           2.2737  -22.4482  -42.1313 C.2       9 UNK         0.5000 
     26 O           2.5834  -23.5977  -41.8162 O.2       9 UNK        -0.5000 
     27 CA          1.7053  -21.5065  -41.0468 C.3       9 UNK         0.1400 
     28 CB          2.8080  -21.0938  -40.0593 C.3       9 UNK        -0.1800 
     29 N           1.0569  -20.2991  -41.5654 N.am      9 UNK        -0.5000 
     30 C          -0.0281  -20.2739  -42.3514 C.2       8 UNK         0.5000 
     31 O          -0.6304  -21.2823  -42.7173 O.2       8 UNK        -0.5000 
     32 CA         -0.4520  -18.8963  -42.8926 C.3       8 UNK         0.1400 
     33 CB         -1.2834  -18.1375  -41.8503 C.3       8 UNK        -0.1800 
     34 N           0.6949  -18.0822  -43.3037 N.am      8 UNK        -0.5000 
     35 C           1.5569  -18.4197  -44.2753 C.2       7 UNK         0.5000 
     36 O           1.4374  -19.4269  -44.9713 O.2       7 UNK        -0.5000 
     37 CA          2.7801  -17.5132  -44.4749 C.3       7 UNK         0.1400 
     38 CB          2.4258  -16.3131  -45.3565 C.3       7 UNK        -0.1800 
     39 N           3.3129  -17.0447  -43.1984 N.am      7 UNK        -0.5000 
     40 C           4.0900  -17.7829  -42.3942 C.2       6 UNK         0.5000 
     41 O           4.4923  -18.9111  -42.6779 O.2       6 UNK        -0.5000 
     42 CA          4.4641  -17.1638  -41.0340 C.3       6 UNK         0.1400 
     43 CB          5.7683  -16.3604  -41.1482 C.3       6 UNK        -0.1800 
     44 N           3.4141  -16.3006  -40.4888 N.am      6 UNK        -0.5000 
     45 C           2.2140  -16.7336  -40.0783 C.2       5 UNK         0.5000 
     46 O           1.8691  -17.9141  -40.1036 O.2       5 UNK        -0.5000 
     47 CA          1.2157  -15.6607  -39.6063 C.3       5 UNK         0.1400 
     48 CB          1.4155  -15.3575  -38.1141 C.3       5 UNK        -0.1800 
     49 N           1.2931  -14.4126  -40.3718 N.am      5 UNK        -0.5000 
     50 C           1.0322  -14.3086  -41.6810 C.2       4 UNK         0.5000 
     51 O           0.7563  -15.2714  -42.4021 O.2       4 UNK        -0.5000 
     52 CA          1.1333  -12.9038  -42.2957 C.3       4 UNK         0.1400 
     53 CB          2.3897  -12.7892  -43.1723 C.3       4 UNK        -0.1800 
     54 N          -0.0481  -12.6494  -43.1125 N.am      4 UNK        -0.5000 
     55 C          -1.2125  -12.1796  -42.6390 C.2       3 UNK         0.5000 
     56 O          -1.3613  -11.7520  -41.4935 O.2       3 UNK        -0.5000 
     57 CA         -2.4255  -12.2250  -43.5937 C.3       3 UNK         0.1400 
     58 CB         -2.5422  -10.9152  -44.3875 C.3       3 UNK        -0.1800 
     59 N          -2.3374  -13.3447  -44.5299 N.am      3 UNK        -0.5000 
     60 C          -2.3944  -14.6345  -44.1742 C.2       2 UNK         0.5000 
     61 O          -2.8100  -15.0075  -43.0771 O.2       2 UNK        -0.5000 
     62 CA         -1.8658  -15.6790  -45.1829 C.3       2 UNK         0.1400 
     63 CB         -2.8786  -16.8135  -45.4114 C.3       2 UNK        -0.1800 
     64 N          -1.4503  -15.1515  -46.4880 N.am      2 UNK        -0.5000 
     65 C          -0.4185  -14.3387  -46.7494 C.2       1 UNK         0.5000 
     66 O           0.2523  -13.7908  -45.8748 O.2       1 UNK        -0.5000 
     67 C          -1.4608  -22.5124  -46.4970 C.2       11 UNK         0.5000 
     68 O          -2.0369  -23.4815  -46.9909 O.2       11 UNK        -0.5000 
     69 N          -1.9528  -21.7986  -45.4755 N.am      12 UNK        -0.5000 
     70 CA         -3.2668  -22.0548  -44.8789 C.3       12 UNK         0.1400 
     71 CB         -3.7118  -20.8529  -44.0307 C.3       12 UNK        -0.1800 
     72 C          -3.2932  -23.3616  -44.0675 C.2       12 UNK         0.5000 
     73 O          -4.2985  -24.0709  -44.0976 O.2       12 UNK        -0.5000 
     74 N          -2.1728  -23.6789  -43.4046 N.am      13 UNK        -0.5000 
     75 CA         -1.9526  -24.9271  -42.6742 C.3       13 UNK         0.1400 
     76 CB         -0.6327  -24.8312  -41.8978 C.3       13 UNK        -0.1800 
     77 C          -1.9554  -26.1666  -43.5898 C.2       13 UNK         0.5000 
     78 O          -2.5492  -27.1838  -43.2304 O.2       13 UNK        -0.5000 
     79 N          -1.3176  -26.0537  -44.7638 N.am      14 UNK        -0.5000 
     80 CA         -1.2927  -27.0949  -45.7950 C.3       14 UNK         0.1400 
     81 CB         -0.0983  -26.8411  -46.7284 C.3       14 UNK        -0.1800 
     82 C          -2.5934  -27.1721  -46.6193 C.2       14 UNK         0.5000 
     83 O          -2.8005  -28.1666  -47.3158 O.2       14 UNK        -0.5000 
     84 N          -3.4179  -26.1159  -46.5529 N.am      15 UNK        -0.5000 
     85 CA         -4.5980  -25.8462  -47.3818 C.3       15 UNK         0.1400 
     86 CB         -5.7118  -26.8832  -47.1282 C.3       15 UNK        -0.1800 
     87 C          -4.2298  -25.6872  -48.8737 C.2       15 UNK         0.5000 
     88 O          -4.9561  -26.1538  -49.7538 O.2       15 UNK        -0.5000 
     89 N          -3.0862  -25.0380  -49.1206 N.am      16 UNK        -0.5000 
     90 CA         -2.5533  -24.7272  -50.4420 C.3       16 UNK         0.1400 
     91 CB         -1.0265  -24.5879  -50.3275 C.3       16 UNK        -0.1800 
     92 C          -3.1714  -23.4330  -50.9980 C.2       16 UNK         0.5000 
     93 O          -3.7359  -22.6360  -50.2439 O.2       16 UNK        -0.5000 
     94 N          -3.0128  -23.2343  -52.3087 N.am      17 UNK        -0.5000 
     95 CA         -3.4090  -22.0314  -53.0315 C.3       17 UNK         0.1400 
     96 CB         -4.6600  -22.3314  -53.8734 C.3       17 UNK        -0.1800 
     97 C          -2.2463  -21.5769  -53.9236 C.2       17 UNK         0.5000 
     98 O          -1.3968  -22.3938  -54.2917 O.2       17 UNK        -0.5000 
     99 N          -2.2420  -20.2854  -54.2681 N.am      18 UNK        -0.5000 
    100 CA        -1.3073  -19.6813  -55.2170 C.3       18 UNK         0.1400 
    101 CB        -1.3951  -18.1530  -55.0771 C.3       18 UNK        -0.1800 
    102 C         -1.6229  -20.0907  -56.6684 C.2       18 UNK         0.5000 
    103 O         -2.7145  -20.5912  -56.9489 O.2       18 UNK        -0.5000 
    104 N         -0.6974  -19.7885  -57.5892 N.am      19 UNK        -0.5000 
    105 CA        -0.8719  -19.9682  -59.0377 C.3       19 UNK         0.1400 
    106 CB         0.4547  -19.6549  -59.7461 C.3       19 UNK        -0.1800 
    107 C         -2.0168  -19.1177  -59.6321 C.2       19 UNK         0.5000 
    108 O         -2.6068  -19.5057  -60.6405 O.2       19 UNK        -0.5000 
    109 N         -2.3317  -17.9957  -58.9700 N.am      20 UNK        -0.5000 
    110 CA        -3.4696  -17.1205  -59.2589 C.3       20 UNK         0.1400 
    111 CB        -3.1295  -15.7100  -58.7479 C.3       20 UNK        -0.1800 
    112 C         -4.7979  -17.6171  -58.6422 C.2       20 UNK         0.5000 
    113 O         -5.8125  -16.9361  -58.7879 O.2       20 UNK        -0.5000 
    114 N         -4.7676  -18.7560  -57.9314 N.am      21 UNK        -0.5000 
    115 CA        -5.8554  -19.4365  -57.2129 C.3       21 UNK         0.1400 
    116 CB        -7.0662  -19.7100  -58.1280 C.3       21 UNK        -0.1800 
    117 C         -6.2757  -18.7705  -55.8862 C.2       21 UNK         0.5000 
    118 O         -7.0366  -19.3856  -55.1399 O.2       21 UNK        -0.5000 
    119 N         -5.7718  -17.5576  -55.6164 N.am      22 UNK        -0.5000 
    120 CA        -5.8929  -16.7009  -54.4150 C.3       22 UNK         0.1400 
    121 C         -7.3040  -16.4275  -53.8038 C.2       22 UNK         0.5000 
    122 N         -8.3558  -17.1390  -54.1769 N.am      22 UNK        -0.7600 
    123 O         -7.4525  -15.5112  -52.9996 O.2       22 UNK        -0.5000 
    124 C124       -4.8235  -17.0145  -53.3311 C.3       23 UNK        -0.0398 
    125 S125       -4.9447  -18.6716  -52.5735 S.3       23 UNK        -0.2404 
    126 C126       -4.1660  -18.4061  -50.9486 C.3       23 UNK        -0.0205 
    127 H127       -4.2357  -12.8035  -49.4970 H         1 UNK         0.0600 
    128 H128       -3.6068  -13.4903  -50.9984 H         1 UNK         0.0600 
    129 H129       -2.8588  -12.0482  -50.3058 H         1 UNK         0.0600 
    130 H130       -0.9689  -12.4770  -49.2627 H         1 UNK         0.3000 
    131 H131        0.7293  -13.3573  -48.2351 H         1 UNK         0.0600 
    132 H132        1.2072  -15.8273  -48.2906 H         1 UNK         0.0800 
    133 H133       -0.3500  -16.1179  -48.9889 H         1 UNK         0.0800 
    134 H134       -0.8160  -14.8162  -51.7683 H         1 UNK         0.0800 
    135 H135        0.3985  -15.6209  -52.7281 H         1 UNK         0.0800 
    136 H136       -2.6789  -16.1983  -51.4922 H         1 UNK         0.1150 
    137 H137       -2.2966  -20.3616  -50.5786 H         1 UNK         0.1150 
    138 H138        1.2064  -17.9949  -51.2898 H         1 UNK         0.1150 
    139 H139       -0.1327  -21.4469  -50.7378 H         1 UNK         0.0800 
    140 H140        1.2304  -20.5604  -51.3689 H         1 UNK         0.0800 
    141 H141       -1.1578  -20.8119  -48.5048 H         1 UNK         0.0800 
    142 H142       -0.3936  -19.9130  -47.2235 H         1 UNK         0.0800 
    143 H143        0.2027  -22.8631  -47.7638 H         1 UNK         0.0600 
    144 H144        1.3502  -21.0623  -45.9173 H         1 UNK         0.3000 
    145 H145        3.1344  -23.7215  -44.2623 H         1 UNK         0.0600 
    146 H146        4.7311  -21.9414  -44.8073 H         1 UNK         0.0600 
    147 H147        3.5014  -21.0089  -45.6477 H         1 UNK         0.0600 
    148 H148        4.0251  -22.5603  -46.2921 H         1 UNK         0.0600 
    149 H149        2.0882  -21.0136  -43.5482 H         1 UNK         0.3000 
    150 H150        0.9510  -22.0727  -40.4972 H         1 UNK         0.0600 
    151 H151        3.2992  -21.9675  -39.6292 H         1 UNK         0.0600 
    152 H152        2.3996  -20.5132  -39.2320 H         1 UNK         0.0600 
    153 H153        3.5753  -20.4910  -40.5458 H         1 UNK         0.0600 
    154 H154        1.4594  -19.4139  -41.2699 H         1 UNK         0.3000 
    155 H155       -1.0750  -19.0565  -43.7745 H         1 UNK         0.0600 
    156 H156       -2.1994  -18.6799  -41.6134 H         1 UNK         0.0600 
    157 H157       -1.5722  -17.1537  -42.2160 H         1 UNK         0.0600 
    158 H158       -0.7354  -17.9976  -40.9190 H         1 UNK         0.0600 
    159 H159        0.8336  -17.2050  -42.8111 H         1 UNK         0.3000 
    160 H160        3.5480  -18.0943  -44.9905 H         1 UNK         0.0600 
    161 H161        1.6648  -15.6921  -44.8874 H         1 UNK         0.0600 
    162 H162        2.0366  -16.6458  -46.3179 H         1 UNK         0.0600 
    163 H163        3.2979  -15.6892  -45.5517 H         1 UNK         0.0600 
    164 H164        2.9874  -16.1467  -42.8715 H         1 UNK         0.3000 
    165 H165        4.6272  -17.9839  -40.3314 H         1 UNK         0.0600 
    166 H166        6.0848  -15.9817  -40.1762 H         1 UNK         0.0600 
    167 H167        6.5776  -16.9830  -41.5321 H         1 UNK         0.0600 
    168 H168        5.6603  -15.5097  -41.8222 H         1 UNK         0.0600 
    169 H169        3.6147  -15.3129  -40.4349 H         1 UNK         0.3000 
    170 H170        0.2109  -16.0668  -39.7377 H         1 UNK         0.0600 
    171 H171        2.3931  -14.9148  -37.9192 H         1 UNK         0.0600 
    172 H172        0.6549  -14.6686  -37.7462 H         1 UNK         0.0600 
    173 H173        1.3426  -16.2681  -37.5177 H         1 UNK         0.0600 
    174 H174        1.5188  -13.5787  -39.8487 H         1 UNK         0.3000 
    175 H175        1.1999  -12.1589  -41.4999 H         1 UNK         0.0600 
    176 H176        2.3753  -13.5029  -43.9967 H         1 UNK         0.0600 
    177 H177        2.4794  -11.7906  -43.6001 H         1 UNK         0.0600 
    178 H178        3.2926  -12.9766  -42.5900 H         1 UNK         0.0600 
    179 H179       -0.0185  -13.0274  -44.0547 H         1 UNK         0.3000 
    180 H180       -3.3273  -12.3469  -42.9901 H         1 UNK         0.0600 
    181 H181       -3.4251  -10.9187  -45.0269 H         1 UNK         0.0600 
    182 H182       -1.6692  -10.7483  -45.0199 H         1 UNK         0.0600 
    183 H183       -2.6304  -10.0597  -43.7165 H         1 UNK         0.0600 
    184 H184       -1.9724  -13.1359  -45.4474 H         1 UNK         0.3000 
    185 H185       -0.9792  -16.1158  -44.7195 H         1 UNK         0.0600 
    186 H186       -2.4544  -17.6001  -46.0358 H         1 UNK         0.0600 
    187 H187       -3.1750  -17.2768  -44.4694 H         1 UNK         0.0600 
    188 H188       -3.7831  -16.4482  -45.8990 H         1 UNK         0.0600 
    189 H189       -2.0074  -15.4435  -47.2883 H         1 UNK         0.3000 
    190 H190       -1.3871  -21.0747  -45.0574 H         1 UNK         0.3000 
    191 H191       -3.9859  -22.1627  -45.6942 H         1 UNK         0.0600 
    192 H192       -3.0954  -20.7237  -43.1426 H         1 UNK         0.0600 
    193 H193       -4.7397  -20.9835  -43.6906 H         1 UNK         0.0600 
    194 H194       -3.6760  -19.9271  -44.6050 H         1 UNK         0.0600 
    195 H195       -1.4242  -22.9934  -43.3817 H         1 UNK         0.3000 
    196 H196       -2.7655  -25.0401  -41.9541 H         1 UNK         0.0600 
    197 H197       -0.6355  -23.9807  -41.2160 H         1 UNK         0.0600 
    198 H198        0.2166  -24.7193  -42.5722 H         1 UNK         0.0600 
    199 H199       -0.4626  -25.7282  -41.3013 H         1 UNK         0.0600 
    200 H200       -0.8000  -25.2049  -44.9685 H         1 UNK         0.3000 
    201 H201       -1.1486  -28.0643  -45.3135 H         1 UNK         0.0600 
    202 H202        0.8413  -26.8412  -46.1758 H         1 UNK         0.0600 
    203 H203       -0.1871  -25.8814  -47.2397 H         1 UNK         0.0600 
    204 H204       -0.0247  -27.6149  -47.4935 H         1 UNK         0.0600 
    205 H205       -3.1223  -25.3453  -45.9686 H         1 UNK         0.3000 
    206 H206       -4.9751  -24.8747  -47.0590 H         1 UNK         0.0600 
    207 H207       -5.9372  -26.9655  -46.0649 H         1 UNK         0.0600 
    208 H208       -6.6338  -26.5944  -47.6337 H         1 UNK         0.0600 
    209 H209       -5.4383  -27.8739  -47.4918 H         1 UNK         0.0600 
    210 H210       -2.6132  -24.5986  -48.3340 H         1 UNK         0.3000 
    211 H211       -2.7822  -25.5485  -51.1244 H         1 UNK         0.0600 
    212 H212       -0.7491  -23.7445  -49.6960 H         1 UNK         0.0600 
    213 H213       -0.5699  -24.4280  -51.3050 H         1 UNK         0.0600 
    214 H214       -0.5780  -25.4865  -49.9032 H         1 UNK         0.0600 
    215 H215       -2.4642  -23.8881  -52.8520 H         1 UNK         0.3000 
    216 H216       -3.6361  -21.2279  -52.3312 H         1 UNK         0.0600 
    217 H217       -4.9848  -21.4453  -54.4204 H         1 UNK         0.0600 
    218 H218       -5.4919  -22.6448  -53.2427 H         1 UNK         0.0600 
    219 H219       -4.4749  -23.1198  -54.6039 H         1 UNK         0.0600 
    220 H220       -2.9862  -19.6907  -53.9317 H         1 UNK         0.3000 
    221 H221       -0.2947  -20.0065  -54.9695 H         1 UNK         0.0600 
    222 H222       -2.3654  -17.7750  -55.4009 H         1 UNK         0.0600 
    223 H223       -1.2405  -17.8429  -54.0451 H         1 UNK         0.0600 
    224 H224       -0.6326  -17.6554  -55.6770 H         1 UNK         0.0600 
    225 H225        0.1745  -19.3742  -57.2918 H         1 UNK         0.3000 
    226 H226       -1.1173  -21.0170  -59.2174 H         1 UNK         0.0600 
    227 H227        1.2543  -20.3066  -59.3934 H         1 UNK         0.0600 
    228 H228        0.3673  -19.8044  -60.8231 H         1 UNK         0.0600 
    229 H229        0.7646  -18.6220  -59.5822 H         1 UNK         0.0600 
    230 H230       -1.7755  -17.7535  -58.1638 H         1 UNK         0.3000 
    231 H231       -3.6133  -17.0675  -60.3400 H         1 UNK         0.0600 
    232 H232       -3.9229  -15.0011  -58.9882 H         1 UNK         0.0600 
    233 H233       -2.2149  -15.3347  -59.2074 H         1 UNK         0.0600 
    234 H234       -2.9921  -15.6953  -57.6659 H         1 UNK         0.0600 
    235 H235       -3.8767  -19.2347  -57.8491 H         1 UNK         0.3000 
    236 H236       -5.4454  -20.4076  -56.9316 H         1 UNK         0.0600 
    237 H237       -7.6001  -18.7953  -58.3858 H         1 UNK         0.0600 
    238 H238       -6.7599  -20.1957  -59.0544 H         1 UNK         0.0600 
    239 H239       -7.7812  -20.3713  -57.6371 H         1 UNK         0.0600 
    240 H240       -5.2197  -17.1513  -56.3564 H         1 UNK         0.3000 
    241 H241       -5.6184  -15.7204  -54.8063 H         1 UNK         0.0600 
    242 H242       -9.2645  -16.9465  -53.7869 H         1 UNK         0.3800 
    243 H243       -8.1951  -17.9799  -54.7227 H         1 UNK         0.3800 
    244 H244       -4.8656  -16.2611  -52.5429 H         1 UNK         0.0800 
    245 H245       -3.8293  -16.9191  -53.7657 H         1 UNK         0.0800 
    246 H246       -4.4318  -19.2400  -50.2969 H         1 UNK         0.0800 
    247 H247       -4.5780  -17.5123  -50.4772 H         1 UNK         0.0800 
@<TRIPOS>BOND
     1    1    2 1    
     2    1  127 1    
     3    1  128 1    
     4    1  129 1    
     5    2    3 2    
     6    2    4 am   BACKBONE|DICT|INTERRES
     7    4    5 1    
     8    4  130 1    
     9    5    6 1    
    10    5   65 1    
    11    5  131 1    
    12    6    7 1    
    13    6  132 1    
    14    6  133 1    
    15    7    8 1    
    16    8    9 1    
    17    8  134 1    
    18    8  135 1    
    19    9   10 ar   
    20    9   14 ar   
    21   10   11 ar   
    22   10  136 1    
    23   11   12 ar   
    24   11  126 1    
    25   12   13 ar   
    26   12  137 1    
    27   13   14 ar   
    28   13   15 1    
    29   14  138 1    
    30   15   16 1    
    31   15  139 1    
    32   15  140 1    
    33   16   17 1    
    34   17   18 1    
    35   17  141 1    
    36   17  142 1    
    37   18   19 1    
    38   18   67 1    
    39   18  143 1    
    40   19   20 am   BACKBONE|DICT|INTERRES
    41   19  144 1    
    42   20   21 2    
    43   20   22 1    
    44   22   23 1    
    45   22   24 1    
    46   22  145 1    
    47   23  146 1    
    48   23  147 1    
    49   23  148 1    
    50   24   25 am   BACKBONE|DICT|INTERRES
    51   24  149 1    
    52   25   26 2    
    53   25   27 1    
    54   27   28 1    
    55   27   29 1    
    56   27  150 1    
    57   28  151 1    
    58   28  152 1    
    59   28  153 1    
    60   29   30 am   BACKBONE|DICT|INTERRES
    61   29  154 1    
    62   30   31 2    
    63   30   32 1    
    64   32   33 1    
    65   32   34 1    
    66   32  155 1    
    67   33  156 1    
    68   33  157 1    
    69   33  158 1    
    70   34   35 am   BACKBONE|DICT|INTERRES
    71   34  159 1    
    72   35   36 2    
    73   35   37 1    
    74   37   38 1    
    75   37   39 1    
    76   37  160 1    
    77   38  161 1    
    78   38  162 1    
    79   38  163 1    
    80   39   40 am   BACKBONE|DICT|INTERRES
    81   39  164 1    
    82   40   41 2    
    83   40   42 1    
    84   42   43 1    
    85   42   44 1    
    86   42  165 1    
    87   43  166 1    
    88   43  167 1    
    89   43  168 1    
    90   44   45 am   BACKBONE|DICT|INTERRES
    91   44  169 1    
    92   45   46 2    
    93   45   47 1    
    94   47   48 1    
    95   47   49 1    
    96   47  170 1    
    97   48  171 1    
    98   48  172 1    
    99   48  173 1    
   100   49   50 am   BACKBONE|DICT|INTERRES
   101   49  174 1    
   102   50   51 2    
   103   50   52 1    
   104   52   53 1    
   105   52   54 1    
   106   52  175 1    
   107   53  176 1    
   108   53  177 1    
   109   53  178 1    
   110   54   55 am   BACKBONE|DICT|INTERRES
   111   54  179 1    
   112   55   56 2    
   113   55   57 1    
   114   57   58 1    
   115   57   59 1    
   116   57  180 1    
   117   58  181 1    
   118   58  182 1    
   119   58  183 1    
   120   59   60 am   BACKBONE|DICT|INTERRES
   121   59  184 1    
   122   60   61 2    
   123   60   62 1    
   124   62   63 1    
   125   62   64 1    
   126   62  185 1    
   127   63  186 1    
   128   63  187 1    
   129   63  188 1    
   130   64   65 am   BACKBONE|DICT|INTERRES
   131   64  189 1    
   132   65   66 2    
   133   67   68 2    
   134   67   69 am   BACKBONE|DICT|INTERRES
   135   69   70 1    
   136   69  190 1    
   137   70   71 1    
   138   70   72 1    
   139   70  191 1    
   140   71  192 1    
   141   71  193 1    
   142   71  194 1    
   143   72   73 2    
   144   72   74 am   BACKBONE|DICT|INTERRES
   145   74   75 1    
   146   74  195 1    
   147   75   76 1    
   148   75   77 1    
   149   75  196 1    
   150   76  197 1    
   151   76  198 1    
   152   76  199 1    
   153   77   78 2    
   154   77   79 am   BACKBONE|DICT|INTERRES
   155   79   80 1    
   156   79  200 1    
   157   80   81 1    
   158   80   82 1    
   159   80  201 1    
   160   81  202 1    
   161   81  203 1    
   162   81  204 1    
   163   82   83 2    
   164   82   84 am   BACKBONE|DICT|INTERRES
   165   84   85 1    
   166   84  205 1    
   167   85   86 1    
   168   85   87 1    
   169   85  206 1    
   170   86  207 1    
   171   86  208 1    
   172   86  209 1    
   173   87   88 2    
   174   87   89 am   BACKBONE|DICT|INTERRES
   175   89   90 1    
   176   89  210 1    
   177   90   91 1    
   178   90   92 1    
   179   90  211 1    
   180   91  212 1    
   181   91  213 1    
   182   91  214 1    
   183   92   93 2    
   184   92   94 am   BACKBONE|DICT|INTERRES
   185   94   95 1    
   186   94  215 1    
   187   95   96 1    
   188   95   97 1    
   189   95  216 1    
   190   96  217 1    
   191   96  218 1    
   192   96  219 1    
   193   97   98 2    
   194   97   99 am   BACKBONE|DICT|INTERRES
   195   99  100 1    
   196   99  220 1    
   197  100  101 1    
   198  100  102 1    
   199  100  221 1    
   200  101  222 1    
   201  101  223 1    
   202  101  224 1    
   203  102  103 2    
   204  102  104 am   BACKBONE|DICT|INTERRES
   205  104  105 1    
   206  104  225 1    
   207  105  106 1    
   208  105  107 1    
   209  105  226 1    
   210  106  227 1    
   211  106  228 1    
   212  106  229 1    
   213  107  108 2    
   214  107  109 am   BACKBONE|DICT|INTERRES
   215  109  110 1    
   216  109  230 1    
   217  110  111 1    
   218  110  112 1    
   219  110  231 1    
   220  111  232 1    
   221  111  233 1    
   222  111  234 1    
   223  112  113 2    
   224  112  114 am   BACKBONE|DICT|INTERRES
   225  114  115 1    
   226  114  235 1    
   227  115  116 1    
   228  115  117 1    
   229  115  236 1    
   230  116  237 1    
   231  116  238 1    
   232  116  239 1    
   233  117  118 2    
   234  117  119 am   BACKBONE|DICT|INTERRES
   235  119  120 1    
   236  119  240 1    
   237  120  121 1    
   238  120  124 1    
   239  120  241 1    
   240  121  122 am   BACKBONE|DICT|INTERRES
   241  121  123 2    
   242  122  242 1    
   243  122  243 1    
   244  124  125 1    
   245  124  244 1    
   246  124  245 1    
   247  125  126 1    
   248  126  246 1    
   249  126  247 1    
@<TRIPOS>SUBSTRUCTURE
     1 UNK         1 GROUP             0       ****    0 ROOT    
