@<TRIPOS>MOLECULE
3R540
247   249    1
SMALL
USER_CHARGES


@<TRIPOS>ATOM
      1 CA          3.4070  -14.6615  -47.6395 C.3       0 UNK        -0.1800 
      2 C           3.4852  -13.1799  -47.9991 C.2       0 UNK         0.5000 
      3 O           4.5719  -12.6082  -47.9634 O.2       0 UNK        -0.5000 
      4 N           2.3777  -12.5133  -48.3560 N.am      1 UNK        -0.5000 
      5 CA          1.0004  -13.0270  -48.3841 C.3       1 UNK         0.1400 
      6 C6          0.1058  -12.1456  -49.2952 C.3       23 UNK        -0.0398 
      7 S7         -1.3234  -13.0309  -50.0083 S.3       23 UNK        -0.2404 
      8 C8         -0.6594  -13.6445  -51.5943 C.3       23 UNK        -0.0205 
      9 C9         -0.6818  -15.1639  -51.6318 C.ar      23 UNK        -0.0193 
     10 C10        -1.7110  -15.8459  -52.2899 C.ar      23 UNK        -0.1150 
     11 C11        -1.7630  -17.2467  -52.2736 C.ar      23 UNK        -0.0193 
     12 C12        -0.7765  -17.9528  -51.5760 C.ar      23 UNK        -0.1150 
     13 C13         0.2606  -17.2821  -50.9234 C.ar      23 UNK        -0.0193 
     14 C14         0.3182  -15.8899  -50.9824 C.ar      23 UNK        -0.1150 
     15 C15         1.3028  -18.0570  -50.1297 C.3       23 UNK        -0.0205 
     16 S16         1.2777  -17.6492  -48.3491 S.3       23 UNK        -0.2404 
     17 C17        -0.4534  -17.9991  -47.8847 C.3       23 UNK        -0.0398 
     18 CA         -0.6950  -19.5041  -47.6356 C.3       11 UNK         0.1400 
     19 N          -0.0367  -19.9944  -46.4234 N.am      11 UNK        -0.5000 
     20 C           0.0884  -21.2907  -46.1087 C.2       10 UNK         0.5000 
     21 O          -0.3100  -22.2099  -46.8249 O.2       10 UNK        -0.5000 
     22 CA          0.7159  -21.6148  -44.7424 C.3       10 UNK         0.1400 
     23 CB          2.2426  -21.4526  -44.7864 C.3       10 UNK        -0.1800 
     24 N           0.1570  -20.7998  -43.6627 N.am      10 UNK        -0.5000 
     25 C          -1.1276  -20.8323  -43.2796 C.2       9 UNK         0.5000 
     26 O          -1.9690  -21.5823  -43.7747 O.2       9 UNK        -0.5000 
     27 CA         -1.5582  -19.8387  -42.1862 C.3       9 UNK         0.1400 
     28 CB         -1.1637  -20.3564  -40.7952 C.3       9 UNK        -0.1800 
     29 N          -1.0155  -18.4946  -42.3869 N.am      9 UNK        -0.5000 
     30 C          -1.2896  -17.7105  -43.4405 C.2       8 UNK         0.5000 
     31 O          -2.0497  -18.0293  -44.3531 O.2       8 UNK        -0.5000 
     32 CA         -0.5485  -16.3638  -43.5151 C.3       8 UNK         0.1400 
     33 CB         -1.1604  -15.3509  -42.5341 C.3       8 UNK        -0.1800 
     34 N           0.8830  -16.5044  -43.2521 N.am      8 UNK        -0.5000 
     35 C           1.7203  -17.2700  -43.9674 C.2       7 UNK         0.5000 
     36 O           1.3866  -17.9142  -44.9604 O.2       7 UNK        -0.5000 
     37 CA          3.1594  -17.3869  -43.4408 C.3       7 UNK         0.1400 
     38 CB          3.9875  -16.1456  -43.8101 C.3       7 UNK        -0.1800 
     39 N           3.1875  -17.5970  -41.9926 N.am      7 UNK        -0.5000 
     40 C           2.7540  -18.7106  -41.3829 C.2       6 UNK         0.5000 
     41 O           2.3161  -19.6927  -41.9810 O.2       6 UNK        -0.5000 
     42 CA          2.7788  -18.7112  -39.8439 C.3       6 UNK         0.1400 
     43 CB          4.1774  -19.0759  -39.3242 C.3       6 UNK        -0.1800 
     44 N           2.3695  -17.4261  -39.2768 N.am      6 UNK        -0.5000 
     45 C           1.1321  -16.9179  -39.3664 C.2       5 UNK         0.5000 
     46 O           0.1912  -17.4971  -39.9076 O.2       5 UNK        -0.5000 
     47 CA          0.9310  -15.4973  -38.8058 C.3       5 UNK         0.1400 
     48 CB          0.6542  -15.5440  -37.2958 C.3       5 UNK        -0.1800 
     49 N           2.0701  -14.6111  -39.0683 N.am      5 UNK        -0.5000 
     50 C           2.4915  -14.2748  -40.2933 C.2       4 UNK         0.5000 
     51 O           1.9632  -14.6814  -41.3335 O.2       4 UNK        -0.5000 
     52 CA          3.7299  -13.3744  -40.3797 C.3       4 UNK         0.1400 
     53 CB          5.0171  -14.1777  -40.1235 C.3       4 UNK        -0.1800 
     54 N           3.7570  -12.8172  -41.7226 N.am      4 UNK        -0.5000 
     55 C           4.3220  -11.6724  -42.1118 C.2       3 UNK         0.5000 
     56 O           4.9927  -10.9511  -41.3724 O.2       3 UNK        -0.5000 
     57 CA          4.0872  -11.2601  -43.5799 C.3       3 UNK         0.1400 
     58 CB          5.3092  -11.6221  -44.4381 C.3       3 UNK        -0.1800 
     59 N           2.8941  -11.8692  -44.1816 N.am      3 UNK        -0.5000 
     60 C           1.6278  -11.5874  -43.8383 C.2       2 UNK         0.5000 
     61 O           1.3251  -10.7640  -42.9739 O.2       2 UNK        -0.5000 
     62 CA          0.5338  -12.3345  -44.6207 C.3       2 UNK         0.1400 
     63 CB         -0.8848  -11.7835  -44.3719 C.3       2 UNK        -0.1800 
     64 N           0.8556  -12.3071  -46.0450 N.am      2 UNK        -0.5000 
     65 C           0.4184  -13.1802  -46.9609 C.2       1 UNK         0.5000 
     66 O          -0.3559  -14.1032  -46.7101 O.2       1 UNK        -0.5000 
     67 C          -2.1987  -19.8381  -47.6541 C.2       11 UNK         0.5000 
     68 O          -2.6979  -20.2493  -48.6992 O.2       11 UNK        -0.5000 
     69 N          -2.8862  -19.7090  -46.5095 N.am      12 UNK        -0.5000 
     70 CA         -4.2929  -20.0838  -46.3486 C.3       12 UNK         0.1400 
     71 CB         -4.8073  -19.6307  -44.9744 C.3       12 UNK        -0.1800 
     72 C          -4.5352  -21.5897  -46.5539 C.2       12 UNK         0.5000 
     73 O          -5.4920  -21.9587  -47.2335 O.2       12 UNK        -0.5000 
     74 N          -3.6464  -22.4313  -46.0079 N.am      13 UNK        -0.5000 
     75 CA         -3.6586  -23.8813  -46.2045 C.3       13 UNK         0.1400 
     76 CB         -2.6311  -24.5405  -45.2727 C.3       13 UNK        -0.1800 
     77 C          -3.4072  -24.2753  -47.6713 C.2       13 UNK         0.5000 
     78 O          -4.1244  -25.1213  -48.2054 O.2       13 UNK        -0.5000 
     79 N          -2.4271  -23.6239  -48.3120 N.am      14 UNK        -0.5000 
     80 CA         -2.0963  -23.8214  -49.7235 C.3       14 UNK         0.1400 
     81 CB         -0.7568  -23.1390  -50.0331 C.3       14 UNK        -0.1800 
     82 C          -3.2016  -23.3370  -50.6837 C.2       14 UNK         0.5000 
     83 O          -3.3594  -23.9241  -51.7537 O.2       14 UNK        -0.5000 
     84 N          -3.9385  -22.2902  -50.2851 N.am      15 UNK        -0.5000 
     85 CA         -5.1007  -21.7476  -50.9899 C.3       15 UNK         0.1400 
     86 CB         -5.3803  -20.3234  -50.4832 C.3       15 UNK        -0.1800 
     87 C          -6.3612  -22.6155  -50.8302 C.2       15 UNK         0.5000 
     88 O          -7.1775  -22.6633  -51.7505 O.2       15 UNK        -0.5000 
     89 N          -6.5140  -23.2673  -49.6680 N.am      16 UNK        -0.5000 
     90 CA         -7.5780  -24.2371  -49.3988 C.3       16 UNK         0.1400 
     91 CB         -7.6640  -24.5032  -47.8880 C.3       16 UNK        -0.1800 
     92 C          -7.3637  -25.5470  -50.1795 C.2       16 UNK         0.5000 
     93 O          -8.3294  -26.1367  -50.6673 O.2       16 UNK        -0.5000 
     94 N          -6.0952  -25.9549  -50.3055 N.am      17 UNK        -0.5000 
     95 CA         -5.6284  -27.0082  -51.2019 C.3       17 UNK         0.1400 
     96 CB         -4.2326  -27.4528  -50.7277 C.3       17 UNK        -0.1800 
     97 C          -5.5877  -26.5332  -52.6713 C.2       17 UNK         0.5000 
     98 O          -5.8594  -25.3703  -52.9714 O.2       17 UNK        -0.5000 
     99 N          -5.2047  -27.4436  -53.5729 N.am      18 UNK        -0.5000 
    100 CA        -4.9551  -27.1514  -54.9890 C.3       18 UNK         0.1400 
    101 CB        -5.2312  -28.4289  -55.8006 C.3       18 UNK        -0.1800 
    102 C         -3.5232  -26.6289  -55.2520 C.2       18 UNK         0.5000 
    103 O         -3.1558  -26.4374  -56.4120 O.2       18 UNK        -0.5000 
    104 N         -2.7238  -26.4628  -54.1883 N.am      19 UNK        -0.5000 
    105 CA        -1.3008  -26.1367  -54.2360 C.3       19 UNK         0.1400 
    106 CB        -0.6926  -26.3300  -52.8375 C.3       19 UNK        -0.1800 
    107 C         -0.9985  -24.7278  -54.7747 C.2       19 UNK         0.5000 
    108 O         -0.1323  -24.5916  -55.6405 O.2       19 UNK        -0.5000 
    109 N         -1.6896  -23.7097  -54.2468 N.am      20 UNK        -0.5000 
    110 CA        -1.4733  -22.3109  -54.6156 C.3       20 UNK         0.1400 
    111 CB        -1.6205  -21.4300  -53.3679 C.3       20 UNK        -0.1800 
    112 C         -2.4485  -21.8504  -55.7105 C.2       20 UNK         0.5000 
    113 O         -3.5347  -22.4150  -55.8654 O.2       20 UNK        -0.5000 
    114 N         -2.0585  -20.7747  -56.4091 N.am      21 UNK        -0.5000 
    115 CA        -2.8020  -20.1344  -57.5018 C.3       21 UNK         0.1400 
    116 CB        -1.9140  -19.0474  -58.1277 C.3       21 UNK        -0.1800 
    117 C         -4.1687  -19.5424  -57.0969 C.2       21 UNK         0.5000 
    118 O         -4.9996  -19.2905  -57.9705 O.2       21 UNK        -0.5000 
    119 N         -4.3828  -19.3480  -55.7897 N.am      22 UNK        -0.5000 
    120 CA        -5.6739  -18.9812  -55.1882 C.3       22 UNK         0.1400 
    121 C         -6.7621  -20.0927  -55.3021 C.2       22 UNK         0.5000 
    122 N         -6.4128  -21.3493  -55.5595 N.am      22 UNK        -0.7600 
    123 O         -7.9465  -19.8052  -55.1542 O.2       22 UNK        -0.5000 
    124 C124       -5.5191  -18.5606  -53.7042 C.3       23 UNK        -0.0398 
    125 S125       -4.3804  -17.1610  -53.4119 S.3       23 UNK        -0.2404 
    126 C126       -2.8392  -18.0505  -53.0028 C.3       23 UNK        -0.0205 
    127 H127        4.3865  -15.0331  -47.3378 H         1 UNK         0.0600 
    128 H128        3.0849  -15.2440  -48.5019 H         1 UNK         0.0600 
    129 H129        2.7185  -14.8420  -46.8148 H         1 UNK         0.0600 
    130 H130        2.4782  -11.5415  -48.6132 H         1 UNK         0.3000 
    131 H131        1.0358  -14.0271  -48.8114 H         1 UNK         0.0600 
    132 H132        0.6899  -11.7381  -50.1213 H         1 UNK         0.0800 
    133 H133       -0.2625  -11.2721  -48.7539 H         1 UNK         0.0800 
    134 H134       -1.2581  -13.2353  -52.4094 H         1 UNK         0.0800 
    135 H135        0.3592  -13.2917  -51.7597 H         1 UNK         0.0800 
    136 H136       -2.4693  -15.2775  -52.8082 H         1 UNK         0.1150 
    137 H137       -0.8181  -19.0324  -51.5372 H         1 UNK         0.1150 
    138 H138        1.1283  -15.3747  -50.4906 H         1 UNK         0.1150 
    139 H139        1.1641  -19.1322  -50.2512 H         1 UNK         0.0800 
    140 H140        2.2926  -17.8305  -50.5279 H         1 UNK         0.0800 
    141 H141       -1.1142  -17.6126  -48.6618 H         1 UNK         0.0800 
    142 H142       -0.6891  -17.4243  -46.9870 H         1 UNK         0.0800 
    143 H143       -0.2593  -20.0505  -48.4745 H         1 UNK         0.0600 
    144 H144        0.3550  -19.2898  -45.8028 H         1 UNK         0.3000 
    145 H145        0.4943  -22.6601  -44.5173 H         1 UNK         0.0600 
    146 H146        2.6990  -21.7715  -43.8492 H         1 UNK         0.0600 
    147 H147        2.6770  -22.0583  -45.5825 H         1 UNK         0.0600 
    148 H148        2.5341  -20.4173  -44.9644 H         1 UNK         0.0600 
    149 H149        0.8020  -20.1832  -43.1782 H         1 UNK         0.3000 
    150 H150       -2.6467  -19.7624  -42.2204 H         1 UNK         0.0600 
    151 H151       -1.5644  -21.3558  -40.6215 H         1 UNK         0.0600 
    152 H152       -1.5533  -19.7091  -40.0094 H         1 UNK         0.0600 
    153 H153       -0.0811  -20.4105  -40.6774 H         1 UNK         0.0600 
    154 H154       -0.4070  -18.1391  -41.6552 H         1 UNK         0.3000 
    155 H155       -0.6605  -15.9720  -44.5284 H         1 UNK         0.0600 
    156 H156       -0.6476  -14.3911  -42.5752 H         1 UNK         0.0600 
    157 H157       -2.2100  -15.1698  -42.7684 H         1 UNK         0.0600 
    158 H158       -1.1110  -15.7048  -41.5045 H         1 UNK         0.0600 
    159 H159        1.2517  -15.9881  -42.4574 H         1 UNK         0.3000 
    160 H160        3.6211  -18.2545  -43.9170 H         1 UNK         0.0600 
    161 H161        3.5634  -15.2324  -43.3952 H         1 UNK         0.0600 
    162 H162        4.0335  -16.0211  -44.8923 H         1 UNK         0.0600 
    163 H163        5.0128  -16.2330  -43.4505 H         1 UNK         0.0600 
    164 H164        3.4849  -16.8192  -41.4245 H         1 UNK         0.3000 
    165 H165        2.0770  -19.4739  -39.4998 H         1 UNK         0.0600 
    166 H166        4.1855  -19.1545  -38.2369 H         1 UNK         0.0600 
    167 H167        4.5015  -20.0390  -39.7209 H         1 UNK         0.0600 
    168 H168        4.9229  -18.3339  -39.6131 H         1 UNK         0.0600 
    169 H169        3.0817  -16.8815  -38.8139 H         1 UNK         0.3000 
    170 H170        0.0555  -15.0701  -39.2993 H         1 UNK         0.0600 
    171 H171       -0.2008  -16.1848  -37.0758 H         1 UNK         0.0600 
    172 H172        1.5081  -15.9334  -36.7401 H         1 UNK         0.0600 
    173 H173        0.4236  -14.5523  -36.9064 H         1 UNK         0.0600 
    174 H174        2.5534  -14.2439  -38.2610 H         1 UNK         0.3000 
    175 H175        3.6329  -12.5699  -39.6477 H         1 UNK         0.0600 
    176 H176        5.0166  -14.6169  -39.1253 H         1 UNK         0.0600 
    177 H177        5.1347  -14.9896  -40.8423 H         1 UNK         0.0600 
    178 H178        5.8991  -13.5409  -40.1947 H         1 UNK         0.0600 
    179 H179        3.1674  -13.3180  -42.3743 H         1 UNK         0.3000 
    180 H180        3.9626  -10.1754  -43.5994 H         1 UNK         0.0600 
    181 H181        5.4682  -12.7006  -44.4780 H         1 UNK         0.0600 
    182 H182        6.2175  -11.1708  -44.0366 H         1 UNK         0.0600 
    183 H183        5.1944  -11.2616  -45.4606 H         1 UNK         0.0600 
    184 H184        3.0605  -12.5582  -44.8995 H         1 UNK         0.3000 
    185 H185        0.5690  -13.3707  -44.2795 H         1 UNK         0.0600 
    186 H186       -1.1353  -11.8094  -43.3107 H         1 UNK         0.0600 
    187 H187       -0.9770  -10.7507  -44.7094 H         1 UNK         0.0600 
    188 H188       -1.6383  -12.3748  -44.8921 H         1 UNK         0.0600 
    189 H189        1.4999  -11.5831  -46.3333 H         1 UNK         0.3000 
    190 H190       -2.4275  -19.3099  -45.6942 H         1 UNK         0.3000 
    191 H191       -4.8646  -19.5517  -47.1115 H         1 UNK         0.0600 
    192 H192       -4.2483  -20.0937  -44.1615 H         1 UNK         0.0600 
    193 H193       -5.8573  -19.8953  -44.8438 H         1 UNK         0.0600 
    194 H194       -4.7289  -18.5494  -44.8618 H         1 UNK         0.0600 
    195 H195       -2.9112  -22.0552  -45.4155 H         1 UNK         0.3000 
    196 H196       -4.6495  -24.2477  -45.9283 H         1 UNK         0.0600 
    197 H197       -2.6341  -25.6246  -45.3924 H         1 UNK         0.0600 
    198 H198       -2.8552  -24.3273  -44.2273 H         1 UNK         0.0600 
    199 H199       -1.6186  -24.1897  -45.4739 H         1 UNK         0.0600 
    200 H200       -1.8498  -22.9680  -47.7931 H         1 UNK         0.3000 
    201 H201       -1.9695  -24.8940  -49.8818 H         1 UNK         0.0600 
    202 H202        0.0215  -23.4650  -49.3430 H         1 UNK         0.0600 
    203 H203       -0.8319  -22.0531  -49.9644 H         1 UNK         0.0600 
    204 H204       -0.4176  -23.3907  -51.0379 H         1 UNK         0.0600 
    205 H205       -3.6591  -21.8001  -49.4410 H         1 UNK         0.3000 
    206 H206       -4.8676  -21.6976  -52.0553 H         1 UNK         0.0600 
    207 H207       -4.5318  -19.6636  -50.6605 H         1 UNK         0.0600 
    208 H208       -6.2454  -19.8891  -50.9853 H         1 UNK         0.0600 
    209 H209       -5.5893  -20.3124  -49.4138 H         1 UNK         0.0600 
    210 H210       -5.8516  -23.0947  -48.9201 H         1 UNK         0.3000 
    211 H211       -8.5274  -23.8051  -49.7216 H         1 UNK         0.0600 
    212 H212       -6.7385  -24.9270  -47.4981 H         1 UNK         0.0600 
    213 H213       -8.4677  -25.2046  -47.6611 H         1 UNK         0.0600 
    214 H214       -7.8681  -23.5845  -47.3377 H         1 UNK         0.0600 
    215 H215       -5.3759  -25.4203  -49.8319 H         1 UNK         0.3000 
    216 H216       -6.3119  -27.8570  -51.1353 H         1 UNK         0.0600 
    217 H217       -3.5014  -26.6498  -50.8254 H         1 UNK         0.0600 
    218 H218       -3.8654  -28.3056  -51.2992 H         1 UNK         0.0600 
    219 H219       -4.2521  -27.7554  -49.6804 H         1 UNK         0.0600 
    220 H220       -4.9990  -28.3847  -53.2687 H         1 UNK         0.3000 
    221 H221       -5.6482  -26.3799  -55.3311 H         1 UNK         0.0600 
    222 H222       -6.2489  -28.7854  -55.6405 H         1 UNK         0.0600 
    223 H223       -4.5463  -29.2334  -55.5301 H         1 UNK         0.0600 
    224 H224       -5.1192  -28.2481  -56.8705 H         1 UNK         0.0600 
    225 H225       -3.1234  -26.6029  -53.2736 H         1 UNK         0.3000 
    226 H226       -0.8227  -26.8525  -54.9082 H         1 UNK         0.0600 
    227 H227        0.3744  -26.1031  -52.8399 H         1 UNK         0.0600 
    228 H228       -1.1640  -25.6807  -52.1002 H         1 UNK         0.0600 
    229 H229       -0.8044  -27.3595  -52.4970 H         1 UNK         0.0600 
    230 H230       -2.4155  -23.8961  -53.5615 H         1 UNK         0.3000 
    231 H231       -0.4547  -22.1834  -54.9888 H         1 UNK         0.0600 
    232 H232       -2.6460  -21.4109  -52.9996 H         1 UNK         0.0600 
    233 H233       -1.3203  -20.4071  -53.5868 H         1 UNK         0.0600 
    234 H234       -0.9757  -21.7743  -52.5625 H         1 UNK         0.0600 
    235 H235       -1.1565  -20.3699  -56.2029 H         1 UNK         0.3000 
    236 H236       -2.9958  -20.8969  -58.2589 H         1 UNK         0.0600 
    237 H237       -0.9807  -19.4668  -58.5038 H         1 UNK         0.0600 
    238 H238       -2.4148  -18.5689  -58.9705 H         1 UNK         0.0600 
    239 H239       -1.6670  -18.2667  -57.4070 H         1 UNK         0.0600 
    240 H240       -3.6419  -19.5853  -55.1512 H         1 UNK         0.3000 
    241 H241       -6.0542  -18.1193  -55.7398 H         1 UNK         0.0600 
    242 H242       -7.1296  -22.0543  -55.6212 H         1 UNK         0.3800 
    243 H243       -5.4420  -21.6155  -55.6809 H         1 UNK         0.3800 
    244 H244       -5.1990  -19.4172  -53.1129 H         1 UNK         0.0800 
    245 H245       -6.4880  -18.2657  -53.2968 H         1 UNK         0.0800 
    246 H246       -3.0854  -18.9233  -52.3977 H         1 UNK         0.0800 
    247 H247       -2.4073  -18.4160  -53.9336 H         1 UNK         0.0800 
@<TRIPOS>BOND
     1    1    2 1    
     2    1  127 1    
     3    1  128 1    
     4    1  129 1    
     5    2    3 2    
     6    2    4 am   BACKBONE|DICT|INTERRES
     7    4    5 1    
     8    4  130 1    
     9    5    6 1    
    10    5   65 1    
    11    5  131 1    
    12    6    7 1    
    13    6  132 1    
    14    6  133 1    
    15    7    8 1    
    16    8    9 1    
    17    8  134 1    
    18    8  135 1    
    19    9   10 ar   
    20    9   14 ar   
    21   10   11 ar   
    22   10  136 1    
    23   11   12 ar   
    24   11  126 1    
    25   12   13 ar   
    26   12  137 1    
    27   13   14 ar   
    28   13   15 1    
    29   14  138 1    
    30   15   16 1    
    31   15  139 1    
    32   15  140 1    
    33   16   17 1    
    34   17   18 1    
    35   17  141 1    
    36   17  142 1    
    37   18   19 1    
    38   18   67 1    
    39   18  143 1    
    40   19   20 am   BACKBONE|DICT|INTERRES
    41   19  144 1    
    42   20   21 2    
    43   20   22 1    
    44   22   23 1    
    45   22   24 1    
    46   22  145 1    
    47   23  146 1    
    48   23  147 1    
    49   23  148 1    
    50   24   25 am   BACKBONE|DICT|INTERRES
    51   24  149 1    
    52   25   26 2    
    53   25   27 1    
    54   27   28 1    
    55   27   29 1    
    56   27  150 1    
    57   28  151 1    
    58   28  152 1    
    59   28  153 1    
    60   29   30 am   BACKBONE|DICT|INTERRES
    61   29  154 1    
    62   30   31 2    
    63   30   32 1    
    64   32   33 1    
    65   32   34 1    
    66   32  155 1    
    67   33  156 1    
    68   33  157 1    
    69   33  158 1    
    70   34   35 am   BACKBONE|DICT|INTERRES
    71   34  159 1    
    72   35   36 2    
    73   35   37 1    
    74   37   38 1    
    75   37   39 1    
    76   37  160 1    
    77   38  161 1    
    78   38  162 1    
    79   38  163 1    
    80   39   40 am   BACKBONE|DICT|INTERRES
    81   39  164 1    
    82   40   41 2    
    83   40   42 1    
    84   42   43 1    
    85   42   44 1    
    86   42  165 1    
    87   43  166 1    
    88   43  167 1    
    89   43  168 1    
    90   44   45 am   BACKBONE|DICT|INTERRES
    91   44  169 1    
    92   45   46 2    
    93   45   47 1    
    94   47   48 1    
    95   47   49 1    
    96   47  170 1    
    97   48  171 1    
    98   48  172 1    
    99   48  173 1    
   100   49   50 am   BACKBONE|DICT|INTERRES
   101   49  174 1    
   102   50   51 2    
   103   50   52 1    
   104   52   53 1    
   105   52   54 1    
   106   52  175 1    
   107   53  176 1    
   108   53  177 1    
   109   53  178 1    
   110   54   55 am   BACKBONE|DICT|INTERRES
   111   54  179 1    
   112   55   56 2    
   113   55   57 1    
   114   57   58 1    
   115   57   59 1    
   116   57  180 1    
   117   58  181 1    
   118   58  182 1    
   119   58  183 1    
   120   59   60 am   BACKBONE|DICT|INTERRES
   121   59  184 1    
   122   60   61 2    
   123   60   62 1    
   124   62   63 1    
   125   62   64 1    
   126   62  185 1    
   127   63  186 1    
   128   63  187 1    
   129   63  188 1    
   130   64   65 am   BACKBONE|DICT|INTERRES
   131   64  189 1    
   132   65   66 2    
   133   67   68 2    
   134   67   69 am   BACKBONE|DICT|INTERRES
   135   69   70 1    
   136   69  190 1    
   137   70   71 1    
   138   70   72 1    
   139   70  191 1    
   140   71  192 1    
   141   71  193 1    
   142   71  194 1    
   143   72   73 2    
   144   72   74 am   BACKBONE|DICT|INTERRES
   145   74   75 1    
   146   74  195 1    
   147   75   76 1    
   148   75   77 1    
   149   75  196 1    
   150   76  197 1    
   151   76  198 1    
   152   76  199 1    
   153   77   78 2    
   154   77   79 am   BACKBONE|DICT|INTERRES
   155   79   80 1    
   156   79  200 1    
   157   80   81 1    
   158   80   82 1    
   159   80  201 1    
   160   81  202 1    
   161   81  203 1    
   162   81  204 1    
   163   82   83 2    
   164   82   84 am   BACKBONE|DICT|INTERRES
   165   84   85 1    
   166   84  205 1    
   167   85   86 1    
   168   85   87 1    
   169   85  206 1    
   170   86  207 1    
   171   86  208 1    
   172   86  209 1    
   173   87   88 2    
   174   87   89 am   BACKBONE|DICT|INTERRES
   175   89   90 1    
   176   89  210 1    
   177   90   91 1    
   178   90   92 1    
   179   90  211 1    
   180   91  212 1    
   181   91  213 1    
   182   91  214 1    
   183   92   93 2    
   184   92   94 am   BACKBONE|DICT|INTERRES
   185   94   95 1    
   186   94  215 1    
   187   95   96 1    
   188   95   97 1    
   189   95  216 1    
   190   96  217 1    
   191   96  218 1    
   192   96  219 1    
   193   97   98 2    
   194   97   99 am   BACKBONE|DICT|INTERRES
   195   99  100 1    
   196   99  220 1    
   197  100  101 1    
   198  100  102 1    
   199  100  221 1    
   200  101  222 1    
   201  101  223 1    
   202  101  224 1    
   203  102  103 2    
   204  102  104 am   BACKBONE|DICT|INTERRES
   205  104  105 1    
   206  104  225 1    
   207  105  106 1    
   208  105  107 1    
   209  105  226 1    
   210  106  227 1    
   211  106  228 1    
   212  106  229 1    
   213  107  108 2    
   214  107  109 am   BACKBONE|DICT|INTERRES
   215  109  110 1    
   216  109  230 1    
   217  110  111 1    
   218  110  112 1    
   219  110  231 1    
   220  111  232 1    
   221  111  233 1    
   222  111  234 1    
   223  112  113 2    
   224  112  114 am   BACKBONE|DICT|INTERRES
   225  114  115 1    
   226  114  235 1    
   227  115  116 1    
   228  115  117 1    
   229  115  236 1    
   230  116  237 1    
   231  116  238 1    
   232  116  239 1    
   233  117  118 2    
   234  117  119 am   BACKBONE|DICT|INTERRES
   235  119  120 1    
   236  119  240 1    
   237  120  121 1    
   238  120  124 1    
   239  120  241 1    
   240  121  122 am   BACKBONE|DICT|INTERRES
   241  121  123 2    
   242  122  242 1    
   243  122  243 1    
   244  124  125 1    
   245  124  244 1    
   246  124  245 1    
   247  125  126 1    
   248  126  246 1    
   249  126  247 1    
@<TRIPOS>SUBSTRUCTURE
     1 UNK         1 GROUP             0       ****    0 ROOT    
