@<TRIPOS>MOLECULE
3R540
247   249    1
SMALL
USER_CHARGES


@<TRIPOS>ATOM
      1 CA          3.0054  -12.1939  -42.9760 C.3       0 UNK        -0.1800 
      2 C           2.7730  -12.9369  -44.2839 C.2       0 UNK         0.5000 
      3 O           2.7778  -14.1670  -44.2984 O.2       0 UNK        -0.5000 
      4 N           2.5692  -12.1956  -45.3769 N.am      1 UNK        -0.5000 
      5 CA          2.2049  -12.7117  -46.6930 C.3       1 UNK         0.1400 
      6 C6          3.3796  -13.3994  -47.4387 C.3       23 UNK        -0.0398 
      7 S7          2.7814  -14.7553  -48.4989 S.3       23 UNK        -0.2404 
      8 C8          4.2986  -15.1688  -49.4059 C.3       23 UNK        -0.0205 
      9 C9          4.1123  -16.4556  -50.1907 C.ar      23 UNK        -0.0193 
     10 C10         3.4574  -16.4387  -51.4241 C.ar      23 UNK        -0.1150 
     11 C11         3.2437  -17.6252  -52.1317 C.ar      23 UNK        -0.0193 
     12 C12         3.7076  -18.8351  -51.6036 C.ar      23 UNK        -0.1150 
     13 C13         4.3841  -18.8602  -50.3794 C.ar      23 UNK        -0.0193 
     14 C14         4.5797  -17.6676  -49.6771 C.ar      23 UNK        -0.1150 
     15 C15         4.9250  -20.1653  -49.8142 C.3       23 UNK        -0.0205 
     16 S16         3.9565  -20.7362  -48.3835 S.3       23 UNK        -0.2404 
     17 C17         2.4683  -21.4198  -49.1882 C.3       23 UNK        -0.0398 
     18 CA          2.0992  -22.8124  -48.6225 C.3       11 UNK         0.1400 
     19 N           1.7974  -22.7708  -47.1877 N.am      11 UNK        -0.5000 
     20 C           1.8406  -23.8363  -46.3734 C.2       10 UNK         0.5000 
     21 O           2.2309  -24.9465  -46.7330 O.2       10 UNK        -0.5000 
     22 CA          1.3508  -23.6496  -44.9206 C.3       10 UNK         0.1400 
     23 CB          2.5441  -23.4571  -43.9728 C.3       10 UNK        -0.1800 
     24 N           0.4269  -22.5265  -44.7511 N.am      10 UNK        -0.5000 
     25 C          -0.7779  -22.4236  -45.3280 C.2       9 UNK         0.5000 
     26 O          -1.2954  -23.3322  -45.9777 O.2       9 UNK        -0.5000 
     27 CA         -1.4947  -21.0625  -45.2286 C.3       9 UNK         0.1400 
     28 CB         -2.6583  -21.1310  -44.2306 C.3       9 UNK        -0.1800 
     29 N          -0.6267  -19.9269  -44.8951 N.am      9 UNK        -0.5000 
     30 C           0.4160  -19.5046  -45.6279 C.2       8 UNK         0.5000 
     31 O           0.7740  -20.0700  -46.6611 O.2       8 UNK        -0.5000 
     32 CA          1.2017  -18.2853  -45.1061 C.3       8 UNK         0.1400 
     33 CB          1.7997  -17.4438  -46.2468 C.3       8 UNK        -0.1800 
     34 N           0.3576  -17.4262  -44.2776 N.am      8 UNK        -0.5000 
     35 C           0.3845  -17.3466  -42.9406 C.2       7 UNK         0.5000 
     36 O           1.1470  -18.0077  -42.2354 O.2       7 UNK        -0.5000 
     37 CA         -0.6214  -16.3881  -42.2691 C.3       7 UNK         0.1400 
     38 CB          0.0955  -15.1328  -41.7480 C.3       7 UNK        -0.1800 
     39 N          -1.7071  -15.9843  -43.1666 N.am      7 UNK        -0.5000 
     40 C          -2.7589  -16.7581  -43.4773 C.2       6 UNK         0.5000 
     41 O          -2.9577  -17.8605  -42.9682 O.2       6 UNK        -0.5000 
     42 CA         -3.7313  -16.2426  -44.5617 C.3       6 UNK         0.1400 
     43 CB         -4.9357  -15.5412  -43.9177 C.3       6 UNK        -0.1800 
     44 N          -3.1088  -15.3301  -45.5247 N.am      6 UNK        -0.5000 
     45 C          -2.0869  -15.6468  -46.3315 C.2       5 UNK         0.5000 
     46 O          -1.6487  -16.7902  -46.4417 O.2       5 UNK        -0.5000 
     47 CA         -1.3910  -14.5006  -47.0932 C.3       5 UNK         0.1400 
     48 CB         -1.7481  -14.5382  -48.5852 C.3       5 UNK        -0.1800 
     49 N          -1.6270  -13.1488  -46.5588 N.am      5 UNK        -0.5000 
     50 C          -1.3422  -12.7423  -45.3097 C.2       4 UNK         0.5000 
     51 O          -0.8710  -13.4953  -44.4587 O.2       4 UNK        -0.5000 
     52 CA         -1.6379  -11.2741  -44.9419 C.3       4 UNK         0.1400 
     53 CB         -0.6858  -10.7483  -43.8524 C.3       4 UNK        -0.1800 
     54 N          -1.5390  -10.4002  -46.1087 N.am      4 UNK        -0.5000 
     55 C          -2.5599   -9.7850  -46.7200 C.2       3 UNK         0.5000 
     56 O          -3.7317   -9.8716  -46.3523 O.2       3 UNK        -0.5000 
     57 CA         -2.2171   -8.9468  -47.9704 C.3       3 UNK         0.1400 
     58 CB         -2.0700   -7.4635  -47.5993 C.3       3 UNK        -0.1800 
     59 N          -0.9941   -9.3926  -48.6436 N.am      3 UNK        -0.5000 
     60 C          -0.8515  -10.5764  -49.2534 C.2       2 UNK         0.5000 
     61 O          -1.7722  -11.3816  -49.3896 O.2       2 UNK        -0.5000 
     62 CA          0.5605  -10.9589  -49.7383 C.3       2 UNK         0.1400 
     63 CB          1.4502   -9.7453  -50.0877 C.3       2 UNK        -0.1800 
     64 N           1.2331  -11.8434  -48.7790 N.am      2 UNK        -0.5000 
     65 C           1.5333  -11.5812  -47.4984 C.2       1 UNK         0.5000 
     66 O           1.2801  -10.5083  -46.9412 O.2       1 UNK        -0.5000 
     67 C           0.9397  -23.4434  -49.4230 C.2       11 UNK         0.5000 
     68 O           1.1940  -24.0498  -50.4645 O.2       11 UNK        -0.5000 
     69 N          -0.2979  -23.3181  -48.9187 N.am      12 UNK        -0.5000 
     70 CA         -1.4809  -23.9619  -49.4849 C.3       12 UNK         0.1400 
     71 CB         -2.7409  -23.1655  -49.1145 C.3       12 UNK        -0.1800 
     72 C          -1.5893  -25.4142  -49.0001 C.2       12 UNK         0.5000 
     73 O          -1.7156  -26.3190  -49.8259 O.2       12 UNK        -0.5000 
     74 N          -1.5223  -25.6015  -47.6719 N.am      13 UNK        -0.5000 
     75 CA         -1.5774  -26.8711  -46.9422 C.3       13 UNK         0.1400 
     76 CB         -0.2317  -27.6164  -47.0736 C.3       13 UNK        -0.1800 
     77 C          -2.7985  -27.7220  -47.3472 C.2       13 UNK         0.5000 
     78 O          -3.9165  -27.4093  -46.9352 O.2       13 UNK        -0.5000 
     79 N          -2.5669  -28.7475  -48.1791 N.am      14 UNK        -0.5000 
     80 CA         -3.5740  -29.6419  -48.7514 C.3       14 UNK         0.1400 
     81 CB         -2.8637  -30.7399  -49.5571 C.3       14 UNK        -0.1800 
     82 C          -4.6306  -28.9331  -49.6222 C.2       14 UNK         0.5000 
     83 O          -5.7424  -29.4492  -49.7485 O.2       14 UNK        -0.5000 
     84 N          -4.3045  -27.7518  -50.1694 N.am      15 UNK        -0.5000 
     85 CA         -5.2317  -26.8657  -50.8782 C.3       15 UNK         0.1400 
     86 CB         -4.4355  -25.9241  -51.8000 C.3       15 UNK        -0.1800 
     87 C          -6.1521  -26.1070  -49.8959 C.2       15 UNK         0.5000 
     88 O          -6.1354  -24.8759  -49.8489 O.2       15 UNK        -0.5000 
     89 N          -6.9154  -26.8741  -49.1033 N.am      16 UNK        -0.5000 
     90 CA         -7.9543  -26.4647  -48.1489 C.3       16 UNK         0.1400 
     91 CB         -9.1732  -25.9166  -48.9196 C.3       16 UNK        -0.1800 
     92 C          -7.4913  -25.4913  -47.0410 C.2       16 UNK         0.5000 
     93 O          -8.3345  -24.8255  -46.4372 O.2       16 UNK        -0.5000 
     94 N          -6.1725  -25.4075  -46.8027 N.am      17 UNK        -0.5000 
     95 CA         -5.4886  -24.4267  -45.9514 C.3       17 UNK         0.1400 
     96 CB         -5.7241  -24.7445  -44.4611 C.3       17 UNK        -0.1800 
     97 C          -5.8297  -22.9648  -46.3257 C.2       17 UNK         0.5000 
     98 O          -6.0148  -22.1247  -45.4425 O.2       17 UNK        -0.5000 
     99 N          -5.9376  -22.7019  -47.6370 N.am      18 UNK        -0.5000 
    100 CA        -6.2212  -21.3922  -48.2254 C.3       18 UNK         0.1400 
    101 CB        -6.4703  -21.5857  -49.7307 C.3       18 UNK        -0.1800 
    102 C         -5.0984  -20.3620  -47.9856 C.2       18 UNK         0.5000 
    103 O         -4.0233  -20.7083  -47.4946 O.2       18 UNK        -0.5000 
    104 N         -5.3562  -19.1031  -48.3605 N.am      19 UNK        -0.5000 
    105 CA        -4.4079  -17.9920  -48.2757 C.3       19 UNK         0.1400 
    106 CB        -5.1784  -16.6693  -48.4282 C.3       19 UNK        -0.1800 
    107 C         -3.2652  -18.1346  -49.3029 C.2       19 UNK         0.5000 
    108 O         -3.3103  -17.5256  -50.3724 O.2       19 UNK        -0.5000 
    109 N         -2.2934  -18.9922  -48.9716 N.am      20 UNK        -0.5000 
    110 CA        -1.0534  -19.3354  -49.6788 C.3       20 UNK         0.1400 
    111 CB        -0.1523  -18.0994  -49.8453 C.3       20 UNK        -0.1800 
    112 C         -1.2263  -20.0992  -51.0095 C.2       20 UNK         0.5000 
    113 O         -0.3163  -20.8381  -51.3839 O.2       20 UNK        -0.5000 
    114 N         -2.3853  -19.9499  -51.6693 N.am      21 UNK        -0.5000 
    115 CA        -2.8208  -20.6337  -52.8944 C.3       21 UNK         0.1400 
    116 CB        -3.0794  -22.1295  -52.6186 C.3       21 UNK        -0.1800 
    117 C         -1.8725  -20.3979  -54.0896 C.2       21 UNK         0.5000 
    118 O         -1.5251  -21.3372  -54.8083 O.2       21 UNK        -0.5000 
    119 N         -1.4621  -19.1368  -54.2681 N.am      22 UNK        -0.5000 
    120 CA        -0.4806  -18.7018  -55.2778 C.3       22 UNK         0.1400 
    121 C         -0.9847  -18.7249  -56.7517 C.2       22 UNK         0.5000 
    122 N         -2.2766  -18.8803  -57.0146 N.am      22 UNK        -0.7600 
    123 O         -0.1852  -18.6021  -57.6756 O.2       22 UNK        -0.5000 
    124 C124        0.1225  -17.3146  -54.9360 C.3       23 UNK        -0.0398 
    125 S125        0.7497  -17.2075  -53.2267 S.3       23 UNK        -0.2404 
    126 C126        2.5106  -17.5898  -53.4636 C.3       23 UNK        -0.0205 
    127 H127        3.0030  -11.1129  -43.1178 H         1 UNK         0.0600 
    128 H128        3.9656  -12.4796  -42.5466 H         1 UNK         0.0600 
    129 H129        2.2216  -12.4444  -42.2610 H         1 UNK         0.0600 
    130 H130        2.5333  -11.1851  -45.3169 H         1 UNK         0.3000 
    131 H131        1.4262  -13.4507  -46.5086 H         1 UNK         0.0600 
    132 H132        4.0793  -13.8417  -46.7285 H         1 UNK         0.0800 
    133 H133        3.9608  -12.6851  -48.0250 H         1 UNK         0.0800 
    134 H134        5.1284  -15.2704  -48.7047 H         1 UNK         0.0800 
    135 H135        4.5572  -14.3517  -50.0811 H         1 UNK         0.0800 
    136 H136        3.0901  -15.5036  -51.8234 H         1 UNK         0.1150 
    137 H137        3.5463  -19.7555  -52.1470 H         1 UNK         0.1150 
    138 H138        5.0885  -17.6873  -48.7235 H         1 UNK         0.1150 
    139 H139        4.9571  -20.9435  -50.5782 H         1 UNK         0.0800 
    140 H140        5.9574  -20.0119  -49.4966 H         1 UNK         0.0800 
    141 H141        2.6373  -21.4829  -50.2645 H         1 UNK         0.0800 
    142 H142        1.6521  -20.7112  -49.0558 H         1 UNK         0.0800 
    143 H143        2.9663  -23.4614  -48.7654 H         1 UNK         0.0600 
    144 H144        1.4905  -21.8713  -46.8281 H         1 UNK         0.3000 
    145 H145        0.8247  -24.5624  -44.6334 H         1 UNK         0.0600 
    146 H146        2.2187  -23.4006  -42.9339 H         1 UNK         0.0600 
    147 H147        3.2418  -24.2923  -44.0484 H         1 UNK         0.0600 
    148 H148        3.0970  -22.5456  -44.2034 H         1 UNK         0.0600 
    149 H149        0.7737  -21.7305  -44.2373 H         1 UNK         0.3000 
    150 H150       -1.9006  -20.8640  -46.2190 H         1 UNK         0.0600 
    151 H151       -3.3071  -21.9820  -44.4423 H         1 UNK         0.0600 
    152 H152       -3.2786  -20.2368  -44.2920 H         1 UNK         0.0600 
    153 H153       -2.3054  -21.2305  -43.2037 H         1 UNK         0.0600 
    154 H154       -0.8682  -19.4048  -44.0652 H         1 UNK         0.3000 
    155 H155        2.0322  -18.6793  -44.5176 H         1 UNK         0.0600 
    156 H156        1.0243  -17.0160  -46.8805 H         1 UNK         0.0600 
    157 H157        2.3963  -16.6199  -45.8544 H         1 UNK         0.0600 
    158 H158        2.4541  -18.0401  -46.8846 H         1 UNK         0.0600 
    159 H159       -0.3493  -16.9052  -44.7821 H         1 UNK         0.3000 
    160 H160       -1.0523  -16.9095  -41.4118 H         1 UNK         0.0600 
    161 H161        0.8517  -15.3946  -41.0070 H         1 UNK         0.0600 
    162 H162       -0.6033  -14.4447  -41.2721 H         1 UNK         0.0600 
    163 H163        0.6005  -14.5964  -42.5515 H         1 UNK         0.0600 
    164 H164       -1.5832  -15.0918  -43.6378 H         1 UNK         0.3000 
    165 H165       -4.0968  -17.1132  -45.1087 H         1 UNK         0.0600 
    166 H166       -5.6701  -15.2492  -44.6687 H         1 UNK         0.0600 
    167 H167       -5.4404  -16.2015  -43.2111 H         1 UNK         0.0600 
    168 H168       -4.6353  -14.6451  -43.3731 H         1 UNK         0.0600 
    169 H169       -3.4072  -14.3669  -45.4918 H         1 UNK         0.3000 
    170 H170       -0.3241  -14.7072  -47.0115 H         1 UNK         0.0600 
    171 H171       -1.6759  -15.5496  -48.9861 H         1 UNK         0.0600 
    172 H172       -2.7611  -14.1799  -48.7692 H         1 UNK         0.0600 
    173 H173       -1.0622  -13.9225  -49.1657 H         1 UNK         0.0600 
    174 H174       -2.0121  -12.4746  -47.2073 H         1 UNK         0.3000 
    175 H175       -2.6509  -11.2554  -44.5359 H         1 UNK         0.0600 
    176 H176        0.3523  -10.7672  -44.1831 H         1 UNK         0.0600 
    177 H177       -0.9300   -9.7211  -43.5815 H         1 UNK         0.0600 
    178 H178       -0.7535  -11.3457  -42.9422 H         1 UNK         0.0600 
    179 H179       -0.6043  -10.2799  -46.4896 H         1 UNK         0.3000 
    180 H180       -3.0477   -9.0453  -48.6724 H         1 UNK         0.0600 
    181 H181       -2.9749   -7.0893  -47.1186 H         1 UNK         0.0600 
    182 H182       -1.8962   -6.8505  -48.4840 H         1 UNK         0.0600 
    183 H183       -1.2406   -7.3019  -46.9094 H         1 UNK         0.0600 
    184 H184       -0.1772   -8.8086  -48.5350 H         1 UNK         0.3000 
    185 H185        0.4238  -11.5379  -50.6530 H         1 UNK         0.0600 
    186 H186        1.7022   -9.1422  -49.2152 H         1 UNK         0.0600 
    187 H187        2.3868  -10.0712  -50.5401 H         1 UNK         0.0600 
    188 H188        0.9555   -9.0931  -50.8086 H         1 UNK         0.0600 
    189 H189        1.4624  -12.7632  -49.1329 H         1 UNK         0.3000 
    190 H190       -0.4133  -22.8700  -48.0209 H         1 UNK         0.3000 
    191 H191       -1.3981  -23.9731  -50.5732 H         1 UNK         0.0600 
    192 H192       -2.8970  -23.1191  -48.0374 H         1 UNK         0.0600 
    193 H193       -3.6327  -23.6164  -49.5488 H         1 UNK         0.0600 
    194 H194       -2.6852  -22.1429  -49.4837 H         1 UNK         0.0600 
    195 H195       -1.4483  -24.7747  -47.0819 H         1 UNK         0.3000 
    196 H196       -1.7151  -26.6195  -45.8896 H         1 UNK         0.0600 
    197 H197       -0.2600  -28.5785  -46.5603 H         1 UNK         0.0600 
    198 H198        0.5732  -27.0397  -46.6198 H         1 UNK         0.0600 
    199 H199        0.0430  -27.7976  -48.1132 H         1 UNK         0.0600 
    200 H200       -1.6183  -28.8872  -48.4954 H         1 UNK         0.3000 
    201 H201       -4.1033  -30.1133  -47.9210 H         1 UNK         0.0600 
    202 H202       -2.1791  -31.3108  -48.9295 H         1 UNK         0.0600 
    203 H203       -2.2916  -30.3224  -50.3868 H         1 UNK         0.0600 
    204 H204       -3.5826  -31.4455  -49.9760 H         1 UNK         0.0600 
    205 H205       -3.3719  -27.3834  -50.0044 H         1 UNK         0.3000 
    206 H206       -5.8769  -27.4733  -51.5161 H         1 UNK         0.0600 
    207 H207       -3.8244  -26.4870  -52.5055 H         1 UNK         0.0600 
    208 H208       -5.1050  -25.2908  -52.3834 H         1 UNK         0.0600 
    209 H209       -3.7744  -25.2665  -51.2381 H         1 UNK         0.0600 
    210 H210       -6.7893  -27.8774  -49.2011 H         1 UNK         0.3000 
    211 H211       -8.2674  -27.3745  -47.6352 H         1 UNK         0.0600 
    212 H212       -8.9439  -24.9709  -49.4123 H         1 UNK         0.0600 
    213 H213      -10.0185  -25.7426  -48.2528 H         1 UNK         0.0600 
    214 H214       -9.5068  -26.6199  -49.6826 H         1 UNK         0.0600 
    215 H215       -5.5607  -26.0452  -47.2987 H         1 UNK         0.3000 
    216 H216       -4.4216  -24.5450  -46.1474 H         1 UNK         0.0600 
    217 H217       -5.1245  -24.0940  -43.8234 H         1 UNK         0.0600 
    218 H218       -5.4431  -25.7721  -44.2304 H         1 UNK         0.0600 
    219 H219       -6.7686  -24.6097  -44.1788 H         1 UNK         0.0600 
    220 H220       -5.8176  -23.4646  -48.2941 H         1 UNK         0.3000 
    221 H221       -7.1325  -21.0072  -47.7640 H         1 UNK         0.0600 
    222 H222       -5.5868  -21.9795  -50.2334 H         1 UNK         0.0600 
    223 H223       -7.2898  -22.2832  -49.9062 H         1 UNK         0.0600 
    224 H224       -6.7375  -20.6486  -50.2199 H         1 UNK         0.0600 
    225 H225       -6.2500  -18.8925  -48.7800 H         1 UNK         0.3000 
    226 H226       -3.9590  -18.0014  -47.2814 H         1 UNK         0.0600 
    227 H227       -5.9140  -16.5489  -47.6327 H         1 UNK         0.0600 
    228 H228       -4.5036  -15.8156  -48.3737 H         1 UNK         0.0600 
    229 H229       -5.7024  -16.6130  -49.3830 H         1 UNK         0.0600 
    230 H230       -2.4586  -19.5288  -48.1271 H         1 UNK         0.3000 
    231 H231       -0.5412  -20.0249  -49.0085 H         1 UNK         0.0600 
    232 H232        0.8183  -18.3757  -50.2597 H         1 UNK         0.0600 
    233 H233        0.0312  -17.6161  -48.8871 H         1 UNK         0.0600 
    234 H234       -0.5960  -17.3607  -50.5124 H         1 UNK         0.0600 
    235 H235       -3.0182  -19.2462  -51.3039 H         1 UNK         0.3000 
    236 H236       -3.7751  -20.1838  -53.1711 H         1 UNK         0.0600 
    237 H237       -3.5192  -22.6182  -53.4886 H         1 UNK         0.0600 
    238 H238       -2.1572  -22.6588  -52.3796 H         1 UNK         0.0600 
    239 H239       -3.7724  -22.2662  -51.7899 H         1 UNK         0.0600 
    240 H240       -1.7719  -18.4292  -53.6182 H         1 UNK         0.3000 
    241 H241        0.3400  -19.4210  -55.2413 H         1 UNK         0.0600 
    242 H242       -2.5905  -18.8979  -57.9725 H         1 UNK         0.3800 
    243 H243       -2.9428  -18.9853  -56.2666 H         1 UNK         0.3800 
    244 H244        0.9289  -17.0625  -55.6270 H         1 UNK         0.0800 
    245 H245       -0.6332  -16.5370  -55.0589 H         1 UNK         0.0800 
    246 H246        2.6057  -18.5457  -53.9810 H         1 UNK         0.0800 
    247 H247        2.9655  -16.8364  -54.1084 H         1 UNK         0.0800 
@<TRIPOS>BOND
     1    1    2 1    
     2    1  127 1    
     3    1  128 1    
     4    1  129 1    
     5    2    3 2    
     6    2    4 am   BACKBONE|DICT|INTERRES
     7    4    5 1    
     8    4  130 1    
     9    5    6 1    
    10    5   65 1    
    11    5  131 1    
    12    6    7 1    
    13    6  132 1    
    14    6  133 1    
    15    7    8 1    
    16    8    9 1    
    17    8  134 1    
    18    8  135 1    
    19    9   10 ar   
    20    9   14 ar   
    21   10   11 ar   
    22   10  136 1    
    23   11   12 ar   
    24   11  126 1    
    25   12   13 ar   
    26   12  137 1    
    27   13   14 ar   
    28   13   15 1    
    29   14  138 1    
    30   15   16 1    
    31   15  139 1    
    32   15  140 1    
    33   16   17 1    
    34   17   18 1    
    35   17  141 1    
    36   17  142 1    
    37   18   19 1    
    38   18   67 1    
    39   18  143 1    
    40   19   20 am   BACKBONE|DICT|INTERRES
    41   19  144 1    
    42   20   21 2    
    43   20   22 1    
    44   22   23 1    
    45   22   24 1    
    46   22  145 1    
    47   23  146 1    
    48   23  147 1    
    49   23  148 1    
    50   24   25 am   BACKBONE|DICT|INTERRES
    51   24  149 1    
    52   25   26 2    
    53   25   27 1    
    54   27   28 1    
    55   27   29 1    
    56   27  150 1    
    57   28  151 1    
    58   28  152 1    
    59   28  153 1    
    60   29   30 am   BACKBONE|DICT|INTERRES
    61   29  154 1    
    62   30   31 2    
    63   30   32 1    
    64   32   33 1    
    65   32   34 1    
    66   32  155 1    
    67   33  156 1    
    68   33  157 1    
    69   33  158 1    
    70   34   35 am   BACKBONE|DICT|INTERRES
    71   34  159 1    
    72   35   36 2    
    73   35   37 1    
    74   37   38 1    
    75   37   39 1    
    76   37  160 1    
    77   38  161 1    
    78   38  162 1    
    79   38  163 1    
    80   39   40 am   BACKBONE|DICT|INTERRES
    81   39  164 1    
    82   40   41 2    
    83   40   42 1    
    84   42   43 1    
    85   42   44 1    
    86   42  165 1    
    87   43  166 1    
    88   43  167 1    
    89   43  168 1    
    90   44   45 am   BACKBONE|DICT|INTERRES
    91   44  169 1    
    92   45   46 2    
    93   45   47 1    
    94   47   48 1    
    95   47   49 1    
    96   47  170 1    
    97   48  171 1    
    98   48  172 1    
    99   48  173 1    
   100   49   50 am   BACKBONE|DICT|INTERRES
   101   49  174 1    
   102   50   51 2    
   103   50   52 1    
   104   52   53 1    
   105   52   54 1    
   106   52  175 1    
   107   53  176 1    
   108   53  177 1    
   109   53  178 1    
   110   54   55 am   BACKBONE|DICT|INTERRES
   111   54  179 1    
   112   55   56 2    
   113   55   57 1    
   114   57   58 1    
   115   57   59 1    
   116   57  180 1    
   117   58  181 1    
   118   58  182 1    
   119   58  183 1    
   120   59   60 am   BACKBONE|DICT|INTERRES
   121   59  184 1    
   122   60   61 2    
   123   60   62 1    
   124   62   63 1    
   125   62   64 1    
   126   62  185 1    
   127   63  186 1    
   128   63  187 1    
   129   63  188 1    
   130   64   65 am   BACKBONE|DICT|INTERRES
   131   64  189 1    
   132   65   66 2    
   133   67   68 2    
   134   67   69 am   BACKBONE|DICT|INTERRES
   135   69   70 1    
   136   69  190 1    
   137   70   71 1    
   138   70   72 1    
   139   70  191 1    
   140   71  192 1    
   141   71  193 1    
   142   71  194 1    
   143   72   73 2    
   144   72   74 am   BACKBONE|DICT|INTERRES
   145   74   75 1    
   146   74  195 1    
   147   75   76 1    
   148   75   77 1    
   149   75  196 1    
   150   76  197 1    
   151   76  198 1    
   152   76  199 1    
   153   77   78 2    
   154   77   79 am   BACKBONE|DICT|INTERRES
   155   79   80 1    
   156   79  200 1    
   157   80   81 1    
   158   80   82 1    
   159   80  201 1    
   160   81  202 1    
   161   81  203 1    
   162   81  204 1    
   163   82   83 2    
   164   82   84 am   BACKBONE|DICT|INTERRES
   165   84   85 1    
   166   84  205 1    
   167   85   86 1    
   168   85   87 1    
   169   85  206 1    
   170   86  207 1    
   171   86  208 1    
   172   86  209 1    
   173   87   88 2    
   174   87   89 am   BACKBONE|DICT|INTERRES
   175   89   90 1    
   176   89  210 1    
   177   90   91 1    
   178   90   92 1    
   179   90  211 1    
   180   91  212 1    
   181   91  213 1    
   182   91  214 1    
   183   92   93 2    
   184   92   94 am   BACKBONE|DICT|INTERRES
   185   94   95 1    
   186   94  215 1    
   187   95   96 1    
   188   95   97 1    
   189   95  216 1    
   190   96  217 1    
   191   96  218 1    
   192   96  219 1    
   193   97   98 2    
   194   97   99 am   BACKBONE|DICT|INTERRES
   195   99  100 1    
   196   99  220 1    
   197  100  101 1    
   198  100  102 1    
   199  100  221 1    
   200  101  222 1    
   201  101  223 1    
   202  101  224 1    
   203  102  103 2    
   204  102  104 am   BACKBONE|DICT|INTERRES
   205  104  105 1    
   206  104  225 1    
   207  105  106 1    
   208  105  107 1    
   209  105  226 1    
   210  106  227 1    
   211  106  228 1    
   212  106  229 1    
   213  107  108 2    
   214  107  109 am   BACKBONE|DICT|INTERRES
   215  109  110 1    
   216  109  230 1    
   217  110  111 1    
   218  110  112 1    
   219  110  231 1    
   220  111  232 1    
   221  111  233 1    
   222  111  234 1    
   223  112  113 2    
   224  112  114 am   BACKBONE|DICT|INTERRES
   225  114  115 1    
   226  114  235 1    
   227  115  116 1    
   228  115  117 1    
   229  115  236 1    
   230  116  237 1    
   231  116  238 1    
   232  116  239 1    
   233  117  118 2    
   234  117  119 am   BACKBONE|DICT|INTERRES
   235  119  120 1    
   236  119  240 1    
   237  120  121 1    
   238  120  124 1    
   239  120  241 1    
   240  121  122 am   BACKBONE|DICT|INTERRES
   241  121  123 2    
   242  122  242 1    
   243  122  243 1    
   244  124  125 1    
   245  124  244 1    
   246  124  245 1    
   247  125  126 1    
   248  126  246 1    
   249  126  247 1    
@<TRIPOS>SUBSTRUCTURE
     1 UNK         1 GROUP             0       ****    0 ROOT    
