@<TRIPOS>MOLECULE
3R540
247   249    1
SMALL
USER_CHARGES


@<TRIPOS>ATOM
      1 CA          5.6732  -12.3765  -47.0653 C.3       0 UNK        -0.1800 
      2 C           4.3623  -13.0267  -46.6495 C.2       0 UNK         0.5000 
      3 O           4.0628  -13.0933  -45.4579 O.2       0 UNK        -0.5000 
      4 N           3.5669  -13.4910  -47.6232 N.am      1 UNK        -0.5000 
      5 CA          2.2764  -14.1578  -47.4014 C.3       1 UNK         0.1400 
      6 C6          1.7221  -14.7836  -48.7059 C.3       23 UNK        -0.0398 
      7 S7          0.7117  -16.2656  -48.3887 S.3       23 UNK        -0.2404 
      8 C8         -0.1129  -16.4609  -49.9983 C.3       23 UNK        -0.0205 
      9 C9         -0.8573  -17.7845  -50.0794 C.ar      23 UNK        -0.0193 
     10 C10        -0.3589  -18.8349  -50.8550 C.ar      23 UNK        -0.1150 
     11 C11        -1.0390  -20.0546  -50.9154 C.ar      23 UNK        -0.0193 
     12 C12        -2.2378  -20.2106  -50.2157 C.ar      23 UNK        -0.1150 
     13 C13        -2.7374  -19.1745  -49.4212 C.ar      23 UNK        -0.0193 
     14 C14        -2.0435  -17.9631  -49.3649 C.ar      23 UNK        -0.1150 
     15 C15        -4.0140  -19.3523  -48.6074 C.3       23 UNK        -0.0205 
     16 S16        -4.0478  -20.8919  -47.6281 S.3       23 UNK        -0.2404 
     17 C17        -2.5018  -20.7496  -46.6668 C.3       23 UNK        -0.0398 
     18 CA         -1.4443  -21.7855  -47.1305 C.3       11 UNK         0.1400 
     19 N          -0.0963  -21.2145  -47.1860 N.am      11 UNK        -0.5000 
     20 C           0.9705  -21.8016  -47.7398 C.2       10 UNK         0.5000 
     21 O           0.9492  -22.9369  -48.2124 O.2       10 UNK        -0.5000 
     22 CA          2.2917  -21.0116  -47.7422 C.3       10 UNK         0.1400 
     23 CB          2.2332  -19.8293  -48.7246 C.3       10 UNK        -0.1800 
     24 N           2.7469  -20.5834  -46.4132 N.am      10 UNK        -0.5000 
     25 C           2.1722  -19.7258  -45.5596 C.2       9 UNK         0.5000 
     26 O           1.0979  -19.1494  -45.7569 O.2       9 UNK        -0.5000 
     27 CA          2.9423  -19.4693  -44.2597 C.3       9 UNK         0.1400 
     28 CB          4.0337  -18.4058  -44.4683 C.3       9 UNK        -0.1800 
     29 N           1.9944  -19.0152  -43.2528 N.am      9 UNK        -0.5000 
     30 C           2.0626  -19.2638  -41.9416 C.2       8 UNK         0.5000 
     31 O           2.9946  -19.8704  -41.4120 O.2       8 UNK        -0.5000 
     32 CA          0.8989  -18.7562  -41.0661 C.3       8 UNK         0.1400 
     33 CB          1.3640  -17.6300  -40.1287 C.3       8 UNK        -0.1800 
     34 N          -0.2680  -18.2958  -41.8280 N.am      8 UNK        -0.5000 
     35 C          -1.1560  -19.1192  -42.4037 C.2       7 UNK         0.5000 
     36 O          -1.0229  -20.3424  -42.4412 O.2       7 UNK        -0.5000 
     37 CA         -2.4012  -18.4859  -43.0357 C.3       7 UNK         0.1400 
     38 CB         -3.4092  -18.0584  -41.9553 C.3       7 UNK        -0.1800 
     39 N          -2.0770  -17.3407  -43.8846 N.am      7 UNK        -0.5000 
     40 C          -2.7399  -17.0402  -45.0113 C.2       6 UNK         0.5000 
     41 O          -3.6296  -17.7503  -45.4802 O.2       6 UNK        -0.5000 
     42 CA         -2.3697  -15.7156  -45.7165 C.3       6 UNK         0.1400 
     43 CB         -3.4782  -15.1974  -46.6581 C.3       6 UNK        -0.1800 
     44 N          -1.9634  -14.6615  -44.7840 N.am      6 UNK        -0.5000 
     45 C          -2.6703  -14.1626  -43.7574 C.2       5 UNK         0.5000 
     46 O          -3.8371  -14.4744  -43.5129 O.2       5 UNK        -0.5000 
     47 CA         -1.9420  -13.1593  -42.8378 C.3       5 UNK         0.1400 
     48 CB         -2.4779  -13.1916  -41.3914 C.3       5 UNK        -0.1800 
     49 N          -0.4815  -13.3007  -42.8366 N.am      5 UNK        -0.5000 
     50 C           0.2437  -14.3769  -42.4916 C.2       4 UNK         0.5000 
     51 O          -0.2576  -15.4601  -42.1791 O.2       4 UNK        -0.5000 
     52 CA          1.7836  -14.2446  -42.5371 C.3       4 UNK         0.1400 
     53 CB          2.4052  -15.3719  -43.3736 C.3       4 UNK        -0.1800 
     54 N           2.2449  -12.9672  -43.0809 N.am      4 UNK        -0.5000 
     55 C           2.2972  -11.8025  -42.4222 C.2       3 UNK         0.5000 
     56 O           2.0430  -11.6792  -41.2243 O.2       3 UNK        -0.5000 
     57 CA          2.6255  -10.5581  -43.2694 C.3       3 UNK         0.1400 
     58 CB          4.1394  -10.2991  -43.3055 C.3       3 UNK        -0.1800 
     59 N           2.1122  -10.6713  -44.6390 N.am      3 UNK        -0.5000 
     60 C           0.8115  -10.6364  -44.9659 C.2       2 UNK         0.5000 
     61 O          -0.0908  -10.4573  -44.1481 O.2       2 UNK        -0.5000 
     62 CA          0.4549  -10.8929  -46.4422 C.3       2 UNK         0.1400 
     63 CB          0.5745   -9.5997  -47.2620 C.3       2 UNK        -0.1800 
     64 N           1.2856  -11.9328  -47.0515 N.am      2 UNK        -0.5000 
     65 C           1.2405  -13.2328  -46.7232 C.2       1 UNK         0.5000 
     66 O           0.4632  -13.6958  -45.8889 O.2       1 UNK        -0.5000 
     67 C          -1.5031  -23.0734  -46.2866 C.2       11 UNK         0.5000 
     68 O          -2.1900  -24.0214  -46.6680 O.2       11 UNK        -0.5000 
     69 N          -0.7472  -23.0989  -45.1798 N.am      12 UNK        -0.5000 
     70 CA         -0.6006  -24.2620  -44.3052 C.3       12 UNK         0.1400 
     71 CB          0.1033  -23.8347  -43.0083 C.3       12 UNK        -0.1800 
     72 C           0.1605  -25.4175  -44.9814 C.2       12 UNK         0.5000 
     73 O          -0.2199  -26.5757  -44.8124 O.2       12 UNK        -0.5000 
     74 N           1.2023  -25.0791  -45.7546 N.am      13 UNK        -0.5000 
     75 CA          2.0240  -26.0303  -46.5060 C.3       13 UNK         0.1400 
     76 CB          3.3252  -25.3425  -46.9478 C.3       13 UNK        -0.1800 
     77 C           1.2760  -26.6173  -47.7160 C.2       13 UNK         0.5000 
     78 O           1.3918  -27.8130  -47.9855 O.2       13 UNK        -0.5000 
     79 N           0.4986  -25.7688  -48.4012 N.am      14 UNK        -0.5000 
     80 CA         -0.3510  -26.1316  -49.5363 C.3       14 UNK         0.1400 
     81 CB         -0.6522  -24.8598  -50.3410 C.3       14 UNK        -0.1800 
     82 C          -1.6578  -26.8442  -49.1282 C.2       14 UNK         0.5000 
     83 O          -2.3669  -27.3360  -50.0060 O.2       14 UNK        -0.5000 
     84 N          -1.9500  -26.8844  -47.8197 N.am      15 UNK        -0.5000 
     85 CA         -3.1179  -27.4923  -47.1776 C.3       15 UNK         0.1400 
     86 CB         -3.1231  -29.0230  -47.3747 C.3       15 UNK        -0.1800 
     87 C          -4.4384  -26.8134  -47.5940 C.2       15 UNK         0.5000 
     88 O          -5.3859  -27.4891  -48.0001 O.2       15 UNK        -0.5000 
     89 N          -4.4637  -25.4785  -47.4683 N.am      16 UNK        -0.5000 
     90 CA         -5.5913  -24.5803  -47.7357 C.3       16 UNK         0.1400 
     91 CB         -6.7526  -24.8427  -46.7538 C.3       16 UNK        -0.1800 
     92 C          -6.0266  -24.5886  -49.2153 C.2       16 UNK         0.5000 
     93 O          -7.2174  -24.6855  -49.5171 O.2       16 UNK        -0.5000 
     94 N          -5.0399  -24.4793  -50.1160 N.am      17 UNK        -0.5000 
     95 CA         -5.2279  -24.4603  -51.5713 C.3       17 UNK         0.1400 
     96 CB         -3.8619  -24.6373  -52.2497 C.3       17 UNK        -0.1800 
     97 C          -5.9243  -23.1929  -52.1099 C.2       17 UNK         0.5000 
     98 O          -6.4557  -23.2381  -53.2191 O.2       17 UNK        -0.5000 
     99 N          -5.9092  -22.1140  -51.3121 N.am      18 UNK        -0.5000 
    100 CA        -6.3720  -20.7499  -51.5869 C.3       18 UNK         0.1400 
    101 CB        -7.7826  -20.7026  -52.2077 C.3       18 UNK        -0.1800 
    102 C         -5.3602  -19.9541  -52.4298 C.2       18 UNK         0.5000 
    103 O         -4.7763  -20.4783  -53.3809 O.2       18 UNK        -0.5000 
    104 N         -5.1997  -18.6693  -52.0840 N.am      19 UNK        -0.5000 
    105 CA        -4.2582  -17.7417  -52.7197 C.3       19 UNK         0.1400 
    106 CB        -4.2646  -16.4116  -51.9516 C.3       19 UNK        -0.1800 
    107 C         -4.5460  -17.5014  -54.2143 C.2       19 UNK         0.5000 
    108 O         -3.6163  -17.2493  -54.9801 O.2       19 UNK        -0.5000 
    109 N         -5.8214  -17.6268  -54.6068 N.am      20 UNK        -0.5000 
    110 CA        -6.2893  -17.5460  -55.9903 C.3       20 UNK         0.1400 
    111 CB        -7.8254  -17.5164  -55.9958 C.3       20 UNK        -0.1800 
    112 C         -5.7688  -18.6897  -56.8839 C.2       20 UNK         0.5000 
    113 O         -5.6124  -18.4826  -58.0879 O.2       20 UNK        -0.5000 
    114 N         -5.5029  -19.8631  -56.2912 N.am      21 UNK        -0.5000 
    115 CA        -4.8898  -20.9998  -56.9767 C.3       21 UNK         0.1400 
    116 CB        -5.3149  -22.3082  -56.2940 C.3       21 UNK        -0.1800 
    117 C         -3.3581  -20.8717  -56.9949 C.2       21 UNK         0.5000 
    118 O         -2.7376  -21.1732  -58.0155 O.2       21 UNK        -0.5000 
    119 N         -2.7811  -20.4292  -55.8700 N.am      22 UNK        -0.5000 
    120 CA        -1.3335  -20.2284  -55.7005 C.3       22 UNK         0.1400 
    121 C         -0.7532  -19.0515  -56.5340 C.2       22 UNK         0.5000 
    122 N         -1.4717  -17.9492  -56.7039 N.am      22 UNK        -0.7600 
    123 O          0.3633  -19.1429  -57.0370 O.2       22 UNK        -0.5000 
    124 C124       -0.9430  -20.0781  -54.2117 C.3       23 UNK        -0.0398 
    125 S125       -1.3906  -21.5456  -53.2269 S.3       23 UNK        -0.2404 
    126 C126       -0.4626  -21.2220  -51.6990 C.3       23 UNK        -0.0205 
    127 H127        5.7109  -11.3479  -46.7069 H         1 UNK         0.0600 
    128 H128        5.7952  -12.3654  -48.1486 H         1 UNK         0.0600 
    129 H129        6.5131  -12.9200  -46.6329 H         1 UNK         0.0600 
    130 H130        3.8638  -13.4040  -48.5849 H         1 UNK         0.3000 
    131 H131        2.4827  -14.9692  -46.7002 H         1 UNK         0.0600 
    132 H132        2.5438  -15.1056  -49.3474 H         1 UNK         0.0800 
    133 H133        1.1526  -14.0581  -49.2902 H         1 UNK         0.0800 
    134 H134        0.6286  -16.3935  -50.7960 H         1 UNK         0.0800 
    135 H135       -0.8123  -15.6378  -50.1516 H         1 UNK         0.0800 
    136 H136        0.5684  -18.7096  -51.3957 H         1 UNK         0.1150 
    137 H137       -2.7657  -21.1520  -50.2692 H         1 UNK         0.1150 
    138 H138       -2.4160  -17.1548  -48.7549 H         1 UNK         0.1150 
    139 H139       -4.1556  -18.5109  -47.9290 H         1 UNK         0.0800 
    140 H140       -4.8677  -19.3395  -49.2798 H         1 UNK         0.0800 
    141 H141       -2.7358  -20.8443  -45.6049 H         1 UNK         0.0800 
    142 H142       -2.1184  -19.7344  -46.7776 H         1 UNK         0.0800 
    143 H143       -1.6703  -22.0846  -48.1558 H         1 UNK         0.0600 
    144 H144        0.0442  -20.2966  -46.7706 H         1 UNK         0.3000 
    145 H145        3.0602  -21.6944  -48.1084 H         1 UNK         0.0600 
    146 H146        3.1794  -19.2893  -48.7536 H         1 UNK         0.0600 
    147 H147        2.0255  -20.1778  -49.7365 H         1 UNK         0.0600 
    148 H148        1.4510  -19.1198  -48.4572 H         1 UNK         0.0600 
    149 H149        3.6213  -21.0006  -46.1253 H         1 UNK         0.3000 
    150 H150        3.3996  -20.4069  -43.9361 H         1 UNK         0.0600 
    151 H151        4.7971  -18.7608  -45.1613 H         1 UNK         0.0600 
    152 H152        4.5340  -18.1604  -43.5314 H         1 UNK         0.0600 
    153 H153        3.6226  -17.4843  -44.8816 H         1 UNK         0.0600 
    154 H154        1.1672  -18.5701  -43.6286 H         1 UNK         0.3000 
    155 H155        0.5862  -19.5953  -40.4408 H         1 UNK         0.0600 
    156 H156        1.7142  -16.7591  -40.6806 H         1 UNK         0.0600 
    157 H157        2.1846  -17.9643  -39.4927 H         1 UNK         0.0600 
    158 H158        0.5569  -17.3060  -39.4714 H         1 UNK         0.0600 
    159 H159       -0.4149  -17.2895  -41.8525 H         1 UNK         0.3000 
    160 H160       -2.8663  -19.2690  -43.6381 H         1 UNK         0.0600 
    161 H161       -3.0194  -17.2447  -41.3421 H         1 UNK         0.0600 
    162 H162       -3.6497  -18.8891  -41.2906 H         1 UNK         0.0600 
    163 H163       -4.3434  -17.7185  -42.4028 H         1 UNK         0.0600 
    164 H164       -1.3757  -16.6957  -43.5403 H         1 UNK         0.3000 
    165 H165       -1.4941  -15.9377  -46.3271 H         1 UNK         0.0600 
    166 H166       -4.3874  -14.9454  -46.1121 H         1 UNK         0.0600 
    167 H167       -3.1508  -14.3067  -47.1943 H         1 UNK         0.0600 
    168 H168       -3.7508  -15.9420  -47.4049 H         1 UNK         0.0600 
    169 H169       -1.0217  -14.3042  -44.9335 H         1 UNK         0.3000 
    170 H170       -2.1510  -12.1702  -43.2471 H         1 UNK         0.0600 
    171 H171       -3.5378  -12.9368  -41.3583 H         1 UNK         0.0600 
    172 H172       -2.3643  -14.1784  -40.9412 H         1 UNK         0.0600 
    173 H173       -1.9543  -12.4728  -40.7611 H         1 UNK         0.0600 
    174 H174        0.0222  -12.4749  -43.1321 H         1 UNK         0.3000 
    175 H175        2.1472  -14.3395  -41.5122 H         1 UNK         0.0600 
    176 H176        2.0157  -15.3812  -44.3910 H         1 UNK         0.0600 
    177 H177        3.4896  -15.2745  -43.4290 H         1 UNK         0.0600 
    178 H178        2.1917  -16.3441  -42.9363 H         1 UNK         0.0600 
    179 H179        2.5389  -12.9762  -44.0516 H         1 UNK         0.3000 
    180 H180        2.1464   -9.6984  -42.7959 H         1 UNK         0.0600 
    181 H181        4.6828  -11.1266  -43.7619 H         1 UNK         0.0600 
    182 H182        4.5345  -10.1659  -42.2977 H         1 UNK         0.0600 
    183 H183        4.3717   -9.3943  -43.8673 H         1 UNK         0.0600 
    184 H184        2.7897  -10.8709  -45.3601 H         1 UNK         0.3000 
    185 H185       -0.5850  -11.2250  -46.4793 H         1 UNK         0.0600 
    186 H186        1.6000   -9.2287  -47.2851 H         1 UNK         0.0600 
    187 H187        0.2497   -9.7541  -48.2911 H         1 UNK         0.0600 
    188 H188       -0.0504   -8.8113  -46.8401 H         1 UNK         0.0600 
    189 H189        1.9641  -11.6320  -47.7358 H         1 UNK         0.3000 
    190 H190       -0.2247  -22.2719  -44.9309 H         1 UNK         0.3000 
    191 H191       -1.5986  -24.6244  -44.0492 H         1 UNK         0.0600 
    192 H192        0.2262  -24.6822  -42.3327 H         1 UNK         0.0600 
    193 H193       -0.4762  -23.0796  -42.4770 H         1 UNK         0.0600 
    194 H194        1.0940  -23.4214  -43.2017 H         1 UNK         0.0600 
    195 H195        1.4189  -24.1013  -45.8730 H         1 UNK         0.3000 
    196 H196        2.2861  -26.8568  -45.8419 H         1 UNK         0.0600 
    197 H197        3.1335  -24.4987  -47.6113 H         1 UNK         0.0600 
    198 H198        3.8876  -24.9741  -46.0897 H         1 UNK         0.0600 
    199 H199        3.9707  -26.0396  -47.4836 H         1 UNK         0.0600 
    200 H200        0.5212  -24.7820  -48.1565 H         1 UNK         0.3000 
    201 H201        0.2063  -26.8155  -50.1797 H         1 UNK         0.0600 
    202 H202       -1.2698  -24.1611  -49.7751 H         1 UNK         0.0600 
    203 H203       -1.1750  -25.0988  -51.2662 H         1 UNK         0.0600 
    204 H204        0.2687  -24.3475  -50.6196 H         1 UNK         0.0600 
    205 H205       -1.3129  -26.4106  -47.1946 H         1 UNK         0.3000 
    206 H206       -3.0047  -27.3043  -46.1088 H         1 UNK         0.0600 
    207 H207       -2.1830  -29.4649  -47.0444 H         1 UNK         0.0600 
    208 H208       -3.9213  -29.4869  -46.7941 H         1 UNK         0.0600 
    209 H209       -3.2761  -29.3004  -48.4179 H         1 UNK         0.0600 
    210 H210       -3.6116  -25.0169  -47.1506 H         1 UNK         0.3000 
    211 H211       -5.2251  -23.5741  -47.5345 H         1 UNK         0.0600 
    212 H212       -7.5351  -24.0916  -46.8670 H         1 UNK         0.0600 
    213 H213       -6.4107  -24.7997  -45.7197 H         1 UNK         0.0600 
    214 H214       -7.2116  -25.8183  -46.9156 H         1 UNK         0.0600 
    215 H215       -4.0885  -24.4415  -49.7821 H         1 UNK         0.3000 
    216 H216       -5.8544  -25.3132  -51.8407 H         1 UNK         0.0600 
    217 H217       -3.1731  -23.8368  -51.9774 H         1 UNK         0.0600 
    218 H218       -3.9581  -24.6280  -53.3364 H         1 UNK         0.0600 
    219 H219       -3.4084  -25.5894  -51.9749 H         1 UNK         0.0600 
    220 H220       -5.4311  -22.2256  -50.4305 H         1 UNK         0.3000 
    221 H221       -6.4447  -20.2766  -50.6081 H         1 UNK         0.0600 
    222 H222       -8.4816  -21.3279  -51.6521 H         1 UNK         0.0600 
    223 H223       -7.7857  -21.0326  -53.2470 H         1 UNK         0.0600 
    224 H224       -8.1756  -19.6856  -52.1955 H         1 UNK         0.0600 
    225 H225       -5.7375  -18.2955  -51.3160 H         1 UNK         0.3000 
    226 H226       -3.2607  -18.1777  -52.6380 H         1 UNK         0.0600 
    227 H227       -5.2383  -15.9227  -52.0007 H         1 UNK         0.0600 
    228 H228       -4.0165  -16.5582  -50.9009 H         1 UNK         0.0600 
    229 H229       -3.5280  -15.7208  -52.3639 H         1 UNK         0.0600 
    230 H230       -6.5160  -17.8351  -53.9053 H         1 UNK         0.3000 
    231 H231       -5.9262  -16.6068  -56.4130 H         1 UNK         0.0600 
    232 H232       -8.2468  -18.4232  -55.5600 H         1 UNK         0.0600 
    233 H233       -8.2108  -17.4310  -57.0127 H         1 UNK         0.0600 
    234 H234       -8.2061  -16.6638  -55.4331 H         1 UNK         0.0600 
    235 H235       -5.6073  -19.9480  -55.2874 H         1 UNK         0.3000 
    236 H236       -5.2426  -21.0334  -58.0097 H         1 UNK         0.0600 
    237 H237       -6.4003  -22.3983  -56.2473 H         1 UNK         0.0600 
    238 H238       -4.9381  -23.1724  -56.8422 H         1 UNK         0.0600 
    239 H239       -4.9295  -22.3763  -55.2765 H         1 UNK         0.0600 
    240 H240       -3.3596  -20.2592  -55.0565 H         1 UNK         0.3000 
    241 H241       -0.8441  -21.1320  -56.0700 H         1 UNK         0.0600 
    242 H242       -1.0939  -17.1926  -57.2508 H         1 UNK         0.3800 
    243 H243       -2.3514  -17.8175  -56.2096 H         1 UNK         0.3800 
    244 H244       -1.4229  -19.2007  -53.7764 H         1 UNK         0.0800 
    245 H245        0.1331  -19.9215  -54.1164 H         1 UNK         0.0800 
    246 H246       -0.4935  -22.1121  -51.0718 H         1 UNK         0.0800 
    247 H247        0.5893  -21.0551  -51.9353 H         1 UNK         0.0800 
@<TRIPOS>BOND
     1    1    2 1    
     2    1  127 1    
     3    1  128 1    
     4    1  129 1    
     5    2    3 2    
     6    2    4 am   BACKBONE|DICT|INTERRES
     7    4    5 1    
     8    4  130 1    
     9    5    6 1    
    10    5   65 1    
    11    5  131 1    
    12    6    7 1    
    13    6  132 1    
    14    6  133 1    
    15    7    8 1    
    16    8    9 1    
    17    8  134 1    
    18    8  135 1    
    19    9   10 ar   
    20    9   14 ar   
    21   10   11 ar   
    22   10  136 1    
    23   11   12 ar   
    24   11  126 1    
    25   12   13 ar   
    26   12  137 1    
    27   13   14 ar   
    28   13   15 1    
    29   14  138 1    
    30   15   16 1    
    31   15  139 1    
    32   15  140 1    
    33   16   17 1    
    34   17   18 1    
    35   17  141 1    
    36   17  142 1    
    37   18   19 1    
    38   18   67 1    
    39   18  143 1    
    40   19   20 am   BACKBONE|DICT|INTERRES
    41   19  144 1    
    42   20   21 2    
    43   20   22 1    
    44   22   23 1    
    45   22   24 1    
    46   22  145 1    
    47   23  146 1    
    48   23  147 1    
    49   23  148 1    
    50   24   25 am   BACKBONE|DICT|INTERRES
    51   24  149 1    
    52   25   26 2    
    53   25   27 1    
    54   27   28 1    
    55   27   29 1    
    56   27  150 1    
    57   28  151 1    
    58   28  152 1    
    59   28  153 1    
    60   29   30 am   BACKBONE|DICT|INTERRES
    61   29  154 1    
    62   30   31 2    
    63   30   32 1    
    64   32   33 1    
    65   32   34 1    
    66   32  155 1    
    67   33  156 1    
    68   33  157 1    
    69   33  158 1    
    70   34   35 am   BACKBONE|DICT|INTERRES
    71   34  159 1    
    72   35   36 2    
    73   35   37 1    
    74   37   38 1    
    75   37   39 1    
    76   37  160 1    
    77   38  161 1    
    78   38  162 1    
    79   38  163 1    
    80   39   40 am   BACKBONE|DICT|INTERRES
    81   39  164 1    
    82   40   41 2    
    83   40   42 1    
    84   42   43 1    
    85   42   44 1    
    86   42  165 1    
    87   43  166 1    
    88   43  167 1    
    89   43  168 1    
    90   44   45 am   BACKBONE|DICT|INTERRES
    91   44  169 1    
    92   45   46 2    
    93   45   47 1    
    94   47   48 1    
    95   47   49 1    
    96   47  170 1    
    97   48  171 1    
    98   48  172 1    
    99   48  173 1    
   100   49   50 am   BACKBONE|DICT|INTERRES
   101   49  174 1    
   102   50   51 2    
   103   50   52 1    
   104   52   53 1    
   105   52   54 1    
   106   52  175 1    
   107   53  176 1    
   108   53  177 1    
   109   53  178 1    
   110   54   55 am   BACKBONE|DICT|INTERRES
   111   54  179 1    
   112   55   56 2    
   113   55   57 1    
   114   57   58 1    
   115   57   59 1    
   116   57  180 1    
   117   58  181 1    
   118   58  182 1    
   119   58  183 1    
   120   59   60 am   BACKBONE|DICT|INTERRES
   121   59  184 1    
   122   60   61 2    
   123   60   62 1    
   124   62   63 1    
   125   62   64 1    
   126   62  185 1    
   127   63  186 1    
   128   63  187 1    
   129   63  188 1    
   130   64   65 am   BACKBONE|DICT|INTERRES
   131   64  189 1    
   132   65   66 2    
   133   67   68 2    
   134   67   69 am   BACKBONE|DICT|INTERRES
   135   69   70 1    
   136   69  190 1    
   137   70   71 1    
   138   70   72 1    
   139   70  191 1    
   140   71  192 1    
   141   71  193 1    
   142   71  194 1    
   143   72   73 2    
   144   72   74 am   BACKBONE|DICT|INTERRES
   145   74   75 1    
   146   74  195 1    
   147   75   76 1    
   148   75   77 1    
   149   75  196 1    
   150   76  197 1    
   151   76  198 1    
   152   76  199 1    
   153   77   78 2    
   154   77   79 am   BACKBONE|DICT|INTERRES
   155   79   80 1    
   156   79  200 1    
   157   80   81 1    
   158   80   82 1    
   159   80  201 1    
   160   81  202 1    
   161   81  203 1    
   162   81  204 1    
   163   82   83 2    
   164   82   84 am   BACKBONE|DICT|INTERRES
   165   84   85 1    
   166   84  205 1    
   167   85   86 1    
   168   85   87 1    
   169   85  206 1    
   170   86  207 1    
   171   86  208 1    
   172   86  209 1    
   173   87   88 2    
   174   87   89 am   BACKBONE|DICT|INTERRES
   175   89   90 1    
   176   89  210 1    
   177   90   91 1    
   178   90   92 1    
   179   90  211 1    
   180   91  212 1    
   181   91  213 1    
   182   91  214 1    
   183   92   93 2    
   184   92   94 am   BACKBONE|DICT|INTERRES
   185   94   95 1    
   186   94  215 1    
   187   95   96 1    
   188   95   97 1    
   189   95  216 1    
   190   96  217 1    
   191   96  218 1    
   192   96  219 1    
   193   97   98 2    
   194   97   99 am   BACKBONE|DICT|INTERRES
   195   99  100 1    
   196   99  220 1    
   197  100  101 1    
   198  100  102 1    
   199  100  221 1    
   200  101  222 1    
   201  101  223 1    
   202  101  224 1    
   203  102  103 2    
   204  102  104 am   BACKBONE|DICT|INTERRES
   205  104  105 1    
   206  104  225 1    
   207  105  106 1    
   208  105  107 1    
   209  105  226 1    
   210  106  227 1    
   211  106  228 1    
   212  106  229 1    
   213  107  108 2    
   214  107  109 am   BACKBONE|DICT|INTERRES
   215  109  110 1    
   216  109  230 1    
   217  110  111 1    
   218  110  112 1    
   219  110  231 1    
   220  111  232 1    
   221  111  233 1    
   222  111  234 1    
   223  112  113 2    
   224  112  114 am   BACKBONE|DICT|INTERRES
   225  114  115 1    
   226  114  235 1    
   227  115  116 1    
   228  115  117 1    
   229  115  236 1    
   230  116  237 1    
   231  116  238 1    
   232  116  239 1    
   233  117  118 2    
   234  117  119 am   BACKBONE|DICT|INTERRES
   235  119  120 1    
   236  119  240 1    
   237  120  121 1    
   238  120  124 1    
   239  120  241 1    
   240  121  122 am   BACKBONE|DICT|INTERRES
   241  121  123 2    
   242  122  242 1    
   243  122  243 1    
   244  124  125 1    
   245  124  244 1    
   246  124  245 1    
   247  125  126 1    
   248  126  246 1    
   249  126  247 1    
@<TRIPOS>SUBSTRUCTURE
     1 UNK         1 GROUP             0       ****    0 ROOT    
