@<TRIPOS>MOLECULE
3R540
247   249    1
SMALL
USER_CHARGES


@<TRIPOS>ATOM
      1 CA         -1.7064  -11.9446  -47.1914 C.3       0 UNK        -0.1800 
      2 C          -0.2910  -12.1536  -47.7118 C.2       0 UNK         0.5000 
      3 O           0.2191  -11.3172  -48.4570 O.2       0 UNK        -0.5000 
      4 N           0.3399  -13.2602  -47.3114 N.am      1 UNK        -0.5000 
      5 CA          1.7026  -13.6564  -47.6622 C.3       1 UNK         0.1400 
      6 C6          1.7286  -14.8642  -48.6347 C.3       23 UNK        -0.0398 
      7 S7          1.0726  -14.4638  -50.2913 S.3       23 UNK        -0.2404 
      8 C8          2.4712  -14.9099  -51.3721 C.3       23 UNK        -0.0205 
      9 C9          2.4574  -16.3892  -51.7332 C.ar      23 UNK        -0.0193 
     10 C10         1.9918  -16.8038  -52.9846 C.ar      23 UNK        -0.1150 
     11 C11         1.9797  -18.1596  -53.3277 C.ar      23 UNK        -0.0193 
     12 C12         2.4239  -19.1070  -52.3994 C.ar      23 UNK        -0.1150 
     13 C13         2.8742  -18.7062  -51.1385 C.ar      23 UNK        -0.0193 
     14 C14         2.9116  -17.3463  -50.8223 C.ar      23 UNK        -0.1150 
     15 C15         3.3012  -19.7369  -50.1040 C.3       23 UNK        -0.0205 
     16 S16         1.8700  -20.5343  -49.3067 S.3       23 UNK        -0.2404 
     17 C17         0.9321  -19.0955  -48.6685 C.3       23 UNK        -0.0398 
     18 CA          0.0299  -19.3439  -47.4288 C.3       11 UNK         0.1400 
     19 N          -0.7537  -18.1353  -47.1474 N.am      11 UNK        -0.5000 
     20 C          -1.4589  -17.8963  -46.0360 C.2       10 UNK         0.5000 
     21 O          -1.3874  -18.5801  -45.0103 O.2       10 UNK        -0.5000 
     22 CA         -2.4447  -16.7156  -46.1087 C.3       10 UNK         0.1400 
     23 CB         -3.8632  -17.2161  -46.4222 C.3       10 UNK        -0.1800 
     24 N          -2.4692  -15.9394  -44.8691 N.am      10 UNK        -0.5000 
     25 C          -1.4791  -15.1172  -44.4946 C.2       9 UNK         0.5000 
     26 O          -0.4786  -14.9182  -45.1807 O.2       9 UNK        -0.5000 
     27 CA         -1.6201  -14.3771  -43.1567 C.3       9 UNK         0.1400 
     28 CB         -2.2395  -12.9845  -43.3731 C.3       9 UNK        -0.1800 
     29 N          -2.3992  -15.1491  -42.1892 N.am      9 UNK        -0.5000 
     30 C          -2.3614  -14.9830  -40.8608 C.2       8 UNK         0.5000 
     31 O          -1.6974  -14.1120  -40.2975 O.2       8 UNK        -0.5000 
     32 CA         -3.2026  -15.9596  -40.0113 C.3       8 UNK         0.1400 
     33 CB         -4.5403  -15.3126  -39.6200 C.3       8 UNK        -0.1800 
     34 N          -3.4705  -17.2400  -40.6757 N.am      8 UNK        -0.5000 
     35 C          -2.5394  -18.1618  -40.9571 C.2       7 UNK         0.5000 
     36 O          -1.3529  -18.0313  -40.6470 O.2       7 UNK        -0.5000 
     37 CA         -3.0091  -19.4192  -41.7214 C.3       7 UNK         0.1400 
     38 CB         -4.1741  -19.1344  -42.6890 C.3       7 UNK        -0.1800 
     39 N          -1.9003  -19.9681  -42.4948 N.am      7 UNK        -0.5000 
     40 C          -1.0429  -20.9041  -42.0649 C.2       6 UNK         0.5000 
     41 O          -1.1683  -21.5192  -41.0050 O.2       6 UNK        -0.5000 
     42 CA          0.1742  -21.1824  -42.9615 C.3       6 UNK         0.1400 
     43 CB         -0.1840  -22.2139  -44.0389 C.3       6 UNK        -0.1800 
     44 N           0.6188  -19.9472  -43.6058 N.am      6 UNK        -0.5000 
     45 C           1.7484  -19.2938  -43.3226 C.2       5 UNK         0.5000 
     46 O           2.6321  -19.7209  -42.5754 O.2       5 UNK        -0.5000 
     47 CA          1.8831  -17.8955  -43.9492 C.3       5 UNK         0.1400 
     48 CB          1.4249  -16.8203  -42.9550 C.3       5 UNK        -0.1800 
     49 N           3.2487  -17.6058  -44.3757 N.am      5 UNK        -0.5000 
     50 C           3.8550  -18.1884  -45.4184 C.2       4 UNK         0.5000 
     51 O           3.3225  -19.0543  -46.1146 O.2       4 UNK        -0.5000 
     52 CA          5.2771  -17.6994  -45.7506 C.3       4 UNK         0.1400 
     53 CB          5.6574  -17.9295  -47.2255 C.3       4 UNK        -0.1800 
     54 N           5.4247  -16.2789  -45.4324 N.am      4 UNK        -0.5000 
     55 C           6.5101  -15.7155  -44.8865 C.2       3 UNK         0.5000 
     56 O           7.5133  -16.3522  -44.5613 O.2       3 UNK        -0.5000 
     57 CA          6.4974  -14.1857  -44.6731 C.3       3 UNK         0.1400 
     58 CB          7.3707  -13.4925  -45.7308 C.3       3 UNK        -0.1800 
     59 N           5.1632  -13.5831  -44.7034 N.am      3 UNK        -0.5000 
     60 C           4.2229  -13.7452  -43.7636 C.2       2 UNK         0.5000 
     61 O           4.3889  -14.4082  -42.7395 O.2       2 UNK        -0.5000 
     62 CA          2.8548  -13.0812  -44.0238 C.3       2 UNK         0.1400 
     63 CB          2.8105  -11.6834  -43.3886 C.3       2 UNK        -0.1800 
     64 N           2.4466  -12.9754  -45.4313 N.am      2 UNK        -0.5000 
     65 C           2.4234  -13.9651  -46.3378 C.2       1 UNK         0.5000 
     66 O           2.9025  -15.0817  -46.1437 O.2       1 UNK        -0.5000 
     67 C          -0.9335  -20.5349  -47.6296 C.2       11 UNK         0.5000 
     68 O          -2.0769  -20.3256  -48.0379 O.2       11 UNK        -0.5000 
     69 N          -0.4604  -21.7684  -47.4045 N.am      12 UNK        -0.5000 
     70 CA         -1.2280  -23.0066  -47.5963 C.3       12 UNK         0.1400 
     71 CB         -0.3597  -24.2144  -47.2133 C.3       12 UNK        -0.1800 
     72 C          -1.7861  -23.1958  -49.0215 C.2       12 UNK         0.5000 
     73 O          -2.8185  -23.8486  -49.1817 O.2       12 UNK        -0.5000 
     74 N          -1.1007  -22.6064  -50.0105 N.am      13 UNK        -0.5000 
     75 CA         -1.4874  -22.5710  -51.4196 C.3       13 UNK         0.1400 
     76 CB         -0.2143  -22.4334  -52.2668 C.3       13 UNK        -0.1800 
     77 C          -2.4964  -21.4529  -51.7620 C.2       13 UNK         0.5000 
     78 O          -2.9462  -21.3920  -52.9072 O.2       13 UNK        -0.5000 
     79 N          -2.8377  -20.5947  -50.7915 N.am      14 UNK        -0.5000 
     80 CA         -3.8940  -19.5851  -50.8877 C.3       14 UNK         0.1400 
     81 CB         -3.3110  -18.2074  -50.5271 C.3       14 UNK        -0.1800 
     82 C          -5.0656  -19.9139  -49.9434 C.2       14 UNK         0.5000 
     83 O          -6.2156  -19.6389  -50.2835 O.2       14 UNK        -0.5000 
     84 N          -4.7527  -20.4801  -48.7699 N.am      15 UNK        -0.5000 
     85 CA         -5.6668  -20.7311  -47.6547 C.3       15 UNK         0.1400 
     86 CB         -4.8211  -21.0010  -46.3965 C.3       15 UNK        -0.1800 
     87 C          -6.6754  -21.8790  -47.8648 C.2       15 UNK         0.5000 
     88 O          -7.5111  -22.0875  -46.9847 O.2       15 UNK        -0.5000 
     89 N          -6.5677  -22.6235  -48.9763 N.am      16 UNK        -0.5000 
     90 CA         -7.3245  -23.8424  -49.2994 C.3       16 UNK         0.1400 
     91 CB         -8.8505  -23.6083  -49.2815 C.3       16 UNK        -0.1800 
     92 C          -6.8835  -25.0615  -48.4618 C.2       16 UNK         0.5000 
     93 O          -7.6205  -26.0458  -48.3847 O.2       16 UNK        -0.5000 
     94 N          -5.6863  -24.9870  -47.8620 N.am      17 UNK        -0.5000 
     95 CA         -5.0834  -26.0624  -47.0770 C.3       17 UNK         0.1400 
     96 CB         -4.1085  -25.4663  -46.0494 C.3       17 UNK        -0.1800 
     97 C          -4.3820  -27.0764  -47.9942 C.2       17 UNK         0.5000 
     98 O          -4.6614  -28.2726  -47.9065 O.2       17 UNK        -0.5000 
     99 N          -3.5096  -26.5699  -48.8743 N.am      18 UNK        -0.5000 
    100 CA        -2.8442  -27.3338  -49.9283 C.3       18 UNK         0.1400 
    101 CB        -1.3491  -26.9762  -49.9528 C.3       18 UNK        -0.1800 
    102 C         -3.4889  -27.0407  -51.2921 C.2       18 UNK         0.5000 
    103 O         -3.6351  -27.9565  -52.1022 O.2       18 UNK        -0.5000 
    104 N         -3.8809  -25.7804  -51.5138 N.am      19 UNK        -0.5000 
    105 CA        -4.5491  -25.2815  -52.7109 C.3       19 UNK         0.1400 
    106 CB        -3.5527  -25.1882  -53.8857 C.3       19 UNK        -0.1800 
    107 C         -5.1462  -23.9051  -52.3875 C.2       19 UNK         0.5000 
    108 O         -4.8823  -23.3616  -51.3128 O.2       19 UNK        -0.5000 
    109 N         -5.9277  -23.3576  -53.3216 N.am      20 UNK        -0.5000 
    110 CA        -6.4405  -21.9839  -53.2717 C.3       20 UNK         0.1400 
    111 CB        -7.9773  -22.0297  -53.2379 C.3       20 UNK        -0.1800 
    112 C         -5.9238  -21.1420  -54.4575 C.2       20 UNK         0.5000 
    113 O         -6.3663  -20.0062  -54.6360 O.2       20 UNK        -0.5000 
    114 N         -5.0031  -21.7085  -55.2524 N.am      21 UNK        -0.5000 
    115 CA        -4.4562  -21.1478  -56.4898 C.3       21 UNK         0.1400 
    116 CB        -3.5047  -22.1772  -57.1191 C.3       21 UNK        -0.1800 
    117 C         -3.7433  -19.7937  -56.3205 C.2       21 UNK         0.5000 
    118 O         -3.7981  -18.9679  -57.2331 O.2       21 UNK        -0.5000 
    119 N         -3.1075  -19.5840  -55.1626 N.am      22 UNK        -0.5000 
    120 CA        -2.4524  -18.3201  -54.7918 C.3       22 UNK         0.1400 
    121 C         -3.4255  -17.2680  -54.1790 C.2       22 UNK         0.5000 
    122 N         -4.7157  -17.5463  -54.0231 N.am      22 UNK        -0.7600 
    123 O         -3.0038  -16.1637  -53.8483 O.2       22 UNK        -0.5000 
    124 C124       -1.2213  -18.5535  -53.8797 C.3       23 UNK        -0.0398 
    125 S125        0.0224  -19.6626  -54.6268 S.3       23 UNK        -0.2404 
    126 C126        1.4954  -18.5950  -54.7051 C.3       23 UNK        -0.0205 
    127 H127       -2.0738  -12.8203  -46.6557 H         1 UNK         0.0600 
    128 H128       -2.3860  -11.7477  -48.0205 H         1 UNK         0.0600 
    129 H129       -1.7359  -11.0914  -46.5139 H         1 UNK         0.0600 
    130 H130       -0.0990  -13.8714  -46.6241 H         1 UNK         0.3000 
    131 H131        2.2413  -12.8265  -48.1240 H         1 UNK         0.0600 
    132 H132        2.7535  -15.2189  -48.7389 H         1 UNK         0.0800 
    133 H133        1.1565  -15.6997  -48.2278 H         1 UNK         0.0800 
    134 H134        3.4190  -14.6433  -50.9025 H         1 UNK         0.0800 
    135 H135        2.4089  -14.3059  -52.2786 H         1 UNK         0.0800 
    136 H136        1.6419  -16.0676  -53.6947 H         1 UNK         0.1150 
    137 H137        2.4014  -20.1578  -52.6523 H         1 UNK         0.1150 
    138 H138        3.2782  -17.0403  -49.8547 H         1 UNK         0.1150 
    139 H139        3.9152  -20.5019  -50.5810 H         1 UNK         0.0800 
    140 H140        3.9253  -19.2782  -49.3363 H         1 UNK         0.0800 
    141 H141        0.3373  -18.7070  -49.4977 H         1 UNK         0.0800 
    142 H142        1.6470  -18.3113  -48.4163 H         1 UNK         0.0800 
    143 H143        0.6640  -19.5614  -46.5679 H         1 UNK         0.0600 
    144 H144       -0.9069  -17.5304  -47.9396 H         1 UNK         0.3000 
    145 H145       -2.1369  -16.0529  -46.9209 H         1 UNK         0.0600 
    146 H146       -4.5507  -16.3832  -46.5701 H         1 UNK         0.0600 
    147 H147       -3.8777  -17.8127  -47.3349 H         1 UNK         0.0600 
    148 H148       -4.2612  -17.8394  -45.6225 H         1 UNK         0.0600 
    149 H149       -3.2997  -16.0224  -44.3060 H         1 UNK         0.3000 
    150 H150       -0.6098  -14.2501  -42.7613 H         1 UNK         0.0600 
    151 H151       -1.6587  -12.4069  -44.0933 H         1 UNK         0.0600 
    152 H152       -2.2633  -12.4095  -42.4475 H         1 UNK         0.0600 
    153 H153       -3.2603  -13.0535  -43.7506 H         1 UNK         0.0600 
    154 H154       -2.9303  -15.9261  -42.5482 H         1 UNK         0.3000 
    155 H155       -2.6417  -16.1632  -39.0966 H         1 UNK         0.0600 
    156 H156       -5.1565  -15.1008  -40.4947 H         1 UNK         0.0600 
    157 H157       -4.3798  -14.3695  -39.0958 H         1 UNK         0.0600 
    158 H158       -5.1119  -15.9590  -38.9536 H         1 UNK         0.0600 
    159 H159       -4.4284  -17.4170  -40.9421 H         1 UNK         0.3000 
    160 H160       -3.3469  -20.1491  -40.9831 H         1 UNK         0.0600 
    161 H161       -3.9355  -18.3199  -43.3720 H         1 UNK         0.0600 
    162 H162       -5.0859  -18.8687  -42.1535 H         1 UNK         0.0600 
    163 H163       -4.4067  -20.0130  -43.2913 H         1 UNK         0.0600 
    164 H164       -1.7118  -19.4983  -43.3742 H         1 UNK         0.3000 
    165 H165        0.9660  -21.5991  -42.3356 H         1 UNK         0.0600 
    166 H166        0.6692  -22.4089  -44.6881 H         1 UNK         0.0600 
    167 H167       -0.4765  -23.1633  -43.5888 H         1 UNK         0.0600 
    168 H168       -1.0149  -21.8752  -44.6585 H         1 UNK         0.0600 
    169 H169       -0.0665  -19.4829  -44.1972 H         1 UNK         0.3000 
    170 H170        1.2448  -17.8342  -44.8316 H         1 UNK         0.0600 
    171 H171        0.4024  -17.0046  -42.6223 H         1 UNK         0.0600 
    172 H172        2.0608  -16.7885  -42.0695 H         1 UNK         0.0600 
    173 H173        1.4410  -15.8366  -43.4187 H         1 UNK         0.0600 
    174 H174        3.7560  -16.9139  -43.8439 H         1 UNK         0.3000 
    175 H175        5.9492  -18.2914  -45.1263 H         1 UNK         0.0600 
    176 H176        4.9859  -17.3934  -47.8971 H         1 UNK         0.0600 
    177 H177        6.6739  -17.5923  -47.4284 H         1 UNK         0.0600 
    178 H178        5.6118  -18.9881  -47.4835 H         1 UNK         0.0600 
    179 H179        4.6153  -15.7014  -45.6524 H         1 UNK         0.3000 
    180 H180        6.9339  -13.9924  -43.6910 H         1 UNK         0.0600 
    181 H181        6.9753  -13.6392  -46.7367 H         1 UNK         0.0600 
    182 H182        8.3883  -13.8853  -45.7178 H         1 UNK         0.0600 
    183 H183        7.4367  -12.4198  -45.5476 H         1 UNK         0.0600 
    184 H184        4.9320  -13.0340  -45.5181 H         1 UNK         0.3000 
    185 H185        2.1025  -13.6912  -43.5238 H         1 UNK         0.0600 
    186 H186        3.0829  -11.7232  -42.3329 H         1 UNK         0.0600 
    187 H187        3.5008  -10.9970  -43.8805 H         1 UNK         0.0600 
    188 H188        1.8099  -11.2543  -43.4468 H         1 UNK         0.0600 
    189 H189        2.0226  -12.0981  -45.6959 H         1 UNK         0.3000 
    190 H190        0.5018  -21.8772  -47.1166 H         1 UNK         0.3000 
    191 H191       -2.0806  -22.9648  -46.9174 H         1 UNK         0.0600 
    192 H192       -0.9032  -25.1497  -47.3540 H         1 UNK         0.0600 
    193 H193       -0.0599  -24.1760  -46.1671 H         1 UNK         0.0600 
    194 H194        0.5445  -24.2677  -47.8210 H         1 UNK         0.0600 
    195 H195       -0.2584  -22.1038  -49.7682 H         1 UNK         0.3000 
    196 H196       -1.9615  -23.5203  -51.6712 H         1 UNK         0.0600 
    197 H197        0.2982  -21.4913  -52.0684 H         1 UNK         0.0600 
    198 H198        0.4846  -23.2452  -52.0656 H         1 UNK         0.0600 
    199 H199       -0.4471  -22.4642  -53.3320 H         1 UNK         0.0600 
    200 H200       -2.4179  -20.7072  -49.8758 H         1 UNK         0.3000 
    201 H201       -4.2913  -19.5367  -51.9033 H         1 UNK         0.0600 
    202 H202       -2.9060  -18.1915  -49.5156 H         1 UNK         0.0600 
    203 H203       -4.0769  -17.4332  -50.5871 H         1 UNK         0.0600 
    204 H204       -2.5099  -17.9171  -51.2040 H         1 UNK         0.0600 
    205 H205       -3.7674  -20.5985  -48.5501 H         1 UNK         0.3000 
    206 H206       -6.2464  -19.8212  -47.4873 H         1 UNK         0.0600 
    207 H207       -4.1235  -20.1880  -46.1985 H         1 UNK         0.0600 
    208 H208       -5.4502  -21.1052  -45.5117 H         1 UNK         0.0600 
    209 H209       -4.2410  -21.9188  -46.4953 H         1 UNK         0.0600 
    210 H210       -5.8324  -22.3970  -49.6375 H         1 UNK         0.3000 
    211 H211       -7.0790  -24.0955  -50.3277 H         1 UNK         0.0600 
    212 H212       -9.3754  -24.4453  -49.7432 H         1 UNK         0.0600 
    213 H213       -9.1193  -22.7113  -49.8393 H         1 UNK         0.0600 
    214 H214       -9.2396  -23.5065  -48.2686 H         1 UNK         0.0600 
    215 H215       -5.1263  -24.1612  -48.0182 H         1 UNK         0.3000 
    216 H216       -5.8672  -26.5873  -46.5263 H         1 UNK         0.0600 
    217 H217       -3.2934  -24.9278  -46.5290 H         1 UNK         0.0600 
    218 H218       -3.6654  -26.2499  -45.4336 H         1 UNK         0.0600 
    219 H219       -4.6180  -24.7738  -45.3790 H         1 UNK         0.0600 
    220 H220       -3.3477  -25.5659  -48.8830 H         1 UNK         0.3000 
    221 H221       -2.9314  -28.4055  -49.7377 H         1 UNK         0.0600 
    222 H222       -0.8792  -27.1835  -48.9915 H         1 UNK         0.0600 
    223 H223       -1.1850  -25.9242  -50.1870 H         1 UNK         0.0600 
    224 H224       -0.8222  -27.5636  -50.7057 H         1 UNK         0.0600 
    225 H225       -3.7595  -25.0737  -50.7947 H         1 UNK         0.3000 
    226 H226       -5.3660  -25.9584  -52.9685 H         1 UNK         0.0600 
    227 H227       -2.7536  -24.4746  -53.6839 H         1 UNK         0.0600 
    228 H228       -3.0903  -26.1519  -54.0979 H         1 UNK         0.0600 
    229 H229       -4.0500  -24.8706  -54.8024 H         1 UNK         0.0600 
    230 H230       -6.1411  -23.8812  -54.1593 H         1 UNK         0.3000 
    231 H231       -6.0987  -21.4763  -52.3688 H         1 UNK         0.0600 
    232 H232       -8.3864  -22.4858  -54.1400 H         1 UNK         0.0600 
    233 H233       -8.3989  -21.0273  -53.1531 H         1 UNK         0.0600 
    234 H234       -8.3328  -22.6017  -52.3807 H         1 UNK         0.0600 
    235 H235       -4.6298  -22.6008  -54.9701 H         1 UNK         0.3000 
    236 H236       -5.2928  -20.9915  -57.1738 H         1 UNK         0.0600 
    237 H237       -4.0210  -23.1119  -57.3384 H         1 UNK         0.0600 
    238 H238       -3.0930  -21.8065  -58.0588 H         1 UNK         0.0600 
    239 H239       -2.6655  -22.4024  -56.4592 H         1 UNK         0.0600 
    240 H240       -3.1073  -20.3135  -54.4532 H         1 UNK         0.3000 
    241 H241       -2.0745  -17.8561  -55.7046 H         1 UNK         0.0600 
    242 H242       -5.3244  -16.8420  -53.6385 H         1 UNK         0.3800 
    243 H243       -5.1074  -18.4327  -54.3208 H         1 UNK         0.3800 
    244 H244       -1.5252  -18.9940  -52.9327 H         1 UNK         0.0800 
    245 H245       -0.7510  -17.6017  -53.6300 H         1 UNK         0.0800 
    246 H246        2.2976  -19.1401  -55.2041 H         1 UNK         0.0800 
    247 H247        1.2746  -17.7314  -55.3344 H         1 UNK         0.0800 
@<TRIPOS>BOND
     1    1    2 1    
     2    1  127 1    
     3    1  128 1    
     4    1  129 1    
     5    2    3 2    
     6    2    4 am   BACKBONE|DICT|INTERRES
     7    4    5 1    
     8    4  130 1    
     9    5    6 1    
    10    5   65 1    
    11    5  131 1    
    12    6    7 1    
    13    6  132 1    
    14    6  133 1    
    15    7    8 1    
    16    8    9 1    
    17    8  134 1    
    18    8  135 1    
    19    9   10 ar   
    20    9   14 ar   
    21   10   11 ar   
    22   10  136 1    
    23   11   12 ar   
    24   11  126 1    
    25   12   13 ar   
    26   12  137 1    
    27   13   14 ar   
    28   13   15 1    
    29   14  138 1    
    30   15   16 1    
    31   15  139 1    
    32   15  140 1    
    33   16   17 1    
    34   17   18 1    
    35   17  141 1    
    36   17  142 1    
    37   18   19 1    
    38   18   67 1    
    39   18  143 1    
    40   19   20 am   BACKBONE|DICT|INTERRES
    41   19  144 1    
    42   20   21 2    
    43   20   22 1    
    44   22   23 1    
    45   22   24 1    
    46   22  145 1    
    47   23  146 1    
    48   23  147 1    
    49   23  148 1    
    50   24   25 am   BACKBONE|DICT|INTERRES
    51   24  149 1    
    52   25   26 2    
    53   25   27 1    
    54   27   28 1    
    55   27   29 1    
    56   27  150 1    
    57   28  151 1    
    58   28  152 1    
    59   28  153 1    
    60   29   30 am   BACKBONE|DICT|INTERRES
    61   29  154 1    
    62   30   31 2    
    63   30   32 1    
    64   32   33 1    
    65   32   34 1    
    66   32  155 1    
    67   33  156 1    
    68   33  157 1    
    69   33  158 1    
    70   34   35 am   BACKBONE|DICT|INTERRES
    71   34  159 1    
    72   35   36 2    
    73   35   37 1    
    74   37   38 1    
    75   37   39 1    
    76   37  160 1    
    77   38  161 1    
    78   38  162 1    
    79   38  163 1    
    80   39   40 am   BACKBONE|DICT|INTERRES
    81   39  164 1    
    82   40   41 2    
    83   40   42 1    
    84   42   43 1    
    85   42   44 1    
    86   42  165 1    
    87   43  166 1    
    88   43  167 1    
    89   43  168 1    
    90   44   45 am   BACKBONE|DICT|INTERRES
    91   44  169 1    
    92   45   46 2    
    93   45   47 1    
    94   47   48 1    
    95   47   49 1    
    96   47  170 1    
    97   48  171 1    
    98   48  172 1    
    99   48  173 1    
   100   49   50 am   BACKBONE|DICT|INTERRES
   101   49  174 1    
   102   50   51 2    
   103   50   52 1    
   104   52   53 1    
   105   52   54 1    
   106   52  175 1    
   107   53  176 1    
   108   53  177 1    
   109   53  178 1    
   110   54   55 am   BACKBONE|DICT|INTERRES
   111   54  179 1    
   112   55   56 2    
   113   55   57 1    
   114   57   58 1    
   115   57   59 1    
   116   57  180 1    
   117   58  181 1    
   118   58  182 1    
   119   58  183 1    
   120   59   60 am   BACKBONE|DICT|INTERRES
   121   59  184 1    
   122   60   61 2    
   123   60   62 1    
   124   62   63 1    
   125   62   64 1    
   126   62  185 1    
   127   63  186 1    
   128   63  187 1    
   129   63  188 1    
   130   64   65 am   BACKBONE|DICT|INTERRES
   131   64  189 1    
   132   65   66 2    
   133   67   68 2    
   134   67   69 am   BACKBONE|DICT|INTERRES
   135   69   70 1    
   136   69  190 1    
   137   70   71 1    
   138   70   72 1    
   139   70  191 1    
   140   71  192 1    
   141   71  193 1    
   142   71  194 1    
   143   72   73 2    
   144   72   74 am   BACKBONE|DICT|INTERRES
   145   74   75 1    
   146   74  195 1    
   147   75   76 1    
   148   75   77 1    
   149   75  196 1    
   150   76  197 1    
   151   76  198 1    
   152   76  199 1    
   153   77   78 2    
   154   77   79 am   BACKBONE|DICT|INTERRES
   155   79   80 1    
   156   79  200 1    
   157   80   81 1    
   158   80   82 1    
   159   80  201 1    
   160   81  202 1    
   161   81  203 1    
   162   81  204 1    
   163   82   83 2    
   164   82   84 am   BACKBONE|DICT|INTERRES
   165   84   85 1    
   166   84  205 1    
   167   85   86 1    
   168   85   87 1    
   169   85  206 1    
   170   86  207 1    
   171   86  208 1    
   172   86  209 1    
   173   87   88 2    
   174   87   89 am   BACKBONE|DICT|INTERRES
   175   89   90 1    
   176   89  210 1    
   177   90   91 1    
   178   90   92 1    
   179   90  211 1    
   180   91  212 1    
   181   91  213 1    
   182   91  214 1    
   183   92   93 2    
   184   92   94 am   BACKBONE|DICT|INTERRES
   185   94   95 1    
   186   94  215 1    
   187   95   96 1    
   188   95   97 1    
   189   95  216 1    
   190   96  217 1    
   191   96  218 1    
   192   96  219 1    
   193   97   98 2    
   194   97   99 am   BACKBONE|DICT|INTERRES
   195   99  100 1    
   196   99  220 1    
   197  100  101 1    
   198  100  102 1    
   199  100  221 1    
   200  101  222 1    
   201  101  223 1    
   202  101  224 1    
   203  102  103 2    
   204  102  104 am   BACKBONE|DICT|INTERRES
   205  104  105 1    
   206  104  225 1    
   207  105  106 1    
   208  105  107 1    
   209  105  226 1    
   210  106  227 1    
   211  106  228 1    
   212  106  229 1    
   213  107  108 2    
   214  107  109 am   BACKBONE|DICT|INTERRES
   215  109  110 1    
   216  109  230 1    
   217  110  111 1    
   218  110  112 1    
   219  110  231 1    
   220  111  232 1    
   221  111  233 1    
   222  111  234 1    
   223  112  113 2    
   224  112  114 am   BACKBONE|DICT|INTERRES
   225  114  115 1    
   226  114  235 1    
   227  115  116 1    
   228  115  117 1    
   229  115  236 1    
   230  116  237 1    
   231  116  238 1    
   232  116  239 1    
   233  117  118 2    
   234  117  119 am   BACKBONE|DICT|INTERRES
   235  119  120 1    
   236  119  240 1    
   237  120  121 1    
   238  120  124 1    
   239  120  241 1    
   240  121  122 am   BACKBONE|DICT|INTERRES
   241  121  123 2    
   242  122  242 1    
   243  122  243 1    
   244  124  125 1    
   245  124  244 1    
   246  124  245 1    
   247  125  126 1    
   248  126  246 1    
   249  126  247 1    
@<TRIPOS>SUBSTRUCTURE
     1 UNK         1 GROUP             0       ****    0 ROOT    
