@<TRIPOS>MOLECULE
3R540
247   249    1
SMALL
USER_CHARGES


@<TRIPOS>ATOM
      1 CA          1.0466  -11.1521  -45.0758 C.3       0 UNK        -0.1800 
      2 C           2.3475  -11.2184  -45.8627 C.2       0 UNK         0.5000 
      3 O           3.4209  -11.0252  -45.2922 O.2       0 UNK        -0.5000 
      4 N           2.2663  -11.5214  -47.1659 N.am      1 UNK        -0.5000 
      5 CA          3.4087  -11.6499  -48.0869 C.3       1 UNK         0.1400 
      6 C6          2.9697  -11.6368  -49.5736 C.3       23 UNK        -0.0398 
      7 S7          1.6979  -12.8785  -49.9936 S.3       23 UNK        -0.2404 
      8 C8          2.6957  -14.1235  -50.8688 C.3       23 UNK        -0.0205 
      9 C9          1.8670  -15.3564  -51.1897 C.ar      23 UNK        -0.0193 
     10 C10         1.4864  -15.6461  -52.5049 C.ar      23 UNK        -0.1150 
     11 C11         0.7215  -16.7840  -52.7855 C.ar      23 UNK        -0.0193 
     12 C12         0.3300  -17.6260  -51.7409 C.ar      23 UNK        -0.1150 
     13 C13         0.6963  -17.3375  -50.4250 C.ar      23 UNK        -0.0193 
     14 C14         1.4752  -16.2106  -50.1562 C.ar      23 UNK        -0.1150 
     15 C15         0.2231  -18.2175  -49.2859 C.3       23 UNK        -0.0205 
     16 S16         1.3955  -19.5698  -48.9472 S.3       23 UNK        -0.2404 
     17 C17         1.0337  -19.8805  -47.1831 C.3       23 UNK        -0.0398 
     18 CA         -0.0071  -20.9799  -46.8358 C.3       11 UNK         0.1400 
     19 N          -0.3988  -20.8728  -45.4290 N.am      11 UNK        -0.5000 
     20 C          -1.1926  -21.7183  -44.7600 C.2       10 UNK         0.5000 
     21 O          -1.6590  -22.7503  -45.2407 O.2       10 UNK        -0.5000 
     22 CA         -1.5760  -21.3017  -43.3286 C.3       10 UNK         0.1400 
     23 CB         -0.4293  -21.5866  -42.3474 C.3       10 UNK        -0.1800 
     24 N          -1.9597  -19.8902  -43.2442 N.am      10 UNK        -0.5000 
     25 C          -3.0222  -19.3592  -43.8677 C.2       9 UNK         0.5000 
     26 O          -3.8140  -20.0151  -44.5451 O.2       9 UNK        -0.5000 
     27 CA         -3.2123  -17.8361  -43.7499 C.3       9 UNK         0.1400 
     28 CB         -3.8266  -17.4655  -42.3918 C.3       9 UNK        -0.1800 
     29 N          -1.9692  -17.0899  -43.9494 N.am      9 UNK        -0.5000 
     30 C          -1.2638  -17.0760  -45.0893 C.2       8 UNK         0.5000 
     31 O          -1.6025  -17.6689  -46.1115 O.2       8 UNK        -0.5000 
     32 CA          0.0785  -16.3261  -45.0726 C.3       8 UNK         0.1400 
     33 CB         -0.1220  -14.8127  -45.2406 C.3       8 UNK        -0.1800 
     34 N           0.8528  -16.5963  -43.8626 N.am      8 UNK        -0.5000 
     35 C           1.3185  -17.8038  -43.5100 C.2       7 UNK         0.5000 
     36 O           1.1651  -18.8240  -44.1795 O.2       7 UNK        -0.5000 
     37 CA          2.0317  -17.8971  -42.1535 C.3       7 UNK         0.1400 
     38 CB          3.4802  -17.3972  -42.2622 C.3       7 UNK        -0.1800 
     39 N           1.3165  -17.1537  -41.1169 N.am      7 UNK        -0.5000 
     40 C           0.1023  -17.4863  -40.6533 C.2       6 UNK         0.5000 
     41 O          -0.5219  -18.4843  -41.0150 O.2       6 UNK        -0.5000 
     42 CA         -0.5399  -16.5089  -39.6533 C.3       6 UNK         0.1400 
     43 CB         -0.0184  -16.7647  -38.2314 C.3       6 UNK        -0.1800 
     44 N          -0.3037  -15.1102  -40.0150 N.am      6 UNK        -0.5000 
     45 C          -0.8104  -14.5151  -41.1045 C.2       5 UNK         0.5000 
     46 O          -1.5599  -15.0747  -41.9034 O.2       5 UNK        -0.5000 
     47 CA         -0.3625  -13.0670  -41.3698 C.3       5 UNK         0.1400 
     48 CB         -1.2413  -12.0750  -40.5940 C.3       5 UNK        -0.1800 
     49 N           1.0458  -12.8403  -41.0342 N.am      5 UNK        -0.5000 
     50 C           2.0720  -13.4038  -41.6827 C.2       4 UNK         0.5000 
     51 O           1.9408  -14.1827  -42.6312 O.2       4 UNK        -0.5000 
     52 CA          3.4764  -13.0665  -41.1735 C.3       4 UNK         0.1400 
     53 CB          3.9475  -14.0941  -40.1290 C.3       4 UNK        -0.1800 
     54 N           4.3706  -13.0464  -42.3228 N.am      4 UNK        -0.5000 
     55 C           5.5650  -12.4492  -42.3808 C.2       3 UNK         0.5000 
     56 O           6.1085  -11.9266  -41.4062 O.2       3 UNK        -0.5000 
     57 CA          6.2451  -12.3619  -43.7615 C.3       3 UNK         0.1400 
     58 CB          7.7484  -12.7077  -43.7149 C.3       3 UNK        -0.1800 
     59 N           5.5301  -13.0780  -44.8267 N.am      3 UNK        -0.5000 
     60 C           5.5428  -14.3863  -45.1292 C.2       2 UNK         0.5000 
     61 O           6.1971  -15.2249  -44.5104 O.2       2 UNK        -0.5000 
     62 CA          4.6588  -14.8513  -46.3125 C.3       2 UNK         0.1400 
     63 CB          3.6869  -15.9524  -45.8638 C.3       2 UNK        -0.1800 
     64 N           3.8765  -13.7691  -46.9152 N.am      2 UNK        -0.5000 
     65 C           4.3430  -12.8411  -47.7627 C.2       1 UNK         0.5000 
     66 O           5.4757  -12.8716  -48.2441 O.2       1 UNK        -0.5000 
     67 C          -1.2440  -20.9906  -47.7614 C.2       11 UNK         0.5000 
     68 O          -1.3588  -21.8778  -48.6061 O.2       11 UNK        -0.5000 
     69 N          -2.1627  -20.0345  -47.5617 N.am      12 UNK        -0.5000 
     70 CA         -3.3963  -19.8934  -48.3357 C.3       12 UNK         0.1400 
     71 CB         -4.0868  -18.5717  -47.9697 C.3       12 UNK        -0.1800 
     72 C          -4.3648  -21.0766  -48.1700 C.2       12 UNK         0.5000 
     73 O          -5.0637  -21.4086  -49.1239 O.2       12 UNK        -0.5000 
     74 N          -4.3806  -21.6999  -46.9842 N.am      13 UNK        -0.5000 
     75 CA         -5.1378  -22.9199  -46.7078 C.3       13 UNK         0.1400 
     76 CB         -5.2862  -23.0953  -45.1891 C.3       13 UNK        -0.1800 
     77 C          -4.4907  -24.1658  -47.3423 C.2       13 UNK         0.5000 
     78 O          -5.2027  -25.0177  -47.8741 O.2       13 UNK        -0.5000 
     79 N          -3.1554  -24.2529  -47.2765 N.am      14 UNK        -0.5000 
     80 CA         -2.3668  -25.3689  -47.8022 C.3       14 UNK         0.1400 
     81 CB         -0.9608  -25.3206  -47.1855 C.3       14 UNK        -0.1800 
     82 C          -2.2711  -25.4001  -49.3394 C.2       14 UNK         0.5000 
     83 O          -2.0398  -26.4736  -49.8977 O.2       14 UNK        -0.5000 
     84 N          -2.4234  -24.2347  -49.9848 N.am      15 UNK        -0.5000 
     85 CA         -2.2862  -23.9885  -51.4222 C.3       15 UNK         0.1400 
     86 CB         -2.7512  -22.5586  -51.7273 C.3       15 UNK        -0.1800 
     87 C          -3.0329  -25.0059  -52.3060 C.2       15 UNK         0.5000 
     88 O          -4.2653  -25.0663  -52.2723 O.2       15 UNK        -0.5000 
     89 N          -2.2560  -25.8133  -53.0432 N.am      16 UNK        -0.5000 
     90 CA         -2.6776  -26.8990  -53.9405 C.3       16 UNK         0.1400 
     91 CB         -3.4704  -26.3260  -55.1335 C.3       16 UNK        -0.1800 
     92 C          -3.4455  -28.0475  -53.2456 C.2       16 UNK         0.5000 
     93 O          -4.0755  -28.8515  -53.9338 O.2       16 UNK        -0.5000 
     94 N          -3.4098  -28.0896  -51.9032 N.am      17 UNK        -0.5000 
     95 CA         -4.2018  -28.9449  -51.0104 C.3       17 UNK         0.1400 
     96 CB         -3.7979  -30.4257  -51.1654 C.3       17 UNK        -0.1800 
     97 C          -5.7284  -28.7250  -51.1372 C.2       17 UNK         0.5000 
     98 O          -6.5045  -29.5992  -50.7475 O.2       17 UNK        -0.5000 
     99 N          -6.1320  -27.5685  -51.6805 N.am      18 UNK        -0.5000 
    100 CA        -7.5173  -27.2190  -52.0016 C.3       18 UNK         0.1400 
    101 CB        -7.7233  -27.4006  -53.5162 C.3       18 UNK        -0.1800 
    102 C         -7.8762  -25.7877  -51.5618 C.2       18 UNK         0.5000 
    103 O         -8.9874  -25.3359  -51.8417 O.2       18 UNK        -0.5000 
    104 N         -6.9339  -25.0987  -50.9022 N.am      19 UNK        -0.5000 
    105 CA        -6.9684  -23.6889  -50.5083 C.3       19 UNK         0.1400 
    106 CB        -8.0238  -23.4441  -49.4096 C.3       19 UNK        -0.1800 
    107 C         -7.1117  -22.7447  -51.7215 C.2       19 UNK         0.5000 
    108 O         -7.9549  -21.8447  -51.7201 O.2       19 UNK        -0.5000 
    109 N         -6.3095  -23.0089  -52.7616 N.am      20 UNK        -0.5000 
    110 CA        -6.2999  -22.2727  -54.0244 C.3       20 UNK         0.1400 
    111 CB        -5.4219  -23.0308  -55.0314 C.3       20 UNK        -0.1800 
    112 C         -5.8057  -20.8224  -53.8672 C.2       20 UNK         0.5000 
    113 O         -4.8806  -20.5614  -53.0953 O.2       20 UNK        -0.5000 
    114 N         -6.3916  -19.9066  -54.6472 N.am      21 UNK        -0.5000 
    115 CA        -6.0174  -18.4921  -54.7126 C.3       21 UNK         0.1400 
    116 CB        -7.2381  -17.6806  -55.1840 C.3       21 UNK        -0.1800 
    117 C         -4.7778  -18.2845  -55.6091 C.2       21 UNK         0.5000 
    118 O         -4.8665  -17.6254  -56.6473 O.2       21 UNK        -0.5000 
    119 N         -3.6534  -18.8817  -55.1952 N.am      22 UNK        -0.5000 
    120 CA        -2.3690  -18.9439  -55.9157 C.3       22 UNK         0.1400 
    121 C         -2.4401  -19.7851  -57.2307 C.2       22 UNK         0.5000 
    122 N         -1.4060  -19.7687  -58.0625 N.am      22 UNK        -0.7600 
    123 O         -3.4035  -20.5032  -57.4914 O.2       22 UNK        -0.5000 
    124 C124       -1.7065  -17.5453  -56.1070 C.3       23 UNK        -0.0398 
    125 S125       -1.4221  -16.6794  -54.5250 S.3       23 UNK        -0.2404 
    126 C126        0.3157  -17.1182  -54.2115 C.3       23 UNK        -0.0205 
    127 H127        0.9058  -10.1516  -44.6673 H         1 UNK         0.0600 
    128 H128        0.1839  -11.3927  -45.6973 H         1 UNK         0.0600 
    129 H129        1.0752  -11.8587  -44.2468 H         1 UNK         0.0600 
    130 H130        1.3605  -11.6828  -47.5847 H         1 UNK         0.3000 
    131 H131        4.0227  -10.7588  -47.9389 H         1 UNK         0.0600 
    132 H132        2.5506  -10.6575  -49.8082 H         1 UNK         0.0800 
    133 H133        3.8306  -11.7436  -50.2363 H         1 UNK         0.0800 
    134 H134        3.1053  -13.6846  -51.7799 H         1 UNK         0.0800 
    135 H135        3.5469  -14.4154  -50.2519 H         1 UNK         0.0800 
    136 H136        1.7846  -14.9878  -53.3089 H         1 UNK         0.1150 
    137 H137       -0.2712  -18.4995  -51.9522 H         1 UNK         0.1150 
    138 H138        1.7610  -15.9842  -49.1382 H         1 UNK         0.1150 
    139 H139        0.0755  -17.6001  -48.3990 H         1 UNK         0.0800 
    140 H140       -0.7537  -18.6363  -49.5287 H         1 UNK         0.0800 
    141 H141        0.7304  -18.9348  -46.7384 H         1 UNK         0.0800 
    142 H142        1.9782  -20.1254  -46.6956 H         1 UNK         0.0800 
    143 H143        0.4833  -21.9475  -46.9597 H         1 UNK         0.0600 
    144 H144       -0.0304  -20.0667  -44.9298 H         1 UNK         0.3000 
    145 H145       -2.4375  -21.9015  -43.0281 H         1 UNK         0.0600 
    146 H146       -0.7273  -21.3694  -41.3215 H         1 UNK         0.0600 
    147 H147       -0.1336  -22.6357  -42.3858 H         1 UNK         0.0600 
    148 H148        0.4532  -20.9868  -42.5714 H         1 UNK         0.0600 
    149 H149       -1.3733  -19.2909  -42.6719 H         1 UNK         0.3000 
    150 H150       -3.9107  -17.5295  -44.5311 H         1 UNK         0.0600 
    151 H151       -4.7611  -18.0027  -42.2255 H         1 UNK         0.0600 
    152 H152       -4.0501  -16.3999  -42.3391 H         1 UNK         0.0600 
    153 H153       -3.1563  -17.7069  -41.5665 H         1 UNK         0.0600 
    154 H154       -1.6446  -16.5299  -43.1661 H         1 UNK         0.3000 
    155 H155        0.6636  -16.6787  -45.9235 H         1 UNK         0.0600 
    156 H156       -0.6929  -14.3867  -44.4159 H         1 UNK         0.0600 
    157 H157       -0.6608  -14.5910  -46.1626 H         1 UNK         0.0600 
    158 H158        0.8337  -14.2917  -45.2890 H         1 UNK         0.0600 
    159 H159        1.0637  -15.7982  -43.2710 H         1 UNK         0.3000 
    160 H160        2.0567  -18.9486  -41.8595 H         1 UNK         0.0600 
    161 H161        4.0048  -17.4965  -41.3120 H         1 UNK         0.0600 
    162 H162        3.5308  -16.3525  -42.5695 H         1 UNK         0.0600 
    163 H163        4.0355  -17.9774  -43.0002 H         1 UNK         0.0600 
    164 H164        1.7406  -16.2984  -40.7934 H         1 UNK         0.3000 
    165 H165       -1.6176  -16.6854  -39.6595 H         1 UNK         0.0600 
    166 H166       -0.5234  -16.1267  -37.5060 H         1 UNK         0.0600 
    167 H167       -0.1952  -17.7986  -37.9318 H         1 UNK         0.0600 
    168 H168        1.0536  -16.5789  -38.1536 H         1 UNK         0.0600 
    169 H169        0.3012  -14.5754  -39.4098 H         1 UNK         0.3000 
    170 H170       -0.4918  -12.8714  -42.4362 H         1 UNK         0.0600 
    171 H171       -2.2951  -12.2128  -40.8402 H         1 UNK         0.0600 
    172 H172       -1.1369  -12.1995  -39.5155 H         1 UNK         0.0600 
    173 H173       -0.9838  -11.0447  -40.8402 H         1 UNK         0.0600 
    174 H174        1.2315  -12.2123  -40.2652 H         1 UNK         0.3000 
    175 H175        3.4552  -12.0717  -40.7237 H         1 UNK         0.0600 
    176 H176        4.9197  -13.8229  -39.7176 H         1 UNK         0.0600 
    177 H177        3.2499  -14.1534  -39.2928 H         1 UNK         0.0600 
    178 H178        4.0366  -15.0920  -40.5562 H         1 UNK         0.0600 
    179 H179        3.9728  -13.4379  -43.1664 H         1 UNK         0.3000 
    180 H180        6.1757  -11.3105  -44.0438 H         1 UNK         0.0600 
    181 H181        7.9257  -13.7064  -43.3158 H         1 UNK         0.0600 
    182 H182        8.2873  -12.0076  -43.0755 H         1 UNK         0.0600 
    183 H183        8.1991  -12.6530  -44.7058 H         1 UNK         0.0600 
    184 H184        4.8997  -12.4863  -45.3566 H         1 UNK         0.3000 
    185 H185        5.3231  -15.2694  -47.0715 H         1 UNK         0.0600 
    186 H186        3.0606  -16.2931  -46.6885 H         1 UNK         0.0600 
    187 H187        4.2218  -16.8232  -45.4830 H         1 UNK         0.0600 
    188 H188        3.0373  -15.5931  -45.0670 H         1 UNK         0.0600 
    189 H189        2.9321  -13.6572  -46.5781 H         1 UNK         0.3000 
    190 H190       -1.9843  -19.3114  -46.8682 H         1 UNK         0.3000 
    191 H191       -3.1192  -19.8483  -49.3911 H         1 UNK         0.0600 
    192 H192       -4.3460  -18.5345  -46.9113 H         1 UNK         0.0600 
    193 H193       -5.0073  -18.4397  -48.5398 H         1 UNK         0.0600 
    194 H194       -3.4446  -17.7184  -48.1885 H         1 UNK         0.0600 
    195 H195       -3.8273  -21.3182  -46.2252 H         1 UNK         0.3000 
    196 H196       -6.1379  -22.8096  -47.1313 H         1 UNK         0.0600 
    197 H197       -4.3184  -23.1935  -44.6965 H         1 UNK         0.0600 
    198 H198       -5.8677  -23.9875  -44.9540 H         1 UNK         0.0600 
    199 H199       -5.8009  -22.2436  -44.7438 H         1 UNK         0.0600 
    200 H200       -2.6417  -23.5342  -46.7753 H         1 UNK         0.3000 
    201 H201       -2.8425  -26.3000  -47.4872 H         1 UNK         0.0600 
    202 H202       -0.4432  -24.3952  -47.4412 H         1 UNK         0.0600 
    203 H203       -0.3474  -26.1504  -47.5390 H         1 UNK         0.0600 
    204 H204       -1.0048  -25.3897  -46.0984 H         1 UNK         0.0600 
    205 H205       -2.5193  -23.4051  -49.4102 H         1 UNK         0.3000 
    206 H206       -1.2208  -24.0454  -51.6520 H         1 UNK         0.0600 
    207 H207       -2.1278  -21.8209  -51.2225 H         1 UNK         0.0600 
    208 H208       -2.7019  -22.3463  -52.7960 H         1 UNK         0.0600 
    209 H209       -3.7806  -22.3980  -51.4063 H         1 UNK         0.0600 
    210 H210       -1.2548  -25.7040  -52.9588 H         1 UNK         0.3000 
    211 H211       -1.7611  -27.3420  -54.3323 H         1 UNK         0.0600 
    212 H212       -2.9437  -25.4925  -55.5982 H         1 UNK         0.0600 
    213 H213       -3.6215  -27.0827  -55.9041 H         1 UNK         0.0600 
    214 H214       -4.4556  -25.9739  -54.8279 H         1 UNK         0.0600 
    215 H215       -2.8455  -27.3946  -51.4211 H         1 UNK         0.3000 
    216 H216       -3.9412  -28.6387  -49.9964 H         1 UNK         0.0600 
    217 H217       -2.7193  -30.5516  -51.0718 H         1 UNK         0.0600 
    218 H218       -4.2623  -31.0411  -50.3941 H         1 UNK         0.0600 
    219 H219       -4.1012  -30.8308  -52.1310 H         1 UNK         0.0600 
    220 H220       -5.4248  -26.9074  -51.9816 H         1 UNK         0.3000 
    221 H221       -8.2069  -27.8816  -51.4751 H         1 UNK         0.0600 
    222 H222       -7.0781  -26.7333  -54.0893 H         1 UNK         0.0600 
    223 H223       -7.5026  -28.4231  -53.8235 H         1 UNK         0.0600 
    224 H224       -8.7543  -27.1917  -53.8040 H         1 UNK         0.0600 
    225 H225       -6.0530  -25.5611  -50.7276 H         1 UNK         0.3000 
    226 H226       -5.9862  -23.4953  -50.0821 H         1 UNK         0.0600 
    227 H227       -7.8794  -24.1212  -48.5679 H         1 UNK         0.0600 
    228 H228       -7.9505  -22.4264  -49.0247 H         1 UNK         0.0600 
    229 H229       -9.0392  -23.5820  -49.7817 H         1 UNK         0.0600 
    230 H230       -5.6270  -23.7549  -52.6627 H         1 UNK         0.3000 
    231 H231       -7.3230  -22.2523  -54.4053 H         1 UNK         0.0600 
    232 H232       -5.8223  -24.0250  -55.2286 H         1 UNK         0.0600 
    233 H233       -4.3997  -23.1447  -54.6682 H         1 UNK         0.0600 
    234 H234       -5.3734  -22.5053  -55.9862 H         1 UNK         0.0600 
    235 H235       -7.1114  -20.2026  -55.2906 H         1 UNK         0.3000 
    236 H236       -5.7573  -18.1430  -53.7108 H         1 UNK         0.0600 
    237 H237       -7.5656  -17.9835  -56.1793 H         1 UNK         0.0600 
    238 H238       -8.0798  -17.8039  -54.5022 H         1 UNK         0.0600 
    239 H239       -7.0075  -16.6152  -55.2229 H         1 UNK         0.0600 
    240 H240       -3.7150  -19.4410  -54.3513 H         1 UNK         0.3000 
    241 H241       -1.7165  -19.5250  -55.2633 H         1 UNK         0.0600 
    242 H242       -1.4515  -20.3291  -58.8998 H         1 UNK         0.3800 
    243 H243       -0.5760  -19.2277  -57.8796 H         1 UNK         0.3800 
    244 H244       -0.7489  -17.6278  -56.6216 H         1 UNK         0.0800 
    245 H245       -2.3261  -16.9103  -56.7409 H         1 UNK         0.0800 
    246 H246        0.9556  -16.5983  -54.9262 H         1 UNK         0.0800 
    247 H247        0.4613  -18.1858  -54.3837 H         1 UNK         0.0800 
@<TRIPOS>BOND
     1    1    2 1    
     2    1  127 1    
     3    1  128 1    
     4    1  129 1    
     5    2    3 2    
     6    2    4 am   BACKBONE|DICT|INTERRES
     7    4    5 1    
     8    4  130 1    
     9    5    6 1    
    10    5   65 1    
    11    5  131 1    
    12    6    7 1    
    13    6  132 1    
    14    6  133 1    
    15    7    8 1    
    16    8    9 1    
    17    8  134 1    
    18    8  135 1    
    19    9   10 ar   
    20    9   14 ar   
    21   10   11 ar   
    22   10  136 1    
    23   11   12 ar   
    24   11  126 1    
    25   12   13 ar   
    26   12  137 1    
    27   13   14 ar   
    28   13   15 1    
    29   14  138 1    
    30   15   16 1    
    31   15  139 1    
    32   15  140 1    
    33   16   17 1    
    34   17   18 1    
    35   17  141 1    
    36   17  142 1    
    37   18   19 1    
    38   18   67 1    
    39   18  143 1    
    40   19   20 am   BACKBONE|DICT|INTERRES
    41   19  144 1    
    42   20   21 2    
    43   20   22 1    
    44   22   23 1    
    45   22   24 1    
    46   22  145 1    
    47   23  146 1    
    48   23  147 1    
    49   23  148 1    
    50   24   25 am   BACKBONE|DICT|INTERRES
    51   24  149 1    
    52   25   26 2    
    53   25   27 1    
    54   27   28 1    
    55   27   29 1    
    56   27  150 1    
    57   28  151 1    
    58   28  152 1    
    59   28  153 1    
    60   29   30 am   BACKBONE|DICT|INTERRES
    61   29  154 1    
    62   30   31 2    
    63   30   32 1    
    64   32   33 1    
    65   32   34 1    
    66   32  155 1    
    67   33  156 1    
    68   33  157 1    
    69   33  158 1    
    70   34   35 am   BACKBONE|DICT|INTERRES
    71   34  159 1    
    72   35   36 2    
    73   35   37 1    
    74   37   38 1    
    75   37   39 1    
    76   37  160 1    
    77   38  161 1    
    78   38  162 1    
    79   38  163 1    
    80   39   40 am   BACKBONE|DICT|INTERRES
    81   39  164 1    
    82   40   41 2    
    83   40   42 1    
    84   42   43 1    
    85   42   44 1    
    86   42  165 1    
    87   43  166 1    
    88   43  167 1    
    89   43  168 1    
    90   44   45 am   BACKBONE|DICT|INTERRES
    91   44  169 1    
    92   45   46 2    
    93   45   47 1    
    94   47   48 1    
    95   47   49 1    
    96   47  170 1    
    97   48  171 1    
    98   48  172 1    
    99   48  173 1    
   100   49   50 am   BACKBONE|DICT|INTERRES
   101   49  174 1    
   102   50   51 2    
   103   50   52 1    
   104   52   53 1    
   105   52   54 1    
   106   52  175 1    
   107   53  176 1    
   108   53  177 1    
   109   53  178 1    
   110   54   55 am   BACKBONE|DICT|INTERRES
   111   54  179 1    
   112   55   56 2    
   113   55   57 1    
   114   57   58 1    
   115   57   59 1    
   116   57  180 1    
   117   58  181 1    
   118   58  182 1    
   119   58  183 1    
   120   59   60 am   BACKBONE|DICT|INTERRES
   121   59  184 1    
   122   60   61 2    
   123   60   62 1    
   124   62   63 1    
   125   62   64 1    
   126   62  185 1    
   127   63  186 1    
   128   63  187 1    
   129   63  188 1    
   130   64   65 am   BACKBONE|DICT|INTERRES
   131   64  189 1    
   132   65   66 2    
   133   67   68 2    
   134   67   69 am   BACKBONE|DICT|INTERRES
   135   69   70 1    
   136   69  190 1    
   137   70   71 1    
   138   70   72 1    
   139   70  191 1    
   140   71  192 1    
   141   71  193 1    
   142   71  194 1    
   143   72   73 2    
   144   72   74 am   BACKBONE|DICT|INTERRES
   145   74   75 1    
   146   74  195 1    
   147   75   76 1    
   148   75   77 1    
   149   75  196 1    
   150   76  197 1    
   151   76  198 1    
   152   76  199 1    
   153   77   78 2    
   154   77   79 am   BACKBONE|DICT|INTERRES
   155   79   80 1    
   156   79  200 1    
   157   80   81 1    
   158   80   82 1    
   159   80  201 1    
   160   81  202 1    
   161   81  203 1    
   162   81  204 1    
   163   82   83 2    
   164   82   84 am   BACKBONE|DICT|INTERRES
   165   84   85 1    
   166   84  205 1    
   167   85   86 1    
   168   85   87 1    
   169   85  206 1    
   170   86  207 1    
   171   86  208 1    
   172   86  209 1    
   173   87   88 2    
   174   87   89 am   BACKBONE|DICT|INTERRES
   175   89   90 1    
   176   89  210 1    
   177   90   91 1    
   178   90   92 1    
   179   90  211 1    
   180   91  212 1    
   181   91  213 1    
   182   91  214 1    
   183   92   93 2    
   184   92   94 am   BACKBONE|DICT|INTERRES
   185   94   95 1    
   186   94  215 1    
   187   95   96 1    
   188   95   97 1    
   189   95  216 1    
   190   96  217 1    
   191   96  218 1    
   192   96  219 1    
   193   97   98 2    
   194   97   99 am   BACKBONE|DICT|INTERRES
   195   99  100 1    
   196   99  220 1    
   197  100  101 1    
   198  100  102 1    
   199  100  221 1    
   200  101  222 1    
   201  101  223 1    
   202  101  224 1    
   203  102  103 2    
   204  102  104 am   BACKBONE|DICT|INTERRES
   205  104  105 1    
   206  104  225 1    
   207  105  106 1    
   208  105  107 1    
   209  105  226 1    
   210  106  227 1    
   211  106  228 1    
   212  106  229 1    
   213  107  108 2    
   214  107  109 am   BACKBONE|DICT|INTERRES
   215  109  110 1    
   216  109  230 1    
   217  110  111 1    
   218  110  112 1    
   219  110  231 1    
   220  111  232 1    
   221  111  233 1    
   222  111  234 1    
   223  112  113 2    
   224  112  114 am   BACKBONE|DICT|INTERRES
   225  114  115 1    
   226  114  235 1    
   227  115  116 1    
   228  115  117 1    
   229  115  236 1    
   230  116  237 1    
   231  116  238 1    
   232  116  239 1    
   233  117  118 2    
   234  117  119 am   BACKBONE|DICT|INTERRES
   235  119  120 1    
   236  119  240 1    
   237  120  121 1    
   238  120  124 1    
   239  120  241 1    
   240  121  122 am   BACKBONE|DICT|INTERRES
   241  121  123 2    
   242  122  242 1    
   243  122  243 1    
   244  124  125 1    
   245  124  244 1    
   246  124  245 1    
   247  125  126 1    
   248  126  246 1    
   249  126  247 1    
@<TRIPOS>SUBSTRUCTURE
     1 UNK         1 GROUP             0       ****    0 ROOT    
