@<TRIPOS>MOLECULE
3R540
247   249    1
SMALL
USER_CHARGES


@<TRIPOS>ATOM
      1 CA         -2.1545   -9.1129  -50.1292 C.3       0 UNK        -0.1800 
      2 C          -2.2460  -10.6115  -49.8778 C.2       0 UNK         0.5000 
      3 O          -2.7688  -11.3430  -50.7191 O.2       0 UNK        -0.5000 
      4 N          -1.7515  -11.0663  -48.7209 N.am      1 UNK        -0.5000 
      5 CA         -1.7062  -12.4784  -48.3317 C.3       1 UNK         0.1400 
      6 C6         -1.5896  -12.6556  -46.7938 C.3       23 UNK        -0.0398 
      7 S7         -2.8547  -11.8218  -45.7681 S.3       23 UNK        -0.2404 
      8 C8         -4.4442  -12.1796  -46.5930 C.3       23 UNK        -0.0205 
      9 C9         -4.6631  -13.6585  -46.8895 C.ar      23 UNK        -0.0193 
     10 C10        -4.9078  -14.0677  -48.2036 C.ar      23 UNK        -0.1150 
     11 C11        -5.0653  -15.4191  -48.5121 C.ar      23 UNK        -0.0193 
     12 C12        -5.0194  -16.3651  -47.4864 C.ar      23 UNK        -0.1150 
     13 C13        -4.7944  -15.9716  -46.1648 C.ar      23 UNK        -0.0193 
     14 C14        -4.6193  -14.6157  -45.8693 C.ar      23 UNK        -0.1150 
     15 C15        -4.7338  -17.0226  -45.0696 C.3       23 UNK        -0.0205 
     16 S16        -3.0437  -17.6680  -44.8707 S.3       23 UNK        -0.2404 
     17 C17        -3.3812  -19.3116  -44.1503 C.3       23 UNK        -0.0398 
     18 CA         -3.0761  -20.4405  -45.1638 C.3       11 UNK         0.1400 
     19 N          -1.6477  -20.5217  -45.4664 N.am      11 UNK        -0.5000 
     20 C          -1.1335  -21.0530  -46.5801 C.2       10 UNK         0.5000 
     21 O          -1.8097  -21.5458  -47.4809 O.2       10 UNK        -0.5000 
     22 CA          0.4004  -21.0557  -46.6846 C.3       10 UNK         0.1400 
     23 CB          0.9086  -19.7059  -47.2098 C.3       10 UNK        -0.1800 
     24 N           1.0264  -21.3888  -45.4025 N.am      10 UNK        -0.5000 
     25 C           1.0100  -22.6318  -44.8974 C.2       9 UNK         0.5000 
     26 O           0.5062  -23.5901  -45.4840 O.2       9 UNK        -0.5000 
     27 CA          1.6290  -22.8695  -43.5061 C.3       9 UNK         0.1400 
     28 CB          3.0712  -23.3781  -43.6462 C.3       9 UNK        -0.1800 
     29 N           1.6075  -21.7293  -42.5856 N.am      9 UNK        -0.5000 
     30 C           0.5192  -21.0543  -42.1935 C.2       8 UNK         0.5000 
     31 O          -0.6008  -21.2375  -42.6734 O.2       8 UNK        -0.5000 
     32 CA          0.6916  -20.0022  -41.0856 C.3       8 UNK         0.1400 
     33 CB          2.1558  -19.6374  -40.7656 C.3       8 UNK        -0.1800 
     34 N          -0.0280  -18.8043  -41.4914 N.am      8 UNK        -0.5000 
     35 C          -0.8229  -18.0555  -40.7185 C.2       7 UNK         0.5000 
     36 O          -1.0343  -18.2936  -39.5281 O.2       7 UNK        -0.5000 
     37 CA         -1.5143  -16.8478  -41.3944 C.3       7 UNK         0.1400 
     38 CB         -1.6712  -15.6411  -40.4460 C.3       7 UNK        -0.1800 
     39 N          -0.8908  -16.4473  -42.6630 N.am      7 UNK        -0.5000 
     40 C           0.3536  -15.9841  -42.8423 C.2       6 UNK         0.5000 
     41 O           1.1427  -15.7262  -41.9307 O.2       6 UNK        -0.5000 
     42 CA          0.8016  -15.8122  -44.3025 C.3       6 UNK         0.1400 
     43 CB          0.8686  -14.3237  -44.6747 C.3       6 UNK        -0.1800 
     44 N           2.1028  -16.4378  -44.5383 N.am      6 UNK        -0.5000 
     45 C           2.3572  -17.7496  -44.4351 C.2       5 UNK         0.5000 
     46 O           1.5029  -18.5954  -44.1526 O.2       5 UNK        -0.5000 
     47 CA          3.8036  -18.1767  -44.7352 C.3       5 UNK         0.1400 
     48 CB          4.0105  -19.7060  -44.7004 C.3       5 UNK        -0.1800 
     49 N           4.2280  -17.6175  -46.0189 N.am      5 UNK        -0.5000 
     50 C           5.4991  -17.5324  -46.4376 C.2       4 UNK         0.5000 
     51 O           6.4636  -17.9373  -45.7872 O.2       4 UNK        -0.5000 
     52 CA          5.7486  -16.8624  -47.8050 C.3       4 UNK         0.1400 
     53 CB          5.6725  -17.9031  -48.9326 C.3       4 UNK        -0.1800 
     54 N           4.8166  -15.7739  -48.0988 N.am      4 UNK        -0.5000 
     55 C           4.6791  -14.6574  -47.3724 C.2       3 UNK         0.5000 
     56 O           5.4107  -14.3701  -46.4242 O.2       3 UNK        -0.5000 
     57 CA          3.5265  -13.7006  -47.7391 C.3       3 UNK         0.1400 
     58 CB          4.0801  -12.4252  -48.3936 C.3       3 UNK        -0.1800 
     59 N           2.4609  -14.2328  -48.5982 N.am      3 UNK        -0.5000 
     60 C           1.7241  -15.3376  -48.4219 C.2       2 UNK         0.5000 
     61 O           1.9546  -16.1880  -47.5613 O.2       2 UNK        -0.5000 
     62 CA          0.4935  -15.4764  -49.3437 C.3       2 UNK         0.1400 
     63 CB         -0.0578  -16.9106  -49.3472 C.3       2 UNK        -0.1800 
     64 N          -0.5779  -14.5673  -48.9314 N.am      2 UNK        -0.5000 
     65 C          -0.5611  -13.2314  -49.0432 C.2       1 UNK         0.5000 
     66 O           0.3303  -12.6092  -49.6285 O.2       1 UNK        -0.5000 
     67 C          -3.6175  -21.7943  -44.6664 C.2       11 UNK         0.5000 
     68 O          -4.7229  -22.1778  -45.0479 O.2       11 UNK        -0.5000 
     69 N          -2.8384  -22.4812  -43.8216 N.am      12 UNK        -0.5000 
     70 CA         -3.1927  -23.7516  -43.1992 C.3       12 UNK         0.1400 
     71 CB         -2.4719  -23.8669  -41.8422 C.3       12 UNK        -0.1800 
     72 C          -2.8972  -24.9404  -44.1307 C.2       12 UNK         0.5000 
     73 O          -3.8067  -25.4240  -44.8038 O.2       12 UNK        -0.5000 
     74 N          -1.6421  -25.4102  -44.1241 N.am      13 UNK        -0.5000 
     75 CA         -1.1939  -26.6525  -44.7578 C.3       13 UNK         0.1400 
     76 CB          0.2596  -26.9376  -44.3469 C.3       13 UNK        -0.1800 
     77 C          -1.3454  -26.6760  -46.2886 C.2       13 UNK         0.5000 
     78 O          -1.8182  -27.6753  -46.8320 O.2       13 UNK        -0.5000 
     79 N          -0.9564  -25.5809  -46.9546 N.am      14 UNK        -0.5000 
     80 CA         -1.0797  -25.4288  -48.4081 C.3       14 UNK         0.1400 
     81 CB         -0.0685  -24.3829  -48.8980 C.3       14 UNK        -0.1800 
     82 C          -2.5097  -25.0592  -48.8519 C.2       14 UNK         0.5000 
     83 O          -2.8325  -25.2150  -50.0288 O.2       14 UNK        -0.5000 
     84 N          -3.3363  -24.5876  -47.9070 N.am      15 UNK        -0.5000 
     85 CA         -4.7400  -24.2005  -48.0675 C.3       15 UNK         0.1400 
     86 CB         -5.6244  -25.4442  -48.2923 C.3       15 UNK        -0.1800 
     87 C          -4.9610  -23.0748  -49.1022 C.2       15 UNK         0.5000 
     88 O          -5.9460  -23.0970  -49.8443 O.2       15 UNK        -0.5000 
     89 N          -4.0444  -22.0950  -49.1040 N.am      16 UNK        -0.5000 
     90 CA         -4.0767  -20.8280  -49.8337 C.3       16 UNK         0.1400 
     91 CB         -5.1031  -19.8862  -49.1692 C.3       16 UNK        -0.1800 
     92 C          -4.2891  -21.0071  -51.3494 C.2       16 UNK         0.5000 
     93 O          -3.3586  -21.3982  -52.0585 O.2       16 UNK        -0.5000 
     94 N          -5.5128  -20.7266  -51.8155 N.am      17 UNK        -0.5000 
     95 CA         -5.9515  -20.8228  -53.2057 C.3       17 UNK         0.1400 
     96 CB         -7.3721  -20.2506  -53.3180 C.3       17 UNK        -0.1800 
     97 C          -5.8926  -22.2461  -53.7926 C.2       17 UNK         0.5000 
     98 O          -5.8007  -22.3760  -55.0127 O.2       17 UNK        -0.5000 
     99 N          -5.9024  -23.2816  -52.9388 N.am      18 UNK        -0.5000 
    100 CA        -5.7513  -24.6831  -53.3430 C.3       18 UNK         0.1400 
    101 CB        -6.0301  -25.5929  -52.1406 C.3       18 UNK        -0.1800 
    102 C         -4.3613  -24.9895  -53.9358 C.2       18 UNK         0.5000 
    103 O         -4.2637  -25.7697  -54.8835 O.2       18 UNK        -0.5000 
    104 N         -3.3227  -24.3423  -53.3910 N.am      19 UNK        -0.5000 
    105 CA        -1.9478  -24.3860  -53.8952 C.3       19 UNK         0.1400 
    106 CB        -0.9882  -24.3597  -52.6954 C.3       19 UNK        -0.1800 
    107 C         -1.6395  -23.2154  -54.8496 C.2       19 UNK         0.5000 
    108 O         -0.5375  -23.1592  -55.3964 O.2       19 UNK        -0.5000 
    109 N         -2.5990  -22.2897  -55.0011 N.am      20 UNK        -0.5000 
    110 CA        -2.5102  -21.0032  -55.6986 C.3       20 UNK         0.1400 
    111 CB        -2.2944  -21.2040  -57.2126 C.3       20 UNK        -0.1800 
    112 C         -1.4772  -20.0489  -55.0608 C.2       20 UNK         0.5000 
    113 O         -0.9145  -19.1982  -55.7527 O.2       20 UNK        -0.5000 
    114 N         -1.2591  -20.1872  -53.7434 N.am      21 UNK        -0.5000 
    115 CA        -0.2641  -19.4384  -52.9697 C.3       21 UNK         0.1400 
    116 CB        -0.1642  -20.0453  -51.5611 C.3       21 UNK        -0.1800 
    117 C         -0.5636  -17.9293  -52.8950 C.2       21 UNK         0.5000 
    118 O          0.3645  -17.1257  -52.8022 O.2       21 UNK        -0.5000 
    119 N         -1.8537  -17.5828  -52.9635 N.am      22 UNK        -0.5000 
    120 CA        -2.3644  -16.2061  -53.0403 C.3       22 UNK         0.1400 
    121 C         -2.3785  -15.6210  -54.4853 C.2       22 UNK         0.5000 
    122 N         -1.9478  -16.3431  -55.5145 N.am      22 UNK        -0.7600 
    123 O         -2.7801  -14.4773  -54.6799 O.2       22 UNK        -0.5000 
    124 C124       -3.7536  -16.0830  -52.3608 C.3       23 UNK        -0.0398 
    125 S125       -3.6734  -16.5248  -50.5940 S.3       23 UNK        -0.2404 
    126 C126       -5.2388  -15.8549  -49.9570 C.3       23 UNK        -0.0205 
    127 H127       -1.6845   -8.5898  -49.2960 H         1 UNK         0.0600 
    128 H128       -3.1508   -8.6951  -50.2741 H         1 UNK         0.0600 
    129 H129       -1.5678   -8.9187  -51.0270 H         1 UNK         0.0600 
    130 H130       -1.3199  -10.4203  -48.0761 H         1 UNK         0.3000 
    131 H131       -2.6242  -12.9474  -48.6738 H         1 UNK         0.0600 
    132 H132       -0.6173  -12.2957  -46.4524 H         1 UNK         0.0800 
    133 H133       -1.6255  -13.7141  -46.5305 H         1 UNK         0.0800 
    134 H134       -4.5011  -11.5868  -47.5073 H         1 UNK         0.0800 
    135 H135       -5.2552  -11.8278  -45.9543 H         1 UNK         0.0800 
    136 H136       -4.9429  -13.3344  -48.9977 H         1 UNK         0.1150 
    137 H137       -5.1367  -17.4119  -47.7204 H         1 UNK         0.1150 
    138 H138       -4.4334  -14.3062  -44.8503 H         1 UNK         0.1150 
    139 H139       -5.4172  -17.8362  -45.3179 H         1 UNK         0.0800 
    140 H140       -5.0783  -16.6076  -44.1212 H         1 UNK         0.0800 
    141 H141       -2.7750  -19.4294  -43.2503 H         1 UNK         0.0800 
    142 H142       -4.4203  -19.3544  -43.8188 H         1 UNK         0.0800 
    143 H143       -3.6090  -20.2103  -46.0890 H         1 UNK         0.0600 
    144 H144       -1.0142  -20.1954  -44.7501 H         1 UNK         0.3000 
    145 H145        0.6952  -21.8136  -47.4110 H         1 UNK         0.0600 
    146 H146        0.5402  -19.5381  -48.2214 H         1 UNK         0.0600 
    147 H147        1.9963  -19.6722  -47.2560 H         1 UNK         0.0600 
    148 H148        0.5663  -18.8707  -46.5986 H         1 UNK         0.0600 
    149 H149        1.3993  -20.6233  -44.8532 H         1 UNK         0.3000 
    150 H150        1.0431  -23.6614  -43.0360 H         1 UNK         0.0600 
    151 H151        3.7246  -22.6241  -44.0857 H         1 UNK         0.0600 
    152 H152        3.1139  -24.2604  -44.2866 H         1 UNK         0.0600 
    153 H153        3.4869  -23.6621  -42.6794 H         1 UNK         0.0600 
    154 H154        2.4875  -21.4967  -42.1499 H         1 UNK         0.3000 
    155 H155        0.2354  -20.4265  -40.1893 H         1 UNK         0.0600 
    156 H156        2.2025  -18.8781  -39.9847 H         1 UNK         0.0600 
    157 H157        2.6753  -19.2397  -41.6376 H         1 UNK         0.0600 
    158 H158        2.7135  -20.5007  -40.4010 H         1 UNK         0.0600 
    159 H159        0.0910  -18.5500  -42.4645 H         1 UNK         0.3000 
    160 H160       -2.5177  -17.1893  -41.6522 H         1 UNK         0.0600 
    161 H161       -0.7098  -15.2919  -40.0689 H         1 UNK         0.0600 
    162 H162       -2.2838  -15.9002  -39.5818 H         1 UNK         0.0600 
    163 H163       -2.1591  -14.8058  -40.9483 H         1 UNK         0.0600 
    164 H164       -1.4538  -16.6322  -43.4843 H         1 UNK         0.3000 
    165 H165        0.0759  -16.2973  -44.9596 H         1 UNK         0.0600 
    166 H166        1.0448  -14.1924  -45.7408 H         1 UNK         0.0600 
    167 H167       -0.0693  -13.8203  -44.4370 H         1 UNK         0.0600 
    168 H168        1.6625  -13.8077  -44.1334 H         1 UNK         0.0600 
    169 H169        2.8627  -15.8167  -44.7694 H         1 UNK         0.3000 
    170 H170        4.4177  -17.7361  -43.9472 H         1 UNK         0.0600 
    171 H171        5.0671  -19.9674  -44.7472 H         1 UNK         0.0600 
    172 H172        3.5148  -20.1999  -45.5343 H         1 UNK         0.0600 
    173 H173        3.6251  -20.1343  -43.7762 H         1 UNK         0.0600 
    174 H174        3.4877  -17.2322  -46.6002 H         1 UNK         0.3000 
    175 H175        6.7569  -16.4435  -47.7904 H         1 UNK         0.0600 
    176 H176        6.3722  -18.7213  -48.7567 H         1 UNK         0.0600 
    177 H177        4.6745  -18.3362  -49.0132 H         1 UNK         0.0600 
    178 H178        5.9267  -17.4611  -49.8962 H         1 UNK         0.0600 
    179 H179        4.1544  -15.9324  -48.8435 H         1 UNK         0.3000 
    180 H180        3.0561  -13.4137  -46.7975 H         1 UNK         0.0600 
    181 H181        4.5289  -12.6372  -49.3648 H         1 UNK         0.0600 
    182 H182        4.8467  -11.9616  -47.7710 H         1 UNK         0.0600 
    183 H183        3.2941  -11.6840  -48.5413 H         1 UNK         0.0600 
    184 H184        2.1157  -13.5834  -49.2966 H         1 UNK         0.3000 
    185 H185        0.7993  -15.2285  -50.3624 H         1 UNK         0.0600 
    186 H186        0.7217  -17.6190  -49.6268 H         1 UNK         0.0600 
    187 H187       -0.4406  -17.2023  -48.3684 H         1 UNK         0.0600 
    188 H188       -0.8654  -17.0209  -50.0679 H         1 UNK         0.0600 
    189 H189       -1.3503  -15.0046  -48.4499 H         1 UNK         0.3000 
    190 H190       -1.9544  -22.0676  -43.5309 H         1 UNK         0.3000 
    191 H191       -4.2659  -23.7597  -42.9959 H         1 UNK         0.0600 
    192 H192       -2.8001  -23.0812  -41.1614 H         1 UNK         0.0600 
    193 H193       -2.6898  -24.8219  -41.3624 H         1 UNK         0.0600 
    194 H194       -1.3892  -23.7831  -41.9378 H         1 UNK         0.0600 
    195 H195       -0.9525  -24.9196  -43.5771 H         1 UNK         0.3000 
    196 H196       -1.8154  -27.4577  -44.3603 H         1 UNK         0.0600 
    197 H197        0.6094  -27.8764  -44.7782 H         1 UNK         0.0600 
    198 H198        0.3547  -27.0238  -43.2644 H         1 UNK         0.0600 
    199 H199        0.9374  -26.1519  -44.6819 H         1 UNK         0.0600 
    200 H200       -0.5341  -24.8124  -46.4365 H         1 UNK         0.3000 
    201 H201       -0.8246  -26.3805  -48.8792 H         1 UNK         0.0600 
    202 H202        0.0191  -24.4077  -49.9836 H         1 UNK         0.0600 
    203 H203        0.9254  -24.5610  -48.4872 H         1 UNK         0.0600 
    204 H204       -0.3741  -23.3762  -48.6244 H         1 UNK         0.0600 
    205 H205       -2.9738  -24.5210  -46.9663 H         1 UNK         0.3000 
    206 H206       -5.0420  -23.7726  -47.1121 H         1 UNK         0.0600 
    207 H207       -5.5503  -26.1266  -47.4454 H         1 UNK         0.0600 
    208 H208       -6.6756  -25.1726  -48.3946 H         1 UNK         0.0600 
    209 H209       -5.3364  -25.9977  -49.1840 H         1 UNK         0.0600 
    210 H210       -3.2473  -22.1842  -48.4774 H         1 UNK         0.3000 
    211 H211       -3.0918  -20.3753  -49.7151 H         1 UNK         0.0600 
    212 H212       -6.1072  -20.3112  -49.1498 H         1 UNK         0.0600 
    213 H213       -5.1559  -18.9303  -49.6887 H         1 UNK         0.0600 
    214 H214       -4.8183  -19.6790  -48.1383 H         1 UNK         0.0600 
    215 H215       -6.2174  -20.4554  -51.1453 H         1 UNK         0.3000 
    216 H216       -5.2848  -20.1980  -53.8031 H         1 UNK         0.0600 
    217 H217       -7.7239  -20.2750  -54.3503 H         1 UNK         0.0600 
    218 H218       -8.0822  -20.8184  -52.7154 H         1 UNK         0.0600 
    219 H219       -7.4066  -19.2116  -52.9895 H         1 UNK         0.0600 
    220 H220       -5.9730  -23.0982  -51.9426 H         1 UNK         0.3000 
    221 H221       -6.4984  -24.8937  -54.1112 H         1 UNK         0.0600 
    222 H222       -5.2779  -25.4521  -51.3657 H         1 UNK         0.0600 
    223 H223       -7.0081  -25.3910  -51.7035 H         1 UNK         0.0600 
    224 H224       -6.0094  -26.6439  -52.4311 H         1 UNK         0.0600 
    225 H225       -3.4906  -23.7228  -52.6083 H         1 UNK         0.3000 
    226 H226       -1.7773  -25.3119  -54.4480 H         1 UNK         0.0600 
    227 H227        0.0537  -24.3441  -53.0175 H         1 UNK         0.0600 
    228 H228       -1.1536  -23.4829  -52.0676 H         1 UNK         0.0600 
    229 H229       -1.1175  -25.2471  -52.0766 H         1 UNK         0.0600 
    230 H230       -3.4695  -22.4582  -54.5175 H         1 UNK         0.3000 
    231 H231       -3.4806  -20.5228  -55.5697 H         1 UNK         0.0600 
    232 H232       -1.3057  -21.6071  -57.4332 H         1 UNK         0.0600 
    233 H233       -2.3874  -20.2590  -57.7490 H         1 UNK         0.0600 
    234 H234       -3.0362  -21.8857  -57.6286 H         1 UNK         0.0600 
    235 H235       -1.8195  -20.8593  -53.2285 H         1 UNK         0.3000 
    236 H236        0.7013  -19.5607  -53.4650 H         1 UNK         0.0600 
    237 H237       -1.0829  -19.8984  -50.9929 H         1 UNK         0.0600 
    238 H238        0.0362  -21.1161  -51.6032 H         1 UNK         0.0600 
    239 H239        0.6485  -19.5872  -50.9973 H         1 UNK         0.0600 
    240 H240       -2.5398  -18.3179  -53.0373 H         1 UNK         0.3000 
    241 H241       -1.6800  -15.5633  -52.4827 H         1 UNK         0.0600 
    242 H242       -1.5792  -17.2788  -55.3931 H         1 UNK         0.3800 
    243 H243       -1.9632  -15.9362  -56.4363 H         1 UNK         0.3800 
    244 H244       -4.4882  -16.7202  -52.8556 H         1 UNK         0.0800 
    245 H245       -4.1236  -15.0592  -52.4383 H         1 UNK         0.0800 
    246 H246       -5.5656  -15.0115  -50.5668 H         1 UNK         0.0800 
    247 H247       -6.0203  -16.6121  -50.0319 H         1 UNK         0.0800 
@<TRIPOS>BOND
     1    1    2 1    
     2    1  127 1    
     3    1  128 1    
     4    1  129 1    
     5    2    3 2    
     6    2    4 am   BACKBONE|DICT|INTERRES
     7    4    5 1    
     8    4  130 1    
     9    5    6 1    
    10    5   65 1    
    11    5  131 1    
    12    6    7 1    
    13    6  132 1    
    14    6  133 1    
    15    7    8 1    
    16    8    9 1    
    17    8  134 1    
    18    8  135 1    
    19    9   10 ar   
    20    9   14 ar   
    21   10   11 ar   
    22   10  136 1    
    23   11   12 ar   
    24   11  126 1    
    25   12   13 ar   
    26   12  137 1    
    27   13   14 ar   
    28   13   15 1    
    29   14  138 1    
    30   15   16 1    
    31   15  139 1    
    32   15  140 1    
    33   16   17 1    
    34   17   18 1    
    35   17  141 1    
    36   17  142 1    
    37   18   19 1    
    38   18   67 1    
    39   18  143 1    
    40   19   20 am   BACKBONE|DICT|INTERRES
    41   19  144 1    
    42   20   21 2    
    43   20   22 1    
    44   22   23 1    
    45   22   24 1    
    46   22  145 1    
    47   23  146 1    
    48   23  147 1    
    49   23  148 1    
    50   24   25 am   BACKBONE|DICT|INTERRES
    51   24  149 1    
    52   25   26 2    
    53   25   27 1    
    54   27   28 1    
    55   27   29 1    
    56   27  150 1    
    57   28  151 1    
    58   28  152 1    
    59   28  153 1    
    60   29   30 am   BACKBONE|DICT|INTERRES
    61   29  154 1    
    62   30   31 2    
    63   30   32 1    
    64   32   33 1    
    65   32   34 1    
    66   32  155 1    
    67   33  156 1    
    68   33  157 1    
    69   33  158 1    
    70   34   35 am   BACKBONE|DICT|INTERRES
    71   34  159 1    
    72   35   36 2    
    73   35   37 1    
    74   37   38 1    
    75   37   39 1    
    76   37  160 1    
    77   38  161 1    
    78   38  162 1    
    79   38  163 1    
    80   39   40 am   BACKBONE|DICT|INTERRES
    81   39  164 1    
    82   40   41 2    
    83   40   42 1    
    84   42   43 1    
    85   42   44 1    
    86   42  165 1    
    87   43  166 1    
    88   43  167 1    
    89   43  168 1    
    90   44   45 am   BACKBONE|DICT|INTERRES
    91   44  169 1    
    92   45   46 2    
    93   45   47 1    
    94   47   48 1    
    95   47   49 1    
    96   47  170 1    
    97   48  171 1    
    98   48  172 1    
    99   48  173 1    
   100   49   50 am   BACKBONE|DICT|INTERRES
   101   49  174 1    
   102   50   51 2    
   103   50   52 1    
   104   52   53 1    
   105   52   54 1    
   106   52  175 1    
   107   53  176 1    
   108   53  177 1    
   109   53  178 1    
   110   54   55 am   BACKBONE|DICT|INTERRES
   111   54  179 1    
   112   55   56 2    
   113   55   57 1    
   114   57   58 1    
   115   57   59 1    
   116   57  180 1    
   117   58  181 1    
   118   58  182 1    
   119   58  183 1    
   120   59   60 am   BACKBONE|DICT|INTERRES
   121   59  184 1    
   122   60   61 2    
   123   60   62 1    
   124   62   63 1    
   125   62   64 1    
   126   62  185 1    
   127   63  186 1    
   128   63  187 1    
   129   63  188 1    
   130   64   65 am   BACKBONE|DICT|INTERRES
   131   64  189 1    
   132   65   66 2    
   133   67   68 2    
   134   67   69 am   BACKBONE|DICT|INTERRES
   135   69   70 1    
   136   69  190 1    
   137   70   71 1    
   138   70   72 1    
   139   70  191 1    
   140   71  192 1    
   141   71  193 1    
   142   71  194 1    
   143   72   73 2    
   144   72   74 am   BACKBONE|DICT|INTERRES
   145   74   75 1    
   146   74  195 1    
   147   75   76 1    
   148   75   77 1    
   149   75  196 1    
   150   76  197 1    
   151   76  198 1    
   152   76  199 1    
   153   77   78 2    
   154   77   79 am   BACKBONE|DICT|INTERRES
   155   79   80 1    
   156   79  200 1    
   157   80   81 1    
   158   80   82 1    
   159   80  201 1    
   160   81  202 1    
   161   81  203 1    
   162   81  204 1    
   163   82   83 2    
   164   82   84 am   BACKBONE|DICT|INTERRES
   165   84   85 1    
   166   84  205 1    
   167   85   86 1    
   168   85   87 1    
   169   85  206 1    
   170   86  207 1    
   171   86  208 1    
   172   86  209 1    
   173   87   88 2    
   174   87   89 am   BACKBONE|DICT|INTERRES
   175   89   90 1    
   176   89  210 1    
   177   90   91 1    
   178   90   92 1    
   179   90  211 1    
   180   91  212 1    
   181   91  213 1    
   182   91  214 1    
   183   92   93 2    
   184   92   94 am   BACKBONE|DICT|INTERRES
   185   94   95 1    
   186   94  215 1    
   187   95   96 1    
   188   95   97 1    
   189   95  216 1    
   190   96  217 1    
   191   96  218 1    
   192   96  219 1    
   193   97   98 2    
   194   97   99 am   BACKBONE|DICT|INTERRES
   195   99  100 1    
   196   99  220 1    
   197  100  101 1    
   198  100  102 1    
   199  100  221 1    
   200  101  222 1    
   201  101  223 1    
   202  101  224 1    
   203  102  103 2    
   204  102  104 am   BACKBONE|DICT|INTERRES
   205  104  105 1    
   206  104  225 1    
   207  105  106 1    
   208  105  107 1    
   209  105  226 1    
   210  106  227 1    
   211  106  228 1    
   212  106  229 1    
   213  107  108 2    
   214  107  109 am   BACKBONE|DICT|INTERRES
   215  109  110 1    
   216  109  230 1    
   217  110  111 1    
   218  110  112 1    
   219  110  231 1    
   220  111  232 1    
   221  111  233 1    
   222  111  234 1    
   223  112  113 2    
   224  112  114 am   BACKBONE|DICT|INTERRES
   225  114  115 1    
   226  114  235 1    
   227  115  116 1    
   228  115  117 1    
   229  115  236 1    
   230  116  237 1    
   231  116  238 1    
   232  116  239 1    
   233  117  118 2    
   234  117  119 am   BACKBONE|DICT|INTERRES
   235  119  120 1    
   236  119  240 1    
   237  120  121 1    
   238  120  124 1    
   239  120  241 1    
   240  121  122 am   BACKBONE|DICT|INTERRES
   241  121  123 2    
   242  122  242 1    
   243  122  243 1    
   244  124  125 1    
   245  124  244 1    
   246  124  245 1    
   247  125  126 1    
   248  126  246 1    
   249  126  247 1    
@<TRIPOS>SUBSTRUCTURE
     1 UNK         1 GROUP             0       ****    0 ROOT    
