@<TRIPOS>MOLECULE
3R540
247   249    1
SMALL
USER_CHARGES


@<TRIPOS>ATOM
      1 CA         -0.2037   -8.4802  -45.2830 C.3       0 UNK        -0.1800 
      2 C           0.3058   -9.5767  -46.2068 C.2       0 UNK         0.5000 
      3 O           1.4288  -10.0513  -46.0365 O.2       0 UNK        -0.5000 
      4 N          -0.5204   -9.9987  -47.1739 N.am      1 UNK        -0.5000 
      5 CA         -0.2001  -11.0291  -48.1736 C.3       1 UNK         0.1400 
      6 C6         -1.2045  -11.0234  -49.3508 C.3       23 UNK        -0.0398 
      7 S7         -2.9200  -11.4327  -48.8678 S.3       23 UNK        -0.2404 
      8 C8         -3.4279  -12.5582  -50.2084 C.3       23 UNK        -0.0205 
      9 C9         -2.6199  -13.8489  -50.2381 C.ar      23 UNK        -0.0193 
     10 C10        -1.7559  -14.1166  -51.3050 C.ar      23 UNK        -0.1150 
     11 C11        -1.0363  -15.3154  -51.3566 C.ar      23 UNK        -0.0193 
     12 C12        -1.1829  -16.2434  -50.3228 C.ar      23 UNK        -0.1150 
     13 C13        -2.0204  -15.9762  -49.2363 C.ar      23 UNK        -0.0193 
     14 C14        -2.7453  -14.7818  -49.2050 C.ar      23 UNK        -0.1150 
     15 C15        -2.1341  -16.9751  -48.0958 C.3       23 UNK        -0.0205 
     16 S16        -0.5282  -17.2255  -47.2752 S.3       23 UNK        -0.2404 
     17 C17        -1.0292  -18.0589  -45.7369 C.3       23 UNK        -0.0398 
     18 CA         -1.0513  -19.6008  -45.8930 C.3       11 UNK         0.1400 
     19 N          -0.5174  -20.2938  -44.7202 N.am      11 UNK        -0.5000 
     20 C          -0.2671  -21.6089  -44.6558 C.2       10 UNK         0.5000 
     21 O          -0.4043  -22.3800  -45.6044 O.2       10 UNK        -0.5000 
     22 CA          0.1499  -22.1618  -43.2823 C.3       10 UNK         0.1400 
     23 CB          1.6636  -22.0154  -43.0599 C.3       10 UNK        -0.1800 
     24 N          -0.5804  -21.5076  -42.1956 N.am      10 UNK        -0.5000 
     25 C          -1.8926  -21.6682  -41.9692 C.2       9 UNK         0.5000 
     26 O          -2.6070  -22.4376  -42.6122 O.2       9 UNK        -0.5000 
     27 CA         -2.5175  -20.7828  -40.8747 C.3       9 UNK         0.1400 
     28 CB         -2.2941  -21.3990  -39.4858 C.3       9 UNK        -0.1800 
     29 N          -1.9917  -19.4158  -40.8903 N.am      9 UNK        -0.5000 
     30 C          -2.1981  -18.5341  -41.8795 C.2       8 UNK         0.5000 
     31 O          -2.8953  -18.7661  -42.8657 O.2       8 UNK        -0.5000 
     32 CA         -1.4520  -17.1893  -41.7832 C.3       8 UNK         0.1400 
     33 CB         -2.2884  -16.1556  -41.0158 C.3       8 UNK        -0.1800 
     34 N          -0.1259  -17.3025  -41.1675 N.am      8 UNK        -0.5000 
     35 C           0.8780  -18.0286  -41.6745 C.2       7 UNK         0.5000 
     36 O           0.7849  -18.6872  -42.7139 O.2       7 UNK        -0.5000 
     37 CA          2.1750  -18.0807  -40.8595 C.3       7 UNK         0.1400 
     38 CB          2.0289  -19.0462  -39.6685 C.3       7 UNK        -0.1800 
     39 N           3.2427  -18.5363  -41.7394 N.am      7 UNK        -0.5000 
     40 C           4.5543  -18.3637  -41.5494 C.2       6 UNK         0.5000 
     41 O           5.0338  -17.8122  -40.5578 O.2       6 UNK        -0.5000 
     42 CA          5.4967  -18.8983  -42.6485 C.3       6 UNK         0.1400 
     43 CB          6.0798  -20.2581  -42.2329 C.3       6 UNK        -0.1800 
     44 N           4.8676  -19.0397  -43.9664 N.am      6 UNK        -0.5000 
     45 C           4.4422  -18.0206  -44.7247 C.2       5 UNK         0.5000 
     46 O           4.5278  -16.8385  -44.3834 O.2       5 UNK        -0.5000 
     47 CA          3.8200  -18.4017  -46.0799 C.3       5 UNK         0.1400 
     48 CB          2.5220  -19.1976  -45.8842 C.3       5 UNK        -0.1800 
     49 N           3.5140  -17.1923  -46.8377 N.am      5 UNK        -0.5000 
     50 C           4.0099  -16.8800  -48.0418 C.2       4 UNK         0.5000 
     51 O           4.6982  -17.6467  -48.7172 O.2       4 UNK        -0.5000 
     52 CA          3.7091  -15.4661  -48.5872 C.3       4 UNK         0.1400 
     53 CB          2.5637  -15.5202  -49.6105 C.3       4 UNK        -0.1800 
     54 N           3.3711  -14.4971  -47.5418 N.am      4 UNK        -0.5000 
     55 C           4.2004  -14.0951  -46.5650 C.2       3 UNK         0.5000 
     56 O           5.4018  -14.3668  -46.5514 O.2       3 UNK        -0.5000 
     57 CA          3.6056  -13.2716  -45.3993 C.3       3 UNK         0.1400 
     58 CB          4.2079  -11.8581  -45.3706 C.3       3 UNK        -0.1800 
     59 N           2.1451  -13.1577  -45.4199 N.am      3 UNK        -0.5000 
     60 C           1.2722  -14.1660  -45.2654 C.2       2 UNK         0.5000 
     61 O           1.6064  -15.3180  -44.9904 O.2       2 UNK        -0.5000 
     62 CA         -0.2190  -13.8470  -45.5126 C.3       2 UNK         0.1400 
     63 CB         -0.9637  -13.6940  -44.1781 C.3       2 UNK        -0.1800 
     64 N          -0.4506  -12.6509  -46.3282 N.am      2 UNK        -0.5000 
     65 C           0.0065  -12.4407  -47.5737 C.2       1 UNK         0.5000 
     66 O           0.6342  -13.2822  -48.2153 O.2       1 UNK        -0.5000 
     67 C          -2.4578  -20.1095  -46.2610 C.2       11 UNK         0.5000 
     68 O          -2.7069  -20.3996  -47.4285 O.2       11 UNK        -0.5000 
     69 N          -3.3347  -20.2566  -45.2578 N.am      12 UNK        -0.5000 
     70 CA         -4.6776  -20.8188  -45.4035 C.3       12 UNK         0.1400 
     71 CB         -5.4422  -20.6834  -44.0785 C.3       12 UNK        -0.1800 
     72 C          -4.6607  -22.2813  -45.8839 C.2       12 UNK         0.5000 
     73 O          -5.4407  -22.6350  -46.7678 O.2       12 UNK        -0.5000 
     74 N          -3.7451  -23.0901  -45.3308 N.am      13 UNK        -0.5000 
     75 CA         -3.5123  -24.4760  -45.7417 C.3       13 UNK         0.1400 
     76 CB         -2.5431  -25.1510  -44.7600 C.3       13 UNK        -0.1800 
     77 C          -3.0017  -24.5943  -47.1910 C.2       13 UNK         0.5000 
     78 O          -3.4347  -25.4938  -47.9107 O.2       13 UNK        -0.5000 
     79 N          -2.1198  -23.6720  -47.6028 N.am      14 UNK        -0.5000 
     80 CA         -1.6392  -23.5457  -48.9781 C.3       14 UNK         0.1400 
     81 CB         -0.4376  -22.5894  -49.0284 C.3       14 UNK        -0.1800 
     82 C          -2.7525  -23.0878  -49.9374 C.2       14 UNK         0.5000 
     83 O          -2.9355  -23.6918  -50.9952 O.2       14 UNK        -0.5000 
     84 N          -3.4960  -22.0461  -49.5424 N.am      15 UNK        -0.5000 
     85 CA         -4.6033  -21.4661  -50.3016 C.3       15 UNK         0.1400 
     86 CB         -5.1322  -20.2218  -49.5750 C.3       15 UNK        -0.1800 
     87 C          -5.7484  -22.4563  -50.5779 C.2       15 UNK         0.5000 
     88 O          -6.3601  -22.3816  -51.6459 O.2       15 UNK        -0.5000 
     89 N          -5.9885  -23.3819  -49.6399 N.am      16 UNK        -0.5000 
     90 CA         -6.9510  -24.4797  -49.7242 C.3       16 UNK         0.1400 
     91 CB         -7.1806  -25.0431  -48.3105 C.3       16 UNK        -0.1800 
     92 C          -6.5276  -25.5705  -50.7340 C.2       16 UNK         0.5000 
     93 O          -6.2352  -26.7021  -50.3464 O.2       16 UNK        -0.5000 
     94 N          -6.5069  -25.1968  -52.0197 N.am      17 UNK        -0.5000 
     95 CA         -6.3203  -26.0175  -53.2245 C.3       17 UNK         0.1400 
     96 CB         -7.4082  -27.1065  -53.3158 C.3       17 UNK        -0.1800 
     97 C          -4.9140  -26.6163  -53.4416 C.2       17 UNK         0.5000 
     98 O          -4.6570  -27.1136  -54.5385 O.2       17 UNK        -0.5000 
     99 N          -4.0248  -26.5602  -52.4405 N.am      18 UNK        -0.5000 
    100 CA        -2.6535  -27.0700  -52.5260 C.3       18 UNK         0.1400 
    101 CB        -2.0567  -27.1953  -51.1161 C.3       18 UNK        -0.1800 
    102 C         -1.7811  -26.1987  -53.4479 C.2       18 UNK         0.5000 
    103 O         -1.2402  -26.7000  -54.4343 O.2       18 UNK        -0.5000 
    104 N         -1.7109  -24.9002  -53.1340 N.am      19 UNK        -0.5000 
    105 CA        -1.1848  -23.8539  -54.0110 C.3       19 UNK         0.1400 
    106 CB        -0.4670  -22.7909  -53.1634 C.3       19 UNK        -0.1800 
    107 C         -2.3170  -23.2059  -54.8295 C.2       19 UNK         0.5000 
    108 O         -2.0470  -22.6965  -55.9163 O.2       19 UNK        -0.5000 
    109 N         -3.5492  -23.2600  -54.2945 N.am      20 UNK        -0.5000 
    110 CA        -4.8001  -22.7039  -54.8177 C.3       20 UNK         0.1400 
    111 CB        -5.1340  -23.2527  -56.2189 C.3       20 UNK        -0.1800 
    112 C         -4.8000  -21.1658  -54.7689 C.2       20 UNK         0.5000 
    113 O         -4.2169  -20.5144  -55.6396 O.2       20 UNK        -0.5000 
    114 N         -5.4389  -20.6231  -53.7224 N.am      21 UNK        -0.5000 
    115 CA        -5.6269  -19.2080  -53.3677 C.3       21 UNK         0.1400 
    116 CB        -6.4487  -18.4690  -54.4409 C.3       21 UNK        -0.1800 
    117 C         -4.3270  -18.4462  -53.0387 C.2       21 UNK         0.5000 
    118 O         -4.2269  -17.8401  -51.9736 O.2       21 UNK        -0.5000 
    119 N         -3.3671  -18.4961  -53.9608 N.am      22 UNK        -0.5000 
    120 CA        -2.0542  -17.8443  -53.9182 C.3       22 UNK         0.1400 
    121 C         -0.9964  -18.6068  -54.7764 C.2       22 UNK         0.5000 
    122 N         -1.3559  -19.6149  -55.5661 N.am      22 UNK        -0.7600 
    123 O          0.1932  -18.3171  -54.6975 O.2       22 UNK        -0.5000 
    124 C124       -2.1964  -16.3344  -54.2720 C.3       23 UNK        -0.0398 
    125 S125       -0.7174  -15.2641  -54.1567 S.3       23 UNK        -0.2404 
    126 C126       -0.0575  -15.6033  -52.4897 C.3       23 UNK        -0.0205 
    127 H127       -0.2127   -8.8331  -44.2518 H         1 UNK         0.0600 
    128 H128       -1.2145   -8.1666  -45.5449 H         1 UNK         0.0600 
    129 H129        0.4488   -7.6091  -45.3408 H         1 UNK         0.0600 
    130 H130       -1.4409   -9.5895  -47.2555 H         1 UNK         0.3000 
    131 H131        0.7688  -10.7518  -48.5948 H         1 UNK         0.0600 
    132 H132       -1.2152  -10.0370  -49.8161 H         1 UNK         0.0800 
    133 H133       -0.8592  -11.7032  -50.1301 H         1 UNK         0.0800 
    134 H134       -3.3551  -12.0322  -51.1616 H         1 UNK         0.0800 
    135 H135       -4.4824  -12.8053  -50.0780 H         1 UNK         0.0800 
    136 H136       -1.6424  -13.3917  -52.0985 H         1 UNK         0.1150 
    137 H137       -0.6215  -17.1668  -50.3431 H         1 UNK         0.1150 
    138 H138       -3.4020  -14.5690  -48.3732 H         1 UNK         0.1150 
    139 H139       -2.8696  -16.6367  -47.3647 H         1 UNK         0.0800 
    140 H140       -2.4956  -17.9251  -48.4906 H         1 UNK         0.0800 
    141 H141       -1.9778  -17.6577  -45.3748 H         1 UNK         0.0800 
    142 H142       -0.2962  -17.7609  -44.9872 H         1 UNK         0.0800 
    143 H143       -0.3920  -19.8779  -46.7185 H         1 UNK         0.0600 
    144 H144       -0.3065  -19.7238  -43.9068 H         1 UNK         0.3000 
    145 H145       -0.0923  -23.2265  -43.2633 H         1 UNK         0.0600 
    146 H146        1.9646  -22.4422  -42.1031 H         1 UNK         0.0600 
    147 H147        2.2214  -22.5375  -43.8383 H         1 UNK         0.0600 
    148 H148        1.9815  -20.9740  -43.0757 H         1 UNK         0.0600 
    149 H149       -0.0748  -20.8199  -41.6582 H         1 UNK         0.3000 
    150 H150       -3.5930  -20.7355  -41.0588 H         1 UNK         0.0600 
    151 H151       -2.6903  -22.4144  -39.4416 H         1 UNK         0.0600 
    152 H152       -2.7996  -20.8204  -38.7123 H         1 UNK         0.0600 
    153 H153       -1.2348  -21.4482  -39.2304 H         1 UNK         0.0600 
    154 H154       -1.4078  -19.1409  -40.1146 H         1 UNK         0.3000 
    155 H155       -1.3135  -16.8243  -42.8026 H         1 UNK         0.0600 
    156 H156       -2.4376  -16.4489  -39.9760 H         1 UNK         0.0600 
    157 H157       -1.8095  -15.1763  -41.0242 H         1 UNK         0.0600 
    158 H158       -3.2737  -16.0372  -41.4689 H         1 UNK         0.0600 
    159 H159        0.0167  -16.7969  -40.3049 H         1 UNK         0.3000 
    160 H160        2.4030  -17.0743  -40.5024 H         1 UNK         0.0600 
    161 H161        1.8107  -20.0622  -40.0002 H         1 UNK         0.0600 
    162 H162        1.2225  -18.7353  -39.0035 H         1 UNK         0.0600 
    163 H163        2.9405  -19.0803  -39.0719 H         1 UNK         0.0600 
    164 H164        2.9143  -18.9439  -42.6051 H         1 UNK         0.3000 
    165 H165        6.3206  -18.1879  -42.7436 H         1 UNK         0.0600 
    166 H166        6.8138  -20.6118  -42.9571 H         1 UNK         0.0600 
    167 H167        6.5850  -20.1891  -41.2686 H         1 UNK         0.0600 
    168 H168        5.3022  -21.0178  -42.1420 H         1 UNK         0.0600 
    169 H169        4.7721  -19.9824  -44.3150 H         1 UNK         0.3000 
    170 H170        4.5409  -19.0226  -46.6153 H         1 UNK         0.0600 
    171 H171        2.7091  -20.1615  -45.4111 H         1 UNK         0.0600 
    172 H172        1.8212  -18.6512  -45.2548 H         1 UNK         0.0600 
    173 H173        2.0337  -19.3962  -46.8382 H         1 UNK         0.0600 
    174 H174        3.0051  -16.4831  -46.3212 H         1 UNK         0.3000 
    175 H175        4.6078  -15.1120  -49.0960 H         1 UNK         0.0600 
    176 H176        2.7854  -16.2229  -50.4146 H         1 UNK         0.0600 
    177 H177        1.6279  -15.8357  -49.1471 H         1 UNK         0.0600 
    178 H178        2.3955  -14.5453  -50.0683 H         1 UNK         0.0600 
    179 H179        2.4061  -14.1855  -47.5225 H         1 UNK         0.3000 
    180 H180        3.8847  -13.7826  -44.4756 H         1 UNK         0.0600 
    181 H181        3.9665  -11.3024  -46.2776 H         1 UNK         0.0600 
    182 H182        5.2948  -11.8948  -45.2870 H         1 UNK         0.0600 
    183 H183        3.8369  -11.2870  -44.5193 H         1 UNK         0.0600 
    184 H184        1.7794  -12.2412  -45.6491 H         1 UNK         0.3000 
    185 H185       -0.6519  -14.6903  -46.0488 H         1 UNK         0.0600 
    186 H186       -0.8147  -14.5692  -43.5453 H         1 UNK         0.0600 
    187 H187       -0.6141  -12.8242  -43.6207 H         1 UNK         0.0600 
    188 H188       -2.0372  -13.5863  -44.3345 H         1 UNK         0.0600 
    189 H189       -0.9481  -11.8939  -45.8833 H         1 UNK         0.3000 
    190 H190       -3.0758  -19.9347  -44.3287 H         1 UNK         0.3000 
    191 H191       -5.2022  -20.2277  -46.1564 H         1 UNK         0.0600 
    192 H192       -4.9558  -21.2331  -43.2728 H         1 UNK         0.0600 
    193 H193       -6.4579  -21.0693  -44.1732 H         1 UNK         0.0600 
    194 H194       -5.5175  -19.6398  -43.7723 H         1 UNK         0.0600 
    195 H195       -3.1719  -22.7345  -44.5731 H         1 UNK         0.3000 
    196 H196       -4.4682  -25.0011  -45.6861 H         1 UNK         0.0600 
    197 H197       -2.3920  -26.1992  -45.0206 H         1 UNK         0.0600 
    198 H198       -2.9291  -25.1208  -43.7409 H         1 UNK         0.0600 
    199 H199       -1.5656  -24.6691  -44.7614 H         1 UNK         0.0600 
    200 H200       -1.7593  -23.0038  -46.9287 H         1 UNK         0.3000 
    201 H201       -1.2928  -24.5268  -49.3044 H         1 UNK         0.0600 
    202 H202        0.3717  -22.9419  -48.3888 H         1 UNK         0.0600 
    203 H203       -0.7019  -21.5832  -48.7042 H         1 UNK         0.0600 
    204 H204       -0.0420  -22.5134  -50.0417 H         1 UNK         0.0600 
    205 H205       -3.2505  -21.5721  -48.6744 H         1 UNK         0.3000 
    206 H206       -4.1989  -21.1519  -51.2648 H         1 UNK         0.0600 
    207 H207       -5.9660  -19.7722  -50.1145 H         1 UNK         0.0600 
    208 H208       -5.4842  -20.4631  -48.5722 H         1 UNK         0.0600 
    209 H209       -4.3576  -19.4599  -49.4853 H         1 UNK         0.0600 
    210 H210       -5.4564  -23.3270  -48.7785 H         1 UNK         0.3000 
    211 H211       -7.9017  -24.0715  -50.0729 H         1 UNK         0.0600 
    212 H212       -6.2576  -25.4302  -47.8774 H         1 UNK         0.0600 
    213 H213       -7.9065  -25.8570  -48.3243 H         1 UNK         0.0600 
    214 H214       -7.5674  -24.2761  -47.6394 H         1 UNK         0.0600 
    215 H215       -6.6833  -24.2110  -52.1898 H         1 UNK         0.3000 
    216 H216       -6.4805  -25.3384  -54.0626 H         1 UNK         0.0600 
    217 H217       -7.3620  -27.6266  -54.2734 H         1 UNK         0.0600 
    218 H218       -8.4061  -26.6763  -53.2307 H         1 UNK         0.0600 
    219 H219       -7.2979  -27.8584  -52.5340 H         1 UNK         0.0600 
    220 H220       -4.3186  -26.1680  -51.5563 H         1 UNK         0.3000 
    221 H221       -2.6883  -28.0725  -52.9581 H         1 UNK         0.0600 
    222 H222       -2.0905  -26.2508  -50.5769 H         1 UNK         0.0600 
    223 H223       -2.6034  -27.9300  -50.5247 H         1 UNK         0.0600 
    224 H224       -1.0157  -27.5182  -51.1563 H         1 UNK         0.0600 
    225 H225       -2.1763  -24.5754  -52.2872 H         1 UNK         0.3000 
    226 H226       -0.4610  -24.2793  -54.7092 H         1 UNK         0.0600 
    227 H227        0.3248  -23.2353  -52.5604 H         1 UNK         0.0600 
    228 H228       -0.0066  -22.0341  -53.8000 H         1 UNK         0.0600 
    229 H229       -1.1532  -22.2742  -52.4920 H         1 UNK         0.0600 
    230 H230       -3.6169  -23.6764  -53.3766 H         1 UNK         0.3000 
    231 H231       -5.5863  -23.0569  -54.1504 H         1 UNK         0.0600 
    232 H232       -6.1262  -22.9272  -56.5331 H         1 UNK         0.0600 
    233 H233       -5.1305  -24.3428  -56.2261 H         1 UNK         0.0600 
    234 H234       -4.4289  -22.9106  -56.9766 H         1 UNK         0.0600 
    235 H235       -5.8600  -21.2682  -53.0578 H         1 UNK         0.3000 
    236 H236       -6.2243  -19.2124  -52.4552 H         1 UNK         0.0600 
    237 H237       -7.4104  -18.9557  -54.6030 H         1 UNK         0.0600 
    238 H238       -6.6520  -17.4419  -54.1354 H         1 UNK         0.0600 
    239 H239       -5.9303  -18.4262  -55.3990 H         1 UNK         0.0600 
    240 H240       -3.5604  -19.0596  -54.7835 H         1 UNK         0.3000 
    241 H241       -1.6989  -17.9230  -52.8900 H         1 UNK         0.0600 
    242 H242       -0.6383  -20.0951  -56.0849 H         1 UNK         0.3800 
    243 H243       -2.3093  -19.9463  -55.6501 H         1 UNK         0.3800 
    244 H244       -2.9524  -15.8839  -53.6274 H         1 UNK         0.0800 
    245 H245       -2.5863  -16.2381  -55.2863 H         1 UNK         0.0800 
    246 H246        0.2911  -16.6360  -52.4508 H         1 UNK         0.0800 
    247 H247        0.8271  -14.9837  -52.3386 H         1 UNK         0.0800 
@<TRIPOS>BOND
     1    1    2 1    
     2    1  127 1    
     3    1  128 1    
     4    1  129 1    
     5    2    3 2    
     6    2    4 am   BACKBONE|DICT|INTERRES
     7    4    5 1    
     8    4  130 1    
     9    5    6 1    
    10    5   65 1    
    11    5  131 1    
    12    6    7 1    
    13    6  132 1    
    14    6  133 1    
    15    7    8 1    
    16    8    9 1    
    17    8  134 1    
    18    8  135 1    
    19    9   10 ar   
    20    9   14 ar   
    21   10   11 ar   
    22   10  136 1    
    23   11   12 ar   
    24   11  126 1    
    25   12   13 ar   
    26   12  137 1    
    27   13   14 ar   
    28   13   15 1    
    29   14  138 1    
    30   15   16 1    
    31   15  139 1    
    32   15  140 1    
    33   16   17 1    
    34   17   18 1    
    35   17  141 1    
    36   17  142 1    
    37   18   19 1    
    38   18   67 1    
    39   18  143 1    
    40   19   20 am   BACKBONE|DICT|INTERRES
    41   19  144 1    
    42   20   21 2    
    43   20   22 1    
    44   22   23 1    
    45   22   24 1    
    46   22  145 1    
    47   23  146 1    
    48   23  147 1    
    49   23  148 1    
    50   24   25 am   BACKBONE|DICT|INTERRES
    51   24  149 1    
    52   25   26 2    
    53   25   27 1    
    54   27   28 1    
    55   27   29 1    
    56   27  150 1    
    57   28  151 1    
    58   28  152 1    
    59   28  153 1    
    60   29   30 am   BACKBONE|DICT|INTERRES
    61   29  154 1    
    62   30   31 2    
    63   30   32 1    
    64   32   33 1    
    65   32   34 1    
    66   32  155 1    
    67   33  156 1    
    68   33  157 1    
    69   33  158 1    
    70   34   35 am   BACKBONE|DICT|INTERRES
    71   34  159 1    
    72   35   36 2    
    73   35   37 1    
    74   37   38 1    
    75   37   39 1    
    76   37  160 1    
    77   38  161 1    
    78   38  162 1    
    79   38  163 1    
    80   39   40 am   BACKBONE|DICT|INTERRES
    81   39  164 1    
    82   40   41 2    
    83   40   42 1    
    84   42   43 1    
    85   42   44 1    
    86   42  165 1    
    87   43  166 1    
    88   43  167 1    
    89   43  168 1    
    90   44   45 am   BACKBONE|DICT|INTERRES
    91   44  169 1    
    92   45   46 2    
    93   45   47 1    
    94   47   48 1    
    95   47   49 1    
    96   47  170 1    
    97   48  171 1    
    98   48  172 1    
    99   48  173 1    
   100   49   50 am   BACKBONE|DICT|INTERRES
   101   49  174 1    
   102   50   51 2    
   103   50   52 1    
   104   52   53 1    
   105   52   54 1    
   106   52  175 1    
   107   53  176 1    
   108   53  177 1    
   109   53  178 1    
   110   54   55 am   BACKBONE|DICT|INTERRES
   111   54  179 1    
   112   55   56 2    
   113   55   57 1    
   114   57   58 1    
   115   57   59 1    
   116   57  180 1    
   117   58  181 1    
   118   58  182 1    
   119   58  183 1    
   120   59   60 am   BACKBONE|DICT|INTERRES
   121   59  184 1    
   122   60   61 2    
   123   60   62 1    
   124   62   63 1    
   125   62   64 1    
   126   62  185 1    
   127   63  186 1    
   128   63  187 1    
   129   63  188 1    
   130   64   65 am   BACKBONE|DICT|INTERRES
   131   64  189 1    
   132   65   66 2    
   133   67   68 2    
   134   67   69 am   BACKBONE|DICT|INTERRES
   135   69   70 1    
   136   69  190 1    
   137   70   71 1    
   138   70   72 1    
   139   70  191 1    
   140   71  192 1    
   141   71  193 1    
   142   71  194 1    
   143   72   73 2    
   144   72   74 am   BACKBONE|DICT|INTERRES
   145   74   75 1    
   146   74  195 1    
   147   75   76 1    
   148   75   77 1    
   149   75  196 1    
   150   76  197 1    
   151   76  198 1    
   152   76  199 1    
   153   77   78 2    
   154   77   79 am   BACKBONE|DICT|INTERRES
   155   79   80 1    
   156   79  200 1    
   157   80   81 1    
   158   80   82 1    
   159   80  201 1    
   160   81  202 1    
   161   81  203 1    
   162   81  204 1    
   163   82   83 2    
   164   82   84 am   BACKBONE|DICT|INTERRES
   165   84   85 1    
   166   84  205 1    
   167   85   86 1    
   168   85   87 1    
   169   85  206 1    
   170   86  207 1    
   171   86  208 1    
   172   86  209 1    
   173   87   88 2    
   174   87   89 am   BACKBONE|DICT|INTERRES
   175   89   90 1    
   176   89  210 1    
   177   90   91 1    
   178   90   92 1    
   179   90  211 1    
   180   91  212 1    
   181   91  213 1    
   182   91  214 1    
   183   92   93 2    
   184   92   94 am   BACKBONE|DICT|INTERRES
   185   94   95 1    
   186   94  215 1    
   187   95   96 1    
   188   95   97 1    
   189   95  216 1    
   190   96  217 1    
   191   96  218 1    
   192   96  219 1    
   193   97   98 2    
   194   97   99 am   BACKBONE|DICT|INTERRES
   195   99  100 1    
   196   99  220 1    
   197  100  101 1    
   198  100  102 1    
   199  100  221 1    
   200  101  222 1    
   201  101  223 1    
   202  101  224 1    
   203  102  103 2    
   204  102  104 am   BACKBONE|DICT|INTERRES
   205  104  105 1    
   206  104  225 1    
   207  105  106 1    
   208  105  107 1    
   209  105  226 1    
   210  106  227 1    
   211  106  228 1    
   212  106  229 1    
   213  107  108 2    
   214  107  109 am   BACKBONE|DICT|INTERRES
   215  109  110 1    
   216  109  230 1    
   217  110  111 1    
   218  110  112 1    
   219  110  231 1    
   220  111  232 1    
   221  111  233 1    
   222  111  234 1    
   223  112  113 2    
   224  112  114 am   BACKBONE|DICT|INTERRES
   225  114  115 1    
   226  114  235 1    
   227  115  116 1    
   228  115  117 1    
   229  115  236 1    
   230  116  237 1    
   231  116  238 1    
   232  116  239 1    
   233  117  118 2    
   234  117  119 am   BACKBONE|DICT|INTERRES
   235  119  120 1    
   236  119  240 1    
   237  120  121 1    
   238  120  124 1    
   239  120  241 1    
   240  121  122 am   BACKBONE|DICT|INTERRES
   241  121  123 2    
   242  122  242 1    
   243  122  243 1    
   244  124  125 1    
   245  124  244 1    
   246  124  245 1    
   247  125  126 1    
   248  126  246 1    
   249  126  247 1    
@<TRIPOS>SUBSTRUCTURE
     1 UNK         1 GROUP             0       ****    0 ROOT    
