@<TRIPOS>MOLECULE
3R540
247   249    1
SMALL
USER_CHARGES


@<TRIPOS>ATOM
      1 CA         -2.0018  -12.7465  -48.4154 C.3       0 UNK        -0.1800 
      2 C          -0.5660  -12.2924  -48.6430 C.2       0 UNK         0.5000 
      3 O          -0.2563  -11.1145  -48.4652 O.2       0 UNK        -0.5000 
      4 N           0.3036  -13.2217  -49.0489 N.am      1 UNK        -0.5000 
      5 CA          1.7340  -13.0101  -49.2765 C.3       1 UNK         0.1400 
      6 C6          2.3303  -14.0815  -50.2291 C.3       23 UNK        -0.0398 
      7 S7          1.8479  -15.8006  -49.8246 S.3       23 UNK        -0.2404 
      8 C8          0.6048  -16.1032  -51.1179 C.3       23 UNK        -0.0205 
      9 C9         -0.2836  -17.2806  -50.7612 C.ar      23 UNK        -0.0193 
     10 C10        -1.5210  -17.0667  -50.1508 C.ar      23 UNK        -0.1150 
     11 C11        -2.3610  -18.1419  -49.8423 C.ar      23 UNK        -0.0193 
     12 C12        -1.9362  -19.4425  -50.1297 C.ar      23 UNK        -0.1150 
     13 C13        -0.6910  -19.6706  -50.7231 C.ar      23 UNK        -0.0193 
     14 C14         0.1256  -18.5838  -51.0465 C.ar      23 UNK        -0.1150 
     15 C15        -0.2194  -21.0933  -50.9907 C.3       23 UNK        -0.0205 
     16 S16         1.3635  -21.4839  -50.1652 S.3       23 UNK        -0.2404 
     17 C17         1.0451  -21.0072  -48.4288 C.3       23 UNK        -0.0398 
     18 CA          0.6418  -22.1942  -47.5271 C.3       11 UNK         0.1400 
     19 N           0.7858  -21.8632  -46.1085 N.am      11 UNK        -0.5000 
     20 C           0.6495  -22.7397  -45.1043 C.2       10 UNK         0.5000 
     21 O           0.4434  -23.9417  -45.2665 O.2       10 UNK        -0.5000 
     22 CA          0.7092  -22.1723  -43.6775 C.3       10 UNK         0.1400 
     23 CB          2.1669  -22.0306  -43.2166 C.3       10 UNK        -0.1800 
     24 N           0.0118  -20.8901  -43.5546 N.am      10 UNK        -0.5000 
     25 C          -1.3129  -20.7399  -43.7066 C.2       9 UNK         0.5000 
     26 O          -2.0804  -21.6746  -43.9378 O.2       9 UNK        -0.5000 
     27 CA         -1.8745  -19.3076  -43.6271 C.3       9 UNK         0.1400 
     28 CB         -1.8950  -18.8052  -42.1762 C.3       9 UNK        -0.1800 
     29 N          -1.1416  -18.3558  -44.4603 N.am      9 UNK        -0.5000 
     30 C          -0.9990  -18.4434  -45.7904 C.2       8 UNK         0.5000 
     31 O          -1.5069  -19.3255  -46.4793 O.2       8 UNK        -0.5000 
     32 CA         -0.0848  -17.4011  -46.4560 C.3       8 UNK         0.1400 
     33 CB         -0.8544  -16.1102  -46.7703 C.3       8 UNK        -0.1800 
     34 N           1.0889  -17.0942  -45.6367 N.am      8 UNK        -0.5000 
     35 C           2.0473  -17.9802  -45.3352 C.2       7 UNK         0.5000 
     36 O           2.0438  -19.1532  -45.7141 O.2       7 UNK        -0.5000 
     37 CA          3.1880  -17.4703  -44.4402 C.3       7 UNK         0.1400 
     38 CB          3.9569  -16.3197  -45.1105 C.3       7 UNK        -0.1800 
     39 N           2.7399  -17.0423  -43.1143 N.am      7 UNK        -0.5000 
     40 C           2.2124  -17.8422  -42.1775 C.2       6 UNK         0.5000 
     41 O           1.8869  -19.0096  -42.3794 O.2       6 UNK        -0.5000 
     42 CA          2.0245  -17.2436  -40.7756 C.3       6 UNK         0.1400 
     43 CB          3.3747  -16.8493  -40.1534 C.3       6 UNK        -0.1800 
     44 N           1.1630  -16.0707  -40.8412 N.am      6 UNK        -0.5000 
     45 C          -0.0581  -15.9786  -40.2995 C.2       5 UNK         0.5000 
     46 O          -0.5605  -16.8488  -39.5875 O.2       5 UNK        -0.5000 
     47 CA         -0.8704  -14.7019  -40.6050 C.3       5 UNK         0.1400 
     48 CB         -0.8298  -13.7409  -39.4069 C.3       5 UNK        -0.1800 
     49 N          -0.4289  -13.9808  -41.8015 N.am      5 UNK        -0.5000 
     50 C          -0.4401  -14.4720  -43.0477 C.2       4 UNK         0.5000 
     51 O          -0.8530  -15.5943  -43.3395 O.2       4 UNK        -0.5000 
     52 CA          0.1687  -13.5827  -44.1466 C.3       4 UNK         0.1400 
     53 CB         -0.9117  -12.6883  -44.7688 C.3       4 UNK        -0.1800 
     54 N           1.2986  -12.7448  -43.7318 N.am      4 UNK        -0.5000 
     55 C           2.4128  -13.1533  -43.1102 C.2       3 UNK         0.5000 
     56 O           2.5722  -14.2860  -42.6523 O.2       3 UNK        -0.5000 
     57 CA          3.5706  -12.1409  -43.0697 C.3       3 UNK         0.1400 
     58 CB          4.6082  -12.4827  -41.9857 C.3       3 UNK        -0.1800 
     59 N           4.2315  -12.1322  -44.3726 N.am      3 UNK        -0.5000 
     60 C           3.7656  -11.5183  -45.4679 C.2       2 UNK         0.5000 
     61 O           2.8108  -10.7373  -45.4497 O.2       2 UNK        -0.5000 
     62 CA          4.4683  -11.8296  -46.8088 C.3       2 UNK         0.1400 
     63 CB          5.4727  -13.0025  -46.7392 C.3       2 UNK        -0.1800 
     64 N           3.5192  -12.0548  -47.9056 N.am      2 UNK        -0.5000 
     65 C           2.5105  -12.9405  -47.9446 C.2       1 UNK         0.5000 
     66 O           2.2112  -13.6995  -47.0192 O.2       1 UNK        -0.5000 
     67 C          -0.7772  -22.7090  -47.8462 C.2       11 UNK         0.5000 
     68 O          -0.9113  -23.7638  -48.4662 O.2       11 UNK        -0.5000 
     69 N          -1.8057  -21.9893  -47.3746 N.am      12 UNK        -0.5000 
     70 CA         -3.2129  -22.3604  -47.5178 C.3       12 UNK         0.1400 
     71 CB         -4.1056  -21.2310  -46.9857 C.3       12 UNK        -0.1800 
     72 C          -3.5564  -23.6877  -46.8226 C.2       12 UNK         0.5000 
     73 O          -4.3062  -24.4837  -47.3846 O.2       12 UNK        -0.5000 
     74 N          -2.9831  -23.9197  -45.6335 N.am      13 UNK        -0.5000 
     75 CA         -3.1148  -25.1696  -44.8856 C.3       13 UNK         0.1400 
     76 CB         -2.5453  -24.9890  -43.4705 C.3       13 UNK        -0.1800 
     77 C          -2.4486  -26.3607  -45.5993 C.2       13 UNK         0.5000 
     78 O          -3.0407  -27.4388  -45.6523 O.2       13 UNK        -0.5000 
     79 N          -1.2466  -26.1419  -46.1516 N.am      14 UNK        -0.5000 
     80 CA         -0.4841  -27.1357  -46.9089 C.3       14 UNK         0.1400 
     81 CB          0.9494  -26.6278  -47.1282 C.3       14 UNK        -0.1800 
     82 C          -1.1456  -27.5002  -48.2500 C.2       14 UNK         0.5000 
     83 O          -1.2224  -28.6824  -48.5875 O.2       14 UNK        -0.5000 
     84 N          -1.6237  -26.4846  -48.9816 N.am      15 UNK        -0.5000 
     85 CA         -2.3428  -26.6418  -50.2476 C.3       15 UNK         0.1400 
     86 CB         -2.3651  -25.2908  -50.9796 C.3       15 UNK        -0.1800 
     87 C          -3.7772  -27.1764  -50.0686 C.2       15 UNK         0.5000 
     88 O          -4.3206  -27.7655  -51.0034 O.2       15 UNK        -0.5000 
     89 N          -4.3610  -26.9405  -48.8842 N.am      16 UNK        -0.5000 
     90 CA         -5.7437  -27.2212  -48.4814 C.3       16 UNK         0.1400 
     91 CB         -6.0279  -28.7375  -48.4867 C.3       16 UNK        -0.1800 
     92 C          -6.7829  -26.4052  -49.2828 C.2       16 UNK         0.5000 
     93 O          -7.9324  -26.8304  -49.4125 O.2       16 UNK        -0.5000 
     94 N          -6.3602  -25.2468  -49.8025 N.am      17 UNK        -0.5000 
     95 CA         -7.1009  -24.3431  -50.6756 C.3       17 UNK         0.1400 
     96 CB         -7.3956  -25.0264  -52.0292 C.3       17 UNK        -0.1800 
     97 C          -6.2568  -23.0770  -50.8944 C.2       17 UNK         0.5000 
     98 O          -5.0860  -23.0403  -50.5099 O.2       17 UNK        -0.5000 
     99 N          -6.8522  -22.0747  -51.5534 N.am      18 UNK        -0.5000 
    100 CA        -6.1773  -20.8523  -52.0057 C.3       18 UNK         0.1400 
    101 CB        -7.2461  -19.8415  -52.4502 C.3       18 UNK        -0.1800 
    102 C         -5.1699  -21.0886  -53.1513 C.2       18 UNK         0.5000 
    103 O         -4.2875  -20.2525  -53.3631 O.2       18 UNK        -0.5000 
    104 N         -5.3430  -22.2063  -53.8755 N.am      19 UNK        -0.5000 
    105 CA        -4.5717  -22.7138  -55.0165 C.3       19 UNK         0.1400 
    106 CB        -3.1055  -22.9874  -54.6242 C.3       19 UNK        -0.1800 
    107 C         -4.6722  -21.8275  -56.2722 C.2       19 UNK         0.5000 
    108 O         -5.1606  -22.2866  -57.3047 O.2       19 UNK        -0.5000 
    109 N         -4.2238  -20.5782  -56.1341 N.am      20 UNK        -0.5000 
    110 CA        -4.1886  -19.4886  -57.1102 C.3       20 UNK         0.1400 
    111 CB        -3.5251  -19.9072  -58.4393 C.3       20 UNK        -0.1800 
    112 C         -3.4086  -18.3143  -56.5011 C.2       20 UNK         0.5000 
    113 O         -3.7879  -17.1587  -56.6940 O.2       20 UNK        -0.5000 
    114 N         -2.3431  -18.6402  -55.7530 N.am      21 UNK        -0.5000 
    115 CA        -1.4072  -17.7061  -55.1239 C.3       21 UNK         0.1400 
    116 CB        -0.2768  -18.5129  -54.4700 C.3       21 UNK        -0.1800 
    117 C         -2.0458  -16.7362  -54.1107 C.2       21 UNK         0.5000 
    118 O         -1.5312  -15.6304  -53.9385 O.2       21 UNK        -0.5000 
    119 N         -3.1608  -17.1443  -53.4893 N.am      22 UNK        -0.5000 
    120 CA        -3.9835  -16.2826  -52.6244 C.3       22 UNK         0.1400 
    121 C         -4.8384  -15.2231  -53.3862 C.2       22 UNK         0.5000 
    122 N         -4.9304  -15.2545  -54.7115 N.am      22 UNK        -0.7600 
    123 O         -5.4288  -14.3463  -52.7619 O.2       22 UNK        -0.5000 
    124 C124       -4.8464  -17.1179  -51.6356 C.3       23 UNK        -0.0398 
    125 S125       -4.6810  -16.5516  -49.9093 S.3       23 UNK        -0.2404 
    126 C126       -3.7172  -17.9181  -49.1792 C.3       23 UNK        -0.0205 
    127 H127       -2.6559  -12.3087  -49.1693 H         1 UNK         0.0600 
    128 H128       -2.3506  -12.4240  -47.4349 H         1 UNK         0.0600 
    129 H129       -2.0990  -13.8310  -48.4700 H         1 UNK         0.0600 
    130 H130        0.0088  -14.1833  -49.1304 H         1 UNK         0.3000 
    131 H131        1.8464  -12.0428  -49.7715 H         1 UNK         0.0600 
    132 H132        2.0212  -13.8603  -51.2515 H         1 UNK         0.0800 
    133 H133        3.4203  -14.0241  -50.2469 H         1 UNK         0.0800 
    134 H134       -0.0090  -15.2133  -51.2668 H         1 UNK         0.0800 
    135 H135        1.1082  -16.2876  -52.0680 H         1 UNK         0.0800 
    136 H136       -1.8366  -16.0585  -49.9251 H         1 UNK         0.1150 
    137 H137       -2.5706  -20.2809  -49.8786 H         1 UNK         0.1150 
    138 H138        1.0885  -18.7545  -51.5072 H         1 UNK         0.1150 
    139 H139       -0.9728  -21.8176  -50.6774 H         1 UNK         0.0800 
    140 H140       -0.0985  -21.2279  -52.0662 H         1 UNK         0.0800 
    141 H141        0.3163  -20.1998  -48.3635 H         1 UNK         0.0800 
    142 H142        1.9777  -20.5778  -48.0605 H         1 UNK         0.0800 
    143 H143        1.3357  -23.0144  -47.7244 H         1 UNK         0.0600 
    144 H144        0.9885  -20.8940  -45.8840 H         1 UNK         0.3000 
    145 H145        0.2151  -22.8867  -43.0161 H         1 UNK         0.0600 
    146 H146        2.2208  -21.7295  -42.1704 H         1 UNK         0.0600 
    147 H147        2.7009  -22.9771  -43.3094 H         1 UNK         0.0600 
    148 H148        2.7053  -21.2887  -43.8080 H         1 UNK         0.0600 
    149 H149        0.5894  -20.0826  -43.3365 H         1 UNK         0.3000 
    150 H150       -2.9034  -19.3358  -43.9914 H         1 UNK         0.0600 
    151 H151       -2.4627  -19.4812  -41.5357 H         1 UNK         0.0600 
    152 H152       -2.3599  -17.8216  -42.1051 H         1 UNK         0.0600 
    153 H153       -0.8892  -18.7281  -41.7624 H         1 UNK         0.0600 
    154 H154       -0.7362  -17.5550  -43.9881 H         1 UNK         0.3000 
    155 H155        0.2684  -17.8198  -47.4011 H         1 UNK         0.0600 
    156 H156       -1.2877  -15.6637  -45.8777 H         1 UNK         0.0600 
    157 H157       -0.2063  -15.3709  -47.2393 H         1 UNK         0.0600 
    158 H158       -1.6785  -16.3062  -47.4542 H         1 UNK         0.0600 
    159 H159        1.1683  -16.1544  -45.2811 H         1 UNK         0.3000 
    160 H160        3.8847  -18.2995  -44.3002 H         1 UNK         0.0600 
    161 H161        4.8456  -16.0548  -44.5378 H         1 UNK         0.0600 
    162 H162        3.3440  -15.4228  -45.2038 H         1 UNK         0.0600 
    163 H163        4.2857  -16.5977  -46.1128 H         1 UNK         0.0600 
    164 H164        2.8959  -16.0641  -42.8836 H         1 UNK         0.3000 
    165 H165        1.5797  -18.0180  -40.1471 H         1 UNK         0.0600 
    166 H166        3.2455  -16.5094  -39.1258 H         1 UNK         0.0600 
    167 H167        4.0582  -17.6989  -40.1316 H         1 UNK         0.0600 
    168 H168        3.8623  -16.0469  -40.7087 H         1 UNK         0.0600 
    169 H169        1.4909  -15.3129  -41.4323 H         1 UNK         0.3000 
    170 H170       -1.9059  -15.0086  -40.7662 H         1 UNK         0.0600 
    171 H171        0.1823  -13.3827  -39.2141 H         1 UNK         0.0600 
    172 H172       -1.4685  -12.8734  -39.5739 H         1 UNK         0.0600 
    173 H173       -1.1828  -14.2320  -38.4990 H         1 UNK         0.0600 
    174 H174       -0.0498  -13.0562  -41.6590 H         1 UNK         0.3000 
    175 H175        0.5463  -14.2466  -44.9246 H         1 UNK         0.0600 
    176 H176       -0.5149  -12.1270  -45.6146 H         1 UNK         0.0600 
    177 H177       -1.3051  -11.9718  -44.0468 H         1 UNK         0.0600 
    178 H178       -1.7506  -13.2816  -45.1346 H         1 UNK         0.0600 
    179 H179        1.3173  -11.8139  -44.1291 H         1 UNK         0.3000 
    180 H180        3.1625  -11.1515  -42.8522 H         1 UNK         0.0600 
    181 H181        5.0799  -13.4501  -42.1635 H         1 UNK         0.0600 
    182 H182        4.1429  -12.5209  -40.9999 H         1 UNK         0.0600 
    183 H183        5.3956  -11.7300  -41.9445 H         1 UNK         0.0600 
    184 H184        5.0050  -12.7719  -44.4800 H         1 UNK         0.3000 
    185 H185        5.0289  -10.9304  -47.0677 H         1 UNK         0.0600 
    186 H186        5.9449  -13.1670  -47.7079 H         1 UNK         0.0600 
    187 H187        6.2753  -12.8021  -46.0285 H         1 UNK         0.0600 
    188 H188        4.9892  -13.9354  -46.4492 H         1 UNK         0.0600 
    189 H189        3.6518  -11.4536  -48.7066 H         1 UNK         0.3000 
    190 H190       -1.6206  -21.1072  -46.9006 H         1 UNK         0.3000 
    191 H191       -3.4095  -22.4802  -48.5840 H         1 UNK         0.0600 
    192 H192       -3.8946  -20.2918  -47.4926 H         1 UNK         0.0600 
    193 H193       -5.1602  -21.4594  -47.1444 H         1 UNK         0.0600 
    194 H194       -3.9578  -21.0699  -45.9174 H         1 UNK         0.0600 
    195 H195       -2.4276  -23.1850  -45.2060 H         1 UNK         0.3000 
    196 H196       -4.1799  -25.3920  -44.7935 H         1 UNK         0.0600 
    197 H197       -2.6591  -25.9018  -42.8845 H         1 UNK         0.0600 
    198 H198       -3.0633  -24.1924  -42.9363 H         1 UNK         0.0600 
    199 H199       -1.4839  -24.7418  -43.4905 H         1 UNK         0.0600 
    200 H200       -0.8037  -25.2369  -46.0193 H         1 UNK         0.3000 
    201 H201       -0.4301  -28.0456  -46.3077 H         1 UNK         0.0600 
    202 H202        1.4550  -26.4553  -46.1780 H         1 UNK         0.0600 
    203 H203        0.9648  -25.6923  -47.6884 H         1 UNK         0.0600 
    204 H204        1.5418  -27.3550  -47.6848 H         1 UNK         0.0600 
    205 H205       -1.4664  -25.5301  -48.6631 H         1 UNK         0.3000 
    206 H206       -1.7993  -27.3567  -50.8688 H         1 UNK         0.0600 
    207 H207       -1.3556  -24.9472  -51.2058 H         1 UNK         0.0600 
    208 H208       -2.9059  -25.3630  -51.9239 H         1 UNK         0.0600 
    209 H209       -2.8510  -24.5201  -50.3805 H         1 UNK         0.0600 
    210 H210       -3.8411  -26.3835  -48.2166 H         1 UNK         0.3000 
    211 H211       -5.8265  -26.8782  -47.4493 H         1 UNK         0.0600 
    212 H212       -6.0464  -29.1445  -49.4978 H         1 UNK         0.0600 
    213 H213       -6.9941  -28.9553  -48.0304 H         1 UNK         0.0600 
    214 H214       -5.2725  -29.2807  -47.9186 H         1 UNK         0.0600 
    215 H215       -5.4203  -24.9291  -49.5908 H         1 UNK         0.3000 
    216 H216       -8.0342  -24.0613  -50.1847 H         1 UNK         0.0600 
    217 H217       -7.9288  -24.3596  -52.7073 H         1 UNK         0.0600 
    218 H218       -8.0208  -25.9106  -51.9081 H         1 UNK         0.0600 
    219 H219       -6.4758  -25.3372  -52.5269 H         1 UNK         0.0600 
    220 H220       -7.8224  -22.1723  -51.8169 H         1 UNK         0.3000 
    221 H221       -5.6222  -20.4288  -51.1660 H         1 UNK         0.0600 
    222 H222       -7.9189  -20.2695  -53.1943 H         1 UNK         0.0600 
    223 H223       -7.8480  -19.5078  -51.6048 H         1 UNK         0.0600 
    224 H224       -6.7966  -18.9571  -52.9009 H         1 UNK         0.0600 
    225 H225       -6.1314  -22.7814  -53.6191 H         1 UNK         0.3000 
    226 H226       -5.0205  -23.6745  -55.2744 H         1 UNK         0.0600 
    227 H227       -3.0487  -23.6868  -53.7904 H         1 UNK         0.0600 
    228 H228       -2.5565  -23.4290  -55.4567 H         1 UNK         0.0600 
    229 H229       -2.5771  -22.0802  -54.3307 H         1 UNK         0.0600 
    230 H230       -3.9700  -20.3106  -55.1850 H         1 UNK         0.3000 
    231 H231       -5.2118  -19.1604  -57.3006 H         1 UNK         0.0600 
    232 H232       -2.5502  -20.3677  -58.2757 H         1 UNK         0.0600 
    233 H233       -3.3754  -19.0445  -59.0901 H         1 UNK         0.0600 
    234 H234       -4.1418  -20.6128  -58.9947 H         1 UNK         0.0600 
    235 H235       -2.1086  -19.6183  -55.6696 H         1 UNK         0.3000 
    236 H236       -0.9730  -17.0962  -55.9187 H         1 UNK         0.0600 
    237 H237        0.2714  -19.0966  -55.2095 H         1 UNK         0.0600 
    238 H238        0.4423  -17.8562  -53.9792 H         1 UNK         0.0600 
    239 H239       -0.6646  -19.2021  -53.7196 H         1 UNK         0.0600 
    240 H240       -3.5047  -18.0793  -53.6635 H         1 UNK         0.3000 
    241 H241       -3.2778  -15.6914  -52.0382 H         1 UNK         0.0600 
    242 H242       -4.4482  -15.9567  -55.2630 H         1 UNK         0.3800 
    243 H243       -5.4851  -14.5563  -55.1805 H         1 UNK         0.3800 
    244 H244       -5.9051  -17.0871  -51.8960 H         1 UNK         0.0800 
    245 H245       -4.5729  -18.1719  -51.6770 H         1 UNK         0.0800 
    246 H246       -4.3234  -18.8226  -49.2402 H         1 UNK         0.0800 
    247 H247       -3.5621  -17.7202  -48.1182 H         1 UNK         0.0800 
@<TRIPOS>BOND
     1    1    2 1    
     2    1  127 1    
     3    1  128 1    
     4    1  129 1    
     5    2    3 2    
     6    2    4 am   BACKBONE|DICT|INTERRES
     7    4    5 1    
     8    4  130 1    
     9    5    6 1    
    10    5   65 1    
    11    5  131 1    
    12    6    7 1    
    13    6  132 1    
    14    6  133 1    
    15    7    8 1    
    16    8    9 1    
    17    8  134 1    
    18    8  135 1    
    19    9   10 ar   
    20    9   14 ar   
    21   10   11 ar   
    22   10  136 1    
    23   11   12 ar   
    24   11  126 1    
    25   12   13 ar   
    26   12  137 1    
    27   13   14 ar   
    28   13   15 1    
    29   14  138 1    
    30   15   16 1    
    31   15  139 1    
    32   15  140 1    
    33   16   17 1    
    34   17   18 1    
    35   17  141 1    
    36   17  142 1    
    37   18   19 1    
    38   18   67 1    
    39   18  143 1    
    40   19   20 am   BACKBONE|DICT|INTERRES
    41   19  144 1    
    42   20   21 2    
    43   20   22 1    
    44   22   23 1    
    45   22   24 1    
    46   22  145 1    
    47   23  146 1    
    48   23  147 1    
    49   23  148 1    
    50   24   25 am   BACKBONE|DICT|INTERRES
    51   24  149 1    
    52   25   26 2    
    53   25   27 1    
    54   27   28 1    
    55   27   29 1    
    56   27  150 1    
    57   28  151 1    
    58   28  152 1    
    59   28  153 1    
    60   29   30 am   BACKBONE|DICT|INTERRES
    61   29  154 1    
    62   30   31 2    
    63   30   32 1    
    64   32   33 1    
    65   32   34 1    
    66   32  155 1    
    67   33  156 1    
    68   33  157 1    
    69   33  158 1    
    70   34   35 am   BACKBONE|DICT|INTERRES
    71   34  159 1    
    72   35   36 2    
    73   35   37 1    
    74   37   38 1    
    75   37   39 1    
    76   37  160 1    
    77   38  161 1    
    78   38  162 1    
    79   38  163 1    
    80   39   40 am   BACKBONE|DICT|INTERRES
    81   39  164 1    
    82   40   41 2    
    83   40   42 1    
    84   42   43 1    
    85   42   44 1    
    86   42  165 1    
    87   43  166 1    
    88   43  167 1    
    89   43  168 1    
    90   44   45 am   BACKBONE|DICT|INTERRES
    91   44  169 1    
    92   45   46 2    
    93   45   47 1    
    94   47   48 1    
    95   47   49 1    
    96   47  170 1    
    97   48  171 1    
    98   48  172 1    
    99   48  173 1    
   100   49   50 am   BACKBONE|DICT|INTERRES
   101   49  174 1    
   102   50   51 2    
   103   50   52 1    
   104   52   53 1    
   105   52   54 1    
   106   52  175 1    
   107   53  176 1    
   108   53  177 1    
   109   53  178 1    
   110   54   55 am   BACKBONE|DICT|INTERRES
   111   54  179 1    
   112   55   56 2    
   113   55   57 1    
   114   57   58 1    
   115   57   59 1    
   116   57  180 1    
   117   58  181 1    
   118   58  182 1    
   119   58  183 1    
   120   59   60 am   BACKBONE|DICT|INTERRES
   121   59  184 1    
   122   60   61 2    
   123   60   62 1    
   124   62   63 1    
   125   62   64 1    
   126   62  185 1    
   127   63  186 1    
   128   63  187 1    
   129   63  188 1    
   130   64   65 am   BACKBONE|DICT|INTERRES
   131   64  189 1    
   132   65   66 2    
   133   67   68 2    
   134   67   69 am   BACKBONE|DICT|INTERRES
   135   69   70 1    
   136   69  190 1    
   137   70   71 1    
   138   70   72 1    
   139   70  191 1    
   140   71  192 1    
   141   71  193 1    
   142   71  194 1    
   143   72   73 2    
   144   72   74 am   BACKBONE|DICT|INTERRES
   145   74   75 1    
   146   74  195 1    
   147   75   76 1    
   148   75   77 1    
   149   75  196 1    
   150   76  197 1    
   151   76  198 1    
   152   76  199 1    
   153   77   78 2    
   154   77   79 am   BACKBONE|DICT|INTERRES
   155   79   80 1    
   156   79  200 1    
   157   80   81 1    
   158   80   82 1    
   159   80  201 1    
   160   81  202 1    
   161   81  203 1    
   162   81  204 1    
   163   82   83 2    
   164   82   84 am   BACKBONE|DICT|INTERRES
   165   84   85 1    
   166   84  205 1    
   167   85   86 1    
   168   85   87 1    
   169   85  206 1    
   170   86  207 1    
   171   86  208 1    
   172   86  209 1    
   173   87   88 2    
   174   87   89 am   BACKBONE|DICT|INTERRES
   175   89   90 1    
   176   89  210 1    
   177   90   91 1    
   178   90   92 1    
   179   90  211 1    
   180   91  212 1    
   181   91  213 1    
   182   91  214 1    
   183   92   93 2    
   184   92   94 am   BACKBONE|DICT|INTERRES
   185   94   95 1    
   186   94  215 1    
   187   95   96 1    
   188   95   97 1    
   189   95  216 1    
   190   96  217 1    
   191   96  218 1    
   192   96  219 1    
   193   97   98 2    
   194   97   99 am   BACKBONE|DICT|INTERRES
   195   99  100 1    
   196   99  220 1    
   197  100  101 1    
   198  100  102 1    
   199  100  221 1    
   200  101  222 1    
   201  101  223 1    
   202  101  224 1    
   203  102  103 2    
   204  102  104 am   BACKBONE|DICT|INTERRES
   205  104  105 1    
   206  104  225 1    
   207  105  106 1    
   208  105  107 1    
   209  105  226 1    
   210  106  227 1    
   211  106  228 1    
   212  106  229 1    
   213  107  108 2    
   214  107  109 am   BACKBONE|DICT|INTERRES
   215  109  110 1    
   216  109  230 1    
   217  110  111 1    
   218  110  112 1    
   219  110  231 1    
   220  111  232 1    
   221  111  233 1    
   222  111  234 1    
   223  112  113 2    
   224  112  114 am   BACKBONE|DICT|INTERRES
   225  114  115 1    
   226  114  235 1    
   227  115  116 1    
   228  115  117 1    
   229  115  236 1    
   230  116  237 1    
   231  116  238 1    
   232  116  239 1    
   233  117  118 2    
   234  117  119 am   BACKBONE|DICT|INTERRES
   235  119  120 1    
   236  119  240 1    
   237  120  121 1    
   238  120  124 1    
   239  120  241 1    
   240  121  122 am   BACKBONE|DICT|INTERRES
   241  121  123 2    
   242  122  242 1    
   243  122  243 1    
   244  124  125 1    
   245  124  244 1    
   246  124  245 1    
   247  125  126 1    
   248  126  246 1    
   249  126  247 1    
@<TRIPOS>SUBSTRUCTURE
     1 UNK         1 GROUP             0       ****    0 ROOT    
