@<TRIPOS>MOLECULE
3R540
247   249    1
SMALL
USER_CHARGES


@<TRIPOS>ATOM
      1 CA          1.1394  -15.0119  -50.8684 C.3       0 UNK        -0.1800 
      2 C           1.1846  -14.1110  -49.6424 C.2       0 UNK         0.5000 
      3 O           0.2681  -13.3155  -49.4431 O.2       0 UNK        -0.5000 
      4 N           2.2652  -14.2246  -48.8555 N.am      1 UNK        -0.5000 
      5 CA          2.6076  -13.5934  -47.5658 C.3       1 UNK         0.1400 
      6 C6          1.8828  -14.2087  -46.3373 C.3       23 UNK        -0.0398 
      7 S7          0.0765  -13.9467  -46.2454 S.3       23 UNK        -0.2404 
      8 C8         -0.5142  -15.6350  -45.9218 C.3       23 UNK        -0.0205 
      9 C9         -0.5142  -16.5019  -47.1714 C.ar      23 UNK        -0.0193 
     10 C10        -1.6224  -16.5038  -48.0224 C.ar      23 UNK        -0.1150 
     11 C11        -1.6336  -17.2970  -49.1731 C.ar      23 UNK        -0.0193 
     12 C12        -0.5171  -18.0819  -49.4785 C.ar      23 UNK        -0.1150 
     13 C13         0.5960  -18.0911  -48.6322 C.ar      23 UNK        -0.0193 
     14 C14         0.5837  -17.3124  -47.4726 C.ar      23 UNK        -0.1150 
     15 C15         1.8250  -18.9210  -48.9759 C.3       23 UNK        -0.0205 
     16 S16         1.4982  -20.7103  -48.9620 S.3       23 UNK        -0.2404 
     17 C17         1.0224  -20.9989  -47.2220 C.3       23 UNK        -0.0398 
     18 CA          0.4516  -22.4204  -47.0054 C.3       11 UNK         0.1400 
     19 N           0.3911  -22.7822  -45.5887 N.am      11 UNK        -0.5000 
     20 C           0.0942  -24.0061  -45.1271 C.2       10 UNK         0.5000 
     21 O          -0.1140  -24.9828  -45.8473 O.2       10 UNK        -0.5000 
     22 CA         -0.0482  -24.1496  -43.6032 C.3       10 UNK         0.1400 
     23 CB          1.3269  -24.2284  -42.9243 C.3       10 UNK        -0.1800 
     24 N          -0.8240  -23.0547  -43.0220 N.am      10 UNK        -0.5000 
     25 C          -2.1299  -22.8514  -43.2462 C.2       9 UNK         0.5000 
     26 O          -2.8281  -23.5813  -43.9483 O.2       9 UNK        -0.5000 
     27 CA         -2.7507  -21.5979  -42.6079 C.3       9 UNK         0.1400 
     28 CB         -3.1546  -21.8728  -41.1518 C.3       9 UNK        -0.1800 
     29 N          -1.8592  -20.4387  -42.6561 N.am      9 UNK        -0.5000 
     30 C          -1.4781  -19.8250  -43.7850 C.2       8 UNK         0.5000 
     31 O          -1.8101  -20.1872  -44.9133 O.2       8 UNK        -0.5000 
     32 CA         -0.5345  -18.6232  -43.6176 C.3       8 UNK         0.1400 
     33 CB         -1.3032  -17.4173  -43.0522 C.3       8 UNK        -0.1800 
     34 N           0.6177  -18.8991  -42.7577 N.am      8 UNK        -0.5000 
     35 C           1.5228  -19.8702  -42.9458 C.2       7 UNK         0.5000 
     36 O           1.4563  -20.6981  -43.8565 O.2       7 UNK        -0.5000 
     37 CA          2.6744  -19.9357  -41.9208 C.3       7 UNK         0.1400 
     38 CB          3.9045  -20.7075  -42.4446 C.3       7 UNK        -0.1800 
     39 N           3.0611  -18.6223  -41.3827 N.am      7 UNK        -0.5000 
     40 C           3.6404  -17.6081  -42.0450 C.2       6 UNK         0.5000 
     41 O           3.8956  -17.6292  -43.2516 O.2       6 UNK        -0.5000 
     42 CA          4.0168  -16.3795  -41.1877 C.3       6 UNK         0.1400 
     43 CB          4.9880  -16.7663  -40.0568 C.3       6 UNK        -0.1800 
     44 N           4.6472  -15.3219  -41.9783 N.am      6 UNK        -0.5000 
     45 C           4.0002  -14.4144  -42.7172 C.2       5 UNK         0.5000 
     46 O           2.7715  -14.3382  -42.7975 O.2       5 UNK        -0.5000 
     47 CA          4.8978  -13.4459  -43.5132 C.3       5 UNK         0.1400 
     48 CB          5.3716  -14.0921  -44.8245 C.3       5 UNK        -0.1800 
     49 N           4.2325  -12.1732  -43.8045 N.am      5 UNK        -0.5000 
     50 C           4.0368  -11.2119  -42.8903 C.2       4 UNK         0.5000 
     51 O           4.3844  -11.3097  -41.7122 O.2       4 UNK        -0.5000 
     52 CA          3.3584   -9.9184  -43.3650 C.3       4 UNK         0.1400 
     53 CB          4.3412   -9.0588  -44.1770 C.3       4 UNK        -0.1800 
     54 N           2.1830  -10.1976  -44.1859 N.am      4 UNK        -0.5000 
     55 C           0.9127  -10.0021  -43.8043 C.2       3 UNK         0.5000 
     56 O           0.5977   -9.6258  -42.6739 O.2       3 UNK        -0.5000 
     57 CA         -0.1996  -10.2689  -44.8476 C.3       3 UNK         0.1400 
     58 CB         -1.3565   -9.2529  -44.7500 C.3       3 UNK        -0.1800 
     59 N           0.2882  -10.3748  -46.2279 N.am      3 UNK        -0.5000 
     60 C           0.9080   -9.4386  -46.9659 C.2       2 UNK         0.5000 
     61 O           1.0348   -8.2638  -46.6186 O.2       2 UNK        -0.5000 
     62 CA          1.5322   -9.9216  -48.2969 C.3       2 UNK         0.1400 
     63 CB          2.7921   -9.1188  -48.6820 C.3       2 UNK        -0.1800 
     64 N           1.8178  -11.3635  -48.3105 N.am      2 UNK        -0.5000 
     65 C           2.6087  -12.0514  -47.4766 C.2       1 UNK         0.5000 
     66 O           3.2890  -11.5213  -46.5946 O.2       1 UNK        -0.5000 
     67 C          -0.9162  -22.6071  -47.6928 C.2       11 UNK         0.5000 
     68 O          -0.9788  -23.2489  -48.7408 O.2       11 UNK        -0.5000 
     69 N          -1.9895  -22.0979  -47.0690 N.am      12 UNK        -0.5000 
     70 CA         -3.3624  -22.2428  -47.5505 C.3       12 UNK         0.1400 
     71 CB         -4.3211  -21.4335  -46.6667 C.3       12 UNK        -0.1800 
     72 C          -3.8099  -23.7111  -47.6471 C.2       12 UNK         0.5000 
     73 O          -4.3929  -24.0886  -48.6624 O.2       12 UNK        -0.5000 
     74 N          -3.4983  -24.5191  -46.6236 N.am      13 UNK        -0.5000 
     75 CA         -3.7671  -25.9576  -46.5932 C.3       13 UNK         0.1400 
     76 CB         -3.4287  -26.5248  -45.2066 C.3       13 UNK        -0.1800 
     77 C          -3.0196  -26.7255  -47.6977 C.2       13 UNK         0.5000 
     78 O          -3.6407  -27.5183  -48.4071 O.2       13 UNK        -0.5000 
     79 N          -1.7182  -26.4424  -47.8580 N.am      14 UNK        -0.5000 
     80 CA         -0.8643  -27.0137  -48.9040 C.3       14 UNK         0.1400 
     81 CB          0.5905  -26.5795  -48.6705 C.3       14 UNK        -0.1800 
     82 C          -1.3207  -26.6398  -50.3276 C.2       14 UNK         0.5000 
     83 O          -1.2329  -27.4677  -51.2346 O.2       14 UNK        -0.5000 
     84 N          -1.8386  -25.4159  -50.4831 N.am      15 UNK        -0.5000 
     85 CA         -2.4085  -24.8785  -51.7166 C.3       15 UNK         0.1400 
     86 CB         -2.1956  -23.3571  -51.7290 C.3       15 UNK        -0.1800 
     87 C          -3.8923  -25.2492  -51.9341 C.2       15 UNK         0.5000 
     88 O          -4.5218  -24.6636  -52.8158 O.2       15 UNK        -0.5000 
     89 N          -4.4247  -26.2017  -51.1518 N.am      16 UNK        -0.5000 
     90 CA         -5.7768  -26.7657  -51.2308 C.3       16 UNK         0.1400 
     91 CB         -5.9747  -27.5235  -52.5609 C.3       16 UNK        -0.1800 
     92 C          -6.8691  -25.7104  -50.9700 C.2       16 UNK         0.5000 
     93 O          -7.6844  -25.4228  -51.8469 O.2       16 UNK        -0.5000 
     94 N          -6.8312  -25.1298  -49.7632 N.am      17 UNK        -0.5000 
     95 CA         -7.6614  -24.0166  -49.2858 C.3       17 UNK         0.1400 
     96 CB         -9.1552  -24.4012  -49.2375 C.3       17 UNK        -0.1800 
     97 C          -7.3822  -22.7208  -50.0744 C.2       17 UNK         0.5000 
     98 O          -8.3075  -21.9891  -50.4281 O.2       17 UNK        -0.5000 
     99 N          -6.0894  -22.4912  -50.3471 N.am      18 UNK        -0.5000 
    100 CA        -5.4965  -21.3804  -51.0979 C.3       18 UNK         0.1400 
    101 CB        -5.7662  -20.0318  -50.4005 C.3       18 UNK        -0.1800 
    102 C         -5.8545  -21.3375  -52.5982 C.2       18 UNK         0.5000 
    103 O         -5.4661  -20.3811  -53.2691 O.2       18 UNK        -0.5000 
    104 N         -6.5420  -22.3612  -53.1231 N.am      19 UNK        -0.5000 
    105 CA        -6.9994  -22.4468  -54.5127 C.3       19 UNK         0.1400 
    106 CB        -7.8681  -23.7012  -54.6824 C.3       19 UNK        -0.1800 
    107 C         -5.8581  -22.4409  -55.5469 C.2       19 UNK         0.5000 
    108 O         -6.0137  -21.8549  -56.6187 O.2       19 UNK        -0.5000 
    109 N         -4.7279  -23.0671  -55.1978 N.am      20 UNK        -0.5000 
    110 CA        -3.5133  -23.1101  -56.0136 C.3       20 UNK         0.1400 
    111 CB        -2.7866  -24.4369  -55.7400 C.3       20 UNK        -0.1800 
    112 C         -2.5732  -21.9103  -55.7672 C.2       20 UNK         0.5000 
    113 O         -1.5208  -21.8419  -56.4044 O.2       20 UNK        -0.5000 
    114 N         -2.9390  -21.0065  -54.8486 N.am      21 UNK        -0.5000 
    115 CA        -2.1549  -19.8422  -54.4509 C.3       21 UNK         0.1400 
    116 CB        -1.6785  -20.0265  -52.9945 C.3       21 UNK        -0.1800 
    117 C         -2.9893  -18.5709  -54.6790 C.2       21 UNK         0.5000 
    118 O         -3.1136  -18.1290  -55.8222 O.2       21 UNK        -0.5000 
    119 N         -3.5205  -17.9961  -53.5943 N.am      22 UNK        -0.5000 
    120 CA        -4.2768  -16.7347  -53.5735 C.3       22 UNK         0.1400 
    121 C         -5.6726  -16.7893  -54.2601 C.2       22 UNK         0.5000 
    122 N         -6.2862  -17.9528  -54.4307 N.am      22 UNK        -0.7600 
    123 O         -6.2058  -15.7529  -54.6471 O.2       22 UNK        -0.5000 
    124 C124       -4.4093  -16.1729  -52.1344 C.3       23 UNK        -0.0398 
    125 S125       -2.8028  -15.9564  -51.2905 S.3       23 UNK        -0.2404 
    126 C126       -2.8567  -17.3098  -50.0754 C.3       23 UNK        -0.0205 
    127 H127        1.9577  -15.7321  -50.8758 H         1 UNK         0.0600 
    128 H128        1.1987  -14.4140  -51.7776 H         1 UNK         0.0600 
    129 H129        0.2029  -15.5680  -50.8870 H         1 UNK         0.0600 
    130 H130        2.9688  -14.8799  -49.1653 H         1 UNK         0.3000 
    131 H131        3.6608  -13.8517  -47.4522 H         1 UNK         0.0600 
    132 H132        2.1078  -15.2718  -46.2920 H         1 UNK         0.0800 
    133 H133        2.2983  -13.8037  -45.4142 H         1 UNK         0.0800 
    134 H134        0.1102  -16.0809  -45.1484 H         1 UNK         0.0800 
    135 H135       -1.5241  -15.5798  -45.5136 H         1 UNK         0.0800 
    136 H136       -2.4768  -15.8835  -47.7907 H         1 UNK         0.1150 
    137 H137       -0.5118  -18.6897  -50.3715 H         1 UNK         0.1150 
    138 H138        1.4365  -17.3325  -46.8101 H         1 UNK         0.1150 
    139 H139        2.1749  -18.6361  -49.9689 H         1 UNK         0.0800 
    140 H140        2.6460  -18.7063  -48.2900 H         1 UNK         0.0800 
    141 H141        0.3070  -20.2424  -46.8951 H         1 UNK         0.0800 
    142 H142        1.9145  -20.8579  -46.6102 H         1 UNK         0.0800 
    143 H143        1.1428  -23.1275  -47.4696 H         1 UNK         0.0600 
    144 H144        0.5801  -22.0375  -44.9230 H         1 UNK         0.3000 
    145 H145       -0.5789  -25.0831  -43.4040 H         1 UNK         0.0600 
    146 H146        1.2288  -24.3876  -41.8504 H         1 UNK         0.0600 
    147 H147        1.9108  -25.0585  -43.3241 H         1 UNK         0.0600 
    148 H148        1.9051  -23.3178  -43.0779 H         1 UNK         0.0600 
    149 H149       -0.3195  -22.3818  -42.4654 H         1 UNK         0.3000 
    150 H150       -3.6536  -21.3522  -43.1709 H         1 UNK         0.0600 
    151 H151       -3.8339  -22.7241  -41.0900 H         1 UNK         0.0600 
    152 H152       -3.6695  -21.0159  -40.7171 H         1 UNK         0.0600 
    153 H153       -2.2890  -22.0974  -40.5273 H         1 UNK         0.0600 
    154 H154       -1.5273  -20.0793  -41.7733 H         1 UNK         0.3000 
    155 H155       -0.1520  -18.3679  -44.6071 H         1 UNK         0.0600 
    156 H156       -1.7014  -17.6208  -42.0574 H         1 UNK         0.0600 
    157 H157       -0.6654  -16.5369  -42.9750 H         1 UNK         0.0600 
    158 H158       -2.1466  -17.1570  -43.6929 H         1 UNK         0.0600 
    159 H159        0.7580  -18.2709  -41.9806 H         1 UNK         0.3000 
    160 H160        2.2800  -20.5000  -41.0746 H         1 UNK         0.0600 
    161 H161        4.3073  -20.2619  -43.3545 H         1 UNK         0.0600 
    162 H162        3.6504  -21.7415  -42.6771 H         1 UNK         0.0600 
    163 H163        4.7012  -20.7319  -41.7013 H         1 UNK         0.0600 
    164 H164        2.8922  -18.5027  -40.3934 H         1 UNK         0.3000 
    165 H165        3.1003  -15.9890  -40.7404 H         1 UNK         0.0600 
    166 H166        5.2736  -15.8942  -39.4681 H         1 UNK         0.0600 
    167 H167        4.5380  -17.4800  -39.3662 H         1 UNK         0.0600 
    168 H168        5.9004  -17.2187  -40.4478 H         1 UNK         0.0600 
    169 H169        5.6558  -15.3423  -42.0121 H         1 UNK         0.3000 
    170 H170        5.7834  -13.2267  -42.9123 H         1 UNK         0.0600 
    171 H171        4.5433  -14.4994  -45.3997 H         1 UNK         0.0600 
    172 H172        5.9062  -13.3796  -45.4532 H         1 UNK         0.0600 
    173 H173        6.0523  -14.9196  -44.6215 H         1 UNK         0.0600 
    174 H174        3.9224  -12.0180  -44.7570 H         1 UNK         0.3000 
    175 H175        3.0777   -9.3480  -42.4771 H         1 UNK         0.0600 
    176 H176        3.8862   -8.1108  -44.4648 H         1 UNK         0.0600 
    177 H177        4.6644   -9.5622  -45.0891 H         1 UNK         0.0600 
    178 H178        5.2336   -8.8282  -43.5937 H         1 UNK         0.0600 
    179 H179        2.3663  -10.5360  -45.1241 H         1 UNK         0.3000 
    180 H180       -0.6059  -11.2506  -44.6005 H         1 UNK         0.0600 
    181 H181       -1.0124   -8.2295  -44.9011 H         1 UNK         0.0600 
    182 H182       -1.8324   -9.2941  -43.7697 H         1 UNK         0.0600 
    183 H183       -2.1279   -9.4613  -45.4913 H         1 UNK         0.0600 
    184 H184        0.2361  -11.3041  -46.6237 H         1 UNK         0.3000 
    185 H185        0.7786   -9.7515  -49.0668 H         1 UNK         0.0600 
    186 H186        2.5563   -8.0636  -48.8238 H         1 UNK         0.0600 
    187 H187        3.5627   -9.1802  -47.9129 H         1 UNK         0.0600 
    188 H188        3.2205   -9.4819  -49.6162 H         1 UNK         0.0600 
    189 H189        1.2298  -11.9248  -48.9261 H         1 UNK         0.3000 
    190 H190       -1.8612  -21.5540  -46.2190 H         1 UNK         0.3000 
    191 H191       -3.3999  -21.8219  -48.5572 H         1 UNK         0.0600 
    192 H192       -4.0615  -20.3747  -46.6730 H         1 UNK         0.0600 
    193 H193       -5.3483  -21.5188  -47.0239 H         1 UNK         0.0600 
    194 H194       -4.3011  -21.7766  -45.6320 H         1 UNK         0.0600 
    195 H195       -3.0544  -24.1244  -45.7991 H         1 UNK         0.3000 
    196 H196       -4.8370  -26.0970  -46.7610 H         1 UNK         0.0600 
    197 H197       -3.6177  -27.5982  -45.1654 H         1 UNK         0.0600 
    198 H198       -4.0376  -26.0582  -44.4322 H         1 UNK         0.0600 
    199 H199       -2.3813  -26.3644  -44.9493 H         1 UNK         0.0600 
    200 H200       -1.2743  -25.7876  -47.2198 H         1 UNK         0.3000 
    201 H201       -0.9139  -28.1009  -48.8163 H         1 UNK         0.0600 
    202 H202        0.9498  -26.9138  -47.6972 H         1 UNK         0.0600 
    203 H203        0.6975  -25.4949  -48.7113 H         1 UNK         0.0600 
    204 H204        1.2525  -27.0047  -49.4258 H         1 UNK         0.0600 
    205 H205       -1.8108  -24.7785  -49.6923 H         1 UNK         0.3000 
    206 H206       -1.8598  -25.2953  -52.5627 H         1 UNK         0.0600 
    207 H207       -1.1333  -23.1131  -51.7150 H         1 UNK         0.0600 
    208 H208       -2.6210  -22.8954  -52.6200 H         1 UNK         0.0600 
    209 H209       -2.6495  -22.8894  -50.8569 H         1 UNK         0.0600 
    210 H210       -3.8429  -26.5838  -50.4165 H         1 UNK         0.3000 
    211 H211       -5.8523  -27.4973  -50.4249 H         1 UNK         0.0600 
    212 H212       -5.9348  -26.8566  -53.4228 H         1 UNK         0.0600 
    213 H213       -6.9436  -28.0236  -52.5820 H         1 UNK         0.0600 
    214 H214       -5.2107  -28.2892  -52.6947 H         1 UNK         0.0600 
    215 H215       -6.0465  -25.3574  -49.1644 H         1 UNK         0.3000 
    216 H216       -7.3428  -23.8198  -48.2610 H         1 UNK         0.0600 
    217 H217       -9.7399  -23.6240  -48.7442 H         1 UNK         0.0600 
    218 H218       -9.3066  -25.3246  -48.6786 H         1 UNK         0.0600 
    219 H219       -9.5754  -24.5386  -50.2341 H         1 UNK         0.0600 
    220 H220       -5.4275  -23.1720  -49.9835 H         1 UNK         0.3000 
    221 H221       -4.4211  -21.5407  -51.0645 H         1 UNK         0.0600 
    222 H222       -6.8228  -19.7653  -50.4255 H         1 UNK         0.0600 
    223 H223       -5.4491  -20.0556  -49.3580 H         1 UNK         0.0600 
    224 H224       -5.2195  -19.2234  -50.8854 H         1 UNK         0.0600 
    225 H225       -6.7766  -23.1418  -52.5248 H         1 UNK         0.3000 
    226 H226       -7.6225  -21.5713  -54.7061 H         1 UNK         0.0600 
    227 H227       -8.7196  -23.6872  -54.0017 H         1 UNK         0.0600 
    228 H228       -8.2622  -23.7713  -55.6970 H         1 UNK         0.0600 
    229 H229       -7.2983  -24.6107  -54.4865 H         1 UNK         0.0600 
    230 H230       -4.6955  -23.5535  -54.3031 H         1 UNK         0.3000 
    231 H231       -3.7887  -23.0935  -57.0701 H         1 UNK         0.0600 
    232 H232       -2.4041  -24.4797  -54.7214 H         1 UNK         0.0600 
    233 H233       -1.9381  -24.5655  -56.4130 H         1 UNK         0.0600 
    234 H234       -3.4494  -25.2900  -55.8865 H         1 UNK         0.0600 
    235 H235       -3.8576  -21.0825  -54.4278 H         1 UNK         0.3000 
    236 H236       -1.2667  -19.7385  -55.0773 H         1 UNK         0.0600 
    237 H237       -0.9812  -20.8607  -52.9209 H         1 UNK         0.0600 
    238 H238       -1.1502  -19.1407  -52.6398 H         1 UNK         0.0600 
    239 H239       -2.5040  -20.2267  -52.3108 H         1 UNK         0.0600 
    240 H240       -3.3868  -18.4441  -52.7026 H         1 UNK         0.3000 
    241 H241       -3.6920  -16.0136  -54.1481 H         1 UNK         0.0600 
    242 H242       -7.1857  -17.9770  -54.8822 H         1 UNK         0.3800 
    243 H243       -5.8769  -18.8147  -54.0746 H         1 UNK         0.3800 
    244 H244       -4.8942  -15.1953  -52.1575 H         1 UNK         0.0800 
    245 H245       -5.0579  -16.8121  -51.5334 H         1 UNK         0.0800 
    246 H246       -3.7594  -17.2201  -49.4689 H         1 UNK         0.0800 
    247 H247       -2.9257  -18.2667  -50.5929 H         1 UNK         0.0800 
@<TRIPOS>BOND
     1    1    2 1    
     2    1  127 1    
     3    1  128 1    
     4    1  129 1    
     5    2    3 2    
     6    2    4 am   BACKBONE|DICT|INTERRES
     7    4    5 1    
     8    4  130 1    
     9    5    6 1    
    10    5   65 1    
    11    5  131 1    
    12    6    7 1    
    13    6  132 1    
    14    6  133 1    
    15    7    8 1    
    16    8    9 1    
    17    8  134 1    
    18    8  135 1    
    19    9   10 ar   
    20    9   14 ar   
    21   10   11 ar   
    22   10  136 1    
    23   11   12 ar   
    24   11  126 1    
    25   12   13 ar   
    26   12  137 1    
    27   13   14 ar   
    28   13   15 1    
    29   14  138 1    
    30   15   16 1    
    31   15  139 1    
    32   15  140 1    
    33   16   17 1    
    34   17   18 1    
    35   17  141 1    
    36   17  142 1    
    37   18   19 1    
    38   18   67 1    
    39   18  143 1    
    40   19   20 am   BACKBONE|DICT|INTERRES
    41   19  144 1    
    42   20   21 2    
    43   20   22 1    
    44   22   23 1    
    45   22   24 1    
    46   22  145 1    
    47   23  146 1    
    48   23  147 1    
    49   23  148 1    
    50   24   25 am   BACKBONE|DICT|INTERRES
    51   24  149 1    
    52   25   26 2    
    53   25   27 1    
    54   27   28 1    
    55   27   29 1    
    56   27  150 1    
    57   28  151 1    
    58   28  152 1    
    59   28  153 1    
    60   29   30 am   BACKBONE|DICT|INTERRES
    61   29  154 1    
    62   30   31 2    
    63   30   32 1    
    64   32   33 1    
    65   32   34 1    
    66   32  155 1    
    67   33  156 1    
    68   33  157 1    
    69   33  158 1    
    70   34   35 am   BACKBONE|DICT|INTERRES
    71   34  159 1    
    72   35   36 2    
    73   35   37 1    
    74   37   38 1    
    75   37   39 1    
    76   37  160 1    
    77   38  161 1    
    78   38  162 1    
    79   38  163 1    
    80   39   40 am   BACKBONE|DICT|INTERRES
    81   39  164 1    
    82   40   41 2    
    83   40   42 1    
    84   42   43 1    
    85   42   44 1    
    86   42  165 1    
    87   43  166 1    
    88   43  167 1    
    89   43  168 1    
    90   44   45 am   BACKBONE|DICT|INTERRES
    91   44  169 1    
    92   45   46 2    
    93   45   47 1    
    94   47   48 1    
    95   47   49 1    
    96   47  170 1    
    97   48  171 1    
    98   48  172 1    
    99   48  173 1    
   100   49   50 am   BACKBONE|DICT|INTERRES
   101   49  174 1    
   102   50   51 2    
   103   50   52 1    
   104   52   53 1    
   105   52   54 1    
   106   52  175 1    
   107   53  176 1    
   108   53  177 1    
   109   53  178 1    
   110   54   55 am   BACKBONE|DICT|INTERRES
   111   54  179 1    
   112   55   56 2    
   113   55   57 1    
   114   57   58 1    
   115   57   59 1    
   116   57  180 1    
   117   58  181 1    
   118   58  182 1    
   119   58  183 1    
   120   59   60 am   BACKBONE|DICT|INTERRES
   121   59  184 1    
   122   60   61 2    
   123   60   62 1    
   124   62   63 1    
   125   62   64 1    
   126   62  185 1    
   127   63  186 1    
   128   63  187 1    
   129   63  188 1    
   130   64   65 am   BACKBONE|DICT|INTERRES
   131   64  189 1    
   132   65   66 2    
   133   67   68 2    
   134   67   69 am   BACKBONE|DICT|INTERRES
   135   69   70 1    
   136   69  190 1    
   137   70   71 1    
   138   70   72 1    
   139   70  191 1    
   140   71  192 1    
   141   71  193 1    
   142   71  194 1    
   143   72   73 2    
   144   72   74 am   BACKBONE|DICT|INTERRES
   145   74   75 1    
   146   74  195 1    
   147   75   76 1    
   148   75   77 1    
   149   75  196 1    
   150   76  197 1    
   151   76  198 1    
   152   76  199 1    
   153   77   78 2    
   154   77   79 am   BACKBONE|DICT|INTERRES
   155   79   80 1    
   156   79  200 1    
   157   80   81 1    
   158   80   82 1    
   159   80  201 1    
   160   81  202 1    
   161   81  203 1    
   162   81  204 1    
   163   82   83 2    
   164   82   84 am   BACKBONE|DICT|INTERRES
   165   84   85 1    
   166   84  205 1    
   167   85   86 1    
   168   85   87 1    
   169   85  206 1    
   170   86  207 1    
   171   86  208 1    
   172   86  209 1    
   173   87   88 2    
   174   87   89 am   BACKBONE|DICT|INTERRES
   175   89   90 1    
   176   89  210 1    
   177   90   91 1    
   178   90   92 1    
   179   90  211 1    
   180   91  212 1    
   181   91  213 1    
   182   91  214 1    
   183   92   93 2    
   184   92   94 am   BACKBONE|DICT|INTERRES
   185   94   95 1    
   186   94  215 1    
   187   95   96 1    
   188   95   97 1    
   189   95  216 1    
   190   96  217 1    
   191   96  218 1    
   192   96  219 1    
   193   97   98 2    
   194   97   99 am   BACKBONE|DICT|INTERRES
   195   99  100 1    
   196   99  220 1    
   197  100  101 1    
   198  100  102 1    
   199  100  221 1    
   200  101  222 1    
   201  101  223 1    
   202  101  224 1    
   203  102  103 2    
   204  102  104 am   BACKBONE|DICT|INTERRES
   205  104  105 1    
   206  104  225 1    
   207  105  106 1    
   208  105  107 1    
   209  105  226 1    
   210  106  227 1    
   211  106  228 1    
   212  106  229 1    
   213  107  108 2    
   214  107  109 am   BACKBONE|DICT|INTERRES
   215  109  110 1    
   216  109  230 1    
   217  110  111 1    
   218  110  112 1    
   219  110  231 1    
   220  111  232 1    
   221  111  233 1    
   222  111  234 1    
   223  112  113 2    
   224  112  114 am   BACKBONE|DICT|INTERRES
   225  114  115 1    
   226  114  235 1    
   227  115  116 1    
   228  115  117 1    
   229  115  236 1    
   230  116  237 1    
   231  116  238 1    
   232  116  239 1    
   233  117  118 2    
   234  117  119 am   BACKBONE|DICT|INTERRES
   235  119  120 1    
   236  119  240 1    
   237  120  121 1    
   238  120  124 1    
   239  120  241 1    
   240  121  122 am   BACKBONE|DICT|INTERRES
   241  121  123 2    
   242  122  242 1    
   243  122  243 1    
   244  124  125 1    
   245  124  244 1    
   246  124  245 1    
   247  125  126 1    
   248  126  246 1    
   249  126  247 1    
@<TRIPOS>SUBSTRUCTURE
     1 UNK         1 GROUP             0       ****    0 ROOT    
