@<TRIPOS>MOLECULE
3R540
247   249    1
SMALL
USER_CHARGES


@<TRIPOS>ATOM
      1 CA          2.4440  -14.5702  -44.4597 C.3       0 UNK        -0.1800 
      2 C           3.9139  -14.9347  -44.3248 C.2       0 UNK         0.5000 
      3 O           4.5205  -14.6798  -43.2850 O.2       0 UNK        -0.5000 
      4 N           4.4827  -15.5585  -45.3638 N.am      1 UNK        -0.5000 
      5 CA          5.8968  -15.9534  -45.4535 C.3       1 UNK         0.1400 
      6 C6          6.3166  -16.3055  -46.9030 C.3       23 UNK        -0.0398 
      7 S7          5.2073  -17.4641  -47.7803 S.3       23 UNK        -0.2404 
      8 C8          5.9510  -17.3596  -49.4366 C.3       23 UNK        -0.0205 
      9 C9          5.1567  -18.1174  -50.4893 C.ar      23 UNK        -0.0193 
     10 C10         4.2523  -17.4383  -51.3128 C.ar      23 UNK        -0.1150 
     11 C11         3.5868  -18.1085  -52.3447 C.ar      23 UNK        -0.0193 
     12 C12         3.8434  -19.4643  -52.5536 C.ar      23 UNK        -0.1150 
     13 C13         4.7102  -20.1657  -51.7112 C.ar      23 UNK        -0.0193 
     14 C14         5.3679  -19.4862  -50.6816 C.ar      23 UNK        -0.1150 
     15 C15         4.9467  -21.6528  -51.9327 C.3       23 UNK        -0.0205 
     16 S16         4.0037  -22.6937  -50.7705 S.3       23 UNK        -0.2404 
     17 C17         2.2690  -22.2825  -51.1799 C.3       23 UNK        -0.0398 
     18 CA          1.3752  -22.1428  -49.9261 C.3       11 UNK         0.1400 
     19 N           1.9388  -21.2457  -48.9126 N.am      11 UNK        -0.5000 
     20 C           1.6734  -21.3434  -47.6039 C.2       10 UNK         0.5000 
     21 O           0.8825  -22.1563  -47.1261 O.2       10 UNK        -0.5000 
     22 CA          2.3762  -20.3261  -46.6918 C.3       10 UNK         0.1400 
     23 CB          3.8551  -20.6997  -46.5130 C.3       10 UNK        -0.1800 
     24 N           2.2938  -18.9601  -47.2089 N.am      10 UNK        -0.5000 
     25 C           1.1625  -18.2642  -47.3684 C.2       9 UNK         0.5000 
     26 O           0.0369  -18.7102  -47.1311 O.2       9 UNK        -0.5000 
     27 CA          1.3220  -16.8450  -47.9205 C.3       9 UNK         0.1400 
     28 CB          1.2492  -16.8577  -49.4541 C.3       9 UNK        -0.1800 
     29 N           0.2869  -15.9872  -47.3579 N.am      9 UNK        -0.5000 
     30 C           0.2697  -14.6494  -47.4120 C.2       8 UNK         0.5000 
     31 O           1.1472  -13.9855  -47.9654 O.2       8 UNK        -0.5000 
     32 CA         -0.8768  -13.9186  -46.6827 C.3       8 UNK         0.1400 
     33 CB         -1.4237  -12.7155  -47.4783 C.3       8 UNK        -0.1800 
     34 N          -1.9501  -14.8049  -46.2244 N.am      8 UNK        -0.5000 
     35 C          -2.8972  -15.4265  -46.9417 C.2       7 UNK         0.5000 
     36 O          -3.0353  -15.3092  -48.1586 O.2       7 UNK        -0.5000 
     37 CA         -3.8426  -16.3594  -46.1623 C.3       7 UNK         0.1400 
     38 CB         -3.3865  -17.8148  -46.3187 C.3       7 UNK        -0.1800 
     39 N          -3.8768  -16.0374  -44.7335 N.am      7 UNK        -0.5000 
     40 C          -4.8422  -15.3265  -44.1353 C.2       6 UNK         0.5000 
     41 O          -5.8395  -14.8967  -44.7161 O.2       6 UNK        -0.5000 
     42 CA         -4.6622  -15.0397  -42.6309 C.3       6 UNK         0.1400 
     43 CB         -5.2683  -16.1749  -41.7916 C.3       6 UNK        -0.1800 
     44 N          -3.2622  -14.8536  -42.2442 N.am      6 UNK        -0.5000 
     45 C          -2.4998  -13.8162  -42.6169 C.2       5 UNK         0.5000 
     46 O          -2.9156  -12.8684  -43.2833 O.2       5 UNK        -0.5000 
     47 CA         -1.0159  -13.8472  -42.2002 C.3       5 UNK         0.1400 
     48 CB         -0.7891  -12.9860  -40.9491 C.3       5 UNK        -0.1800 
     49 N          -0.4630  -15.1841  -41.9589 N.am      5 UNK        -0.5000 
     50 C          -0.3899  -16.1824  -42.8475 C.2       4 UNK         0.5000 
     51 O          -0.9089  -16.1285  -43.9635 O.2       4 UNK        -0.5000 
     52 CA          0.4202  -17.4269  -42.4259 C.3       4 UNK         0.1400 
     53 CB          0.6125  -18.4169  -43.5874 C.3       4 UNK        -0.1800 
     54 N           1.7471  -17.0838  -41.9160 N.am      4 UNK        -0.5000 
     55 C           2.0568  -16.5960  -40.7083 C.2       3 UNK         0.5000 
     56 O           1.2114  -16.3221  -39.8550 O.2       3 UNK        -0.5000 
     57 CA          3.5545  -16.3336  -40.4329 C.3       3 UNK         0.1400 
     58 CB          3.9556  -16.6500  -38.9772 C.3       3 UNK        -0.1800 
     59 N           4.4535  -16.9850  -41.3997 N.am      3 UNK        -0.5000 
     60 C           4.6789  -18.3001  -41.5599 C.2       2 UNK         0.5000 
     61 O           4.1820  -19.1686  -40.8424 O.2       2 UNK        -0.5000 
     62 CA          5.5665  -18.7073  -42.7544 C.3       2 UNK         0.1400 
     63 CB          5.2912  -20.1470  -43.2248 C.3       2 UNK        -0.1800 
     64 N           5.3745  -17.7830  -43.8776 N.am      2 UNK        -0.5000 
     65 C           6.3342  -17.0310  -44.4324 C.2       1 UNK         0.5000 
     66 O           7.5267  -17.1243  -44.1380 O.2       1 UNK        -0.5000 
     67 C          -0.0709  -21.7552  -50.3052 C.2       11 UNK         0.5000 
     68 O          -0.7447  -22.5392  -50.9726 O.2       11 UNK        -0.5000 
     69 N          -0.5410  -20.5730  -49.8779 N.am      12 UNK        -0.5000 
     70 CA         -1.9591  -20.2193  -49.8996 C.3       12 UNK         0.1400 
     71 CB         -2.1418  -18.6945  -49.8944 C.3       12 UNK        -0.1800 
     72 C          -2.6828  -20.8860  -48.7211 C.2       12 UNK         0.5000 
     73 O          -3.6968  -21.5442  -48.9415 O.2       12 UNK        -0.5000 
     74 N          -2.1214  -20.7729  -47.5062 N.am      13 UNK        -0.5000 
     75 CA         -2.6394  -21.4131  -46.2905 C.3       13 UNK         0.1400 
     76 CB         -1.8245  -20.9676  -45.0695 C.3       13 UNK        -0.1800 
     77 C          -2.6958  -22.9491  -46.3728 C.2       13 UNK         0.5000 
     78 O          -3.6531  -23.5447  -45.8787 O.2       13 UNK        -0.5000 
     79 N          -1.7180  -23.5578  -47.0581 N.am      14 UNK        -0.5000 
     80 CA         -1.6804  -24.9885  -47.3832 C.3       14 UNK         0.1400 
     81 CB         -0.3483  -25.3066  -48.0780 C.3       14 UNK        -0.1800 
     82 C          -2.8609  -25.4645  -48.2595 C.2       14 UNK         0.5000 
     83 O          -3.2023  -26.6468  -48.2244 O.2       14 UNK        -0.5000 
     84 N          -3.4670  -24.5360  -49.0092 N.am      15 UNK        -0.5000 
     85 CA         -4.6451  -24.7328  -49.8519 C.3       15 UNK         0.1400 
     86 CB         -4.3090  -24.1865  -51.2476 C.3       15 UNK        -0.1800 
     87 C          -5.8924  -24.0458  -49.2499 C.2       15 UNK         0.5000 
     88 O          -6.8803  -23.8351  -49.9604 O.2       15 UNK        -0.5000 
     89 N          -5.8144  -23.6721  -47.9605 N.am      16 UNK        -0.5000 
     90 CA         -6.8220  -22.9821  -47.1430 C.3       16 UNK         0.1400 
     91 CB         -8.0392  -23.9025  -46.9178 C.3       16 UNK        -0.1800 
     92 C          -7.2383  -21.5924  -47.6754 C.2       16 UNK         0.5000 
     93 O          -8.2813  -21.0766  -47.2714 O.2       16 UNK        -0.5000 
     94 N          -6.4404  -21.0319  -48.5977 N.am      17 UNK        -0.5000 
     95 CA         -6.7110  -19.8620  -49.4389 C.3       17 UNK         0.1400 
     96 CB         -6.6869  -18.5724  -48.5940 C.3       17 UNK        -0.1800 
     97 C          -7.9988  -20.0046  -50.2859 C.2       17 UNK         0.5000 
     98 O          -8.5988  -18.9937  -50.6563 O.2       17 UNK        -0.5000 
     99 N          -8.4165  -21.2514  -50.5495 N.am      18 UNK        -0.5000 
    100 CA        -9.7082  -21.5956  -51.1387 C.3       18 UNK         0.1400 
    101 CB       -10.5972  -22.2405  -50.0629 C.3       18 UNK        -0.1800 
    102 C         -9.5441  -22.5309  -52.3415 C.2       18 UNK         0.5000 
    103 O        -10.1595  -22.2851  -53.3799 O.2       18 UNK        -0.5000 
    104 N         -8.7129  -23.5743  -52.2013 N.am      19 UNK        -0.5000 
    105 CA        -8.3954  -24.5030  -53.2899 C.3       19 UNK         0.1400 
    106 CB        -7.8765  -25.8238  -52.7003 C.3       19 UNK        -0.1800 
    107 C         -7.3865  -23.9015  -54.2871 C.2       19 UNK         0.5000 
    108 O         -7.3915  -24.2743  -55.4608 O.2       19 UNK        -0.5000 
    109 N         -6.5633  -22.9671  -53.8018 N.am      20 UNK        -0.5000 
    110 CA        -5.5724  -22.1877  -54.5290 C.3       20 UNK         0.1400 
    111 CB        -4.3803  -23.0741  -54.9344 C.3       20 UNK        -0.1800 
    112 C         -5.1278  -21.0414  -53.6073 C.2       20 UNK         0.5000 
    113 O         -5.3464  -21.1124  -52.3944 O.2       20 UNK        -0.5000 
    114 N         -4.5126  -20.0088  -54.1887 N.am      21 UNK        -0.5000 
    115 CA        -3.9915  -18.8453  -53.4790 C.3       21 UNK         0.1400 
    116 CB        -5.1494  -17.9353  -53.0144 C.3       21 UNK        -0.1800 
    117 C         -3.0138  -18.1047  -54.4123 C.2       21 UNK         0.5000 
    118 O         -3.4571  -17.2294  -55.1551 O.2       21 UNK        -0.5000 
    119 N         -1.7128  -18.4227  -54.4355 N.am      22 UNK        -0.5000 
    120 CA        -1.0101  -19.5266  -53.7587 C.3       22 UNK         0.1400 
    121 C         -1.2461  -20.8884  -54.4678 C.2       22 UNK         0.5000 
    122 N         -1.2523  -21.9978  -53.7413 N.am      22 UNK        -0.7600 
    123 O         -1.3957  -20.9528  -55.6854 O.2       22 UNK        -0.5000 
    124 C124        0.5091  -19.2376  -53.6630 C.3       23 UNK        -0.0398 
    125 S125        0.8750  -17.6788  -52.7855 S.3       23 UNK        -0.2404 
    126 C126        2.6106  -17.3677  -53.2483 C.3       23 UNK        -0.0205 
    127 H127        1.8750  -15.3999  -44.8784 H         1 UNK         0.0600 
    128 H128        2.3281  -13.7034  -45.1100 H         1 UNK         0.0600 
    129 H129        2.0198  -14.3244  -43.4864 H         1 UNK         0.0600 
    130 H130        3.9415  -15.7292  -46.1981 H         1 UNK         0.3000 
    131 H131        6.4715  -15.0658  -45.1789 H         1 UNK         0.0600 
    132 H132        7.3349  -16.6983  -46.9314 H         1 UNK         0.0800 
    133 H133        6.3485  -15.3817  -47.4825 H         1 UNK         0.0800 
    134 H134        6.9696  -17.7491  -49.3963 H         1 UNK         0.0800 
    135 H135        6.0384  -16.3117  -49.7283 H         1 UNK         0.0800 
    136 H136        4.0778  -16.3824  -51.1600 H         1 UNK         0.1150 
    137 H137        3.3542  -19.9799  -53.3673 H         1 UNK         0.1150 
    138 H138        6.0579  -20.0189  -50.0420 H         1 UNK         0.1150 
    139 H139        4.6903  -21.9353  -52.9551 H         1 UNK         0.0800 
    140 H140        6.0093  -21.8706  -51.8166 H         1 UNK         0.0800 
    141 H141        1.8853  -23.0685  -51.8330 H         1 UNK         0.0800 
    142 H142        2.2312  -21.3674  -51.7620 H         1 UNK         0.0800 
    143 H143        1.3150  -23.1388  -49.4838 H         1 UNK         0.0600 
    144 H144        2.6106  -20.5627  -49.2320 H         1 UNK         0.3000 
    145 H145        1.8888  -20.3492  -45.7149 H         1 UNK         0.0600 
    146 H146        4.3767  -19.9585  -45.9097 H         1 UNK         0.0600 
    147 H147        3.9577  -21.6641  -46.0141 H         1 UNK         0.0600 
    148 H148        4.3769  -20.7655  -47.4690 H         1 UNK         0.0600 
    149 H149        3.1747  -18.5297  -47.4607 H         1 UNK         0.3000 
    150 H150        2.2959  -16.4629  -47.6108 H         1 UNK         0.0600 
    151 H151        1.8767  -17.6452  -49.8711 H         1 UNK         0.0600 
    152 H152        1.5923  -15.9141  -49.8780 H         1 UNK         0.0600 
    153 H153        0.2331  -17.0281  -49.8063 H         1 UNK         0.0600 
    154 H154       -0.4451  -16.4760  -46.8586 H         1 UNK         0.3000 
    155 H155       -0.4303  -13.5209  -45.7704 H         1 UNK         0.0600 
    156 H156       -0.6444  -11.9707  -47.6429 H         1 UNK         0.0600 
    157 H157       -2.2335  -12.2224  -46.9404 H         1 UNK         0.0600 
    158 H158       -1.7991  -13.0113  -48.4580 H         1 UNK         0.0600 
    159 H159       -1.8723  -15.0719  -45.2488 H         1 UNK         0.3000 
    160 H160       -4.8398  -16.2671  -46.5977 H         1 UNK         0.0600 
    161 H161       -2.3566  -17.9466  -45.9865 H         1 UNK         0.0600 
    162 H162       -3.4392  -18.1260  -47.3607 H         1 UNK         0.0600 
    163 H163       -4.0192  -18.4934  -45.7468 H         1 UNK         0.0600 
    164 H164       -3.0739  -16.3235  -44.1878 H         1 UNK         0.3000 
    165 H165       -5.2033  -14.1192  -42.4016 H         1 UNK         0.0600 
    166 H166       -5.2158  -15.9494  -40.7263 H         1 UNK         0.0600 
    167 H167       -6.3200  -16.3246  -42.0394 H         1 UNK         0.0600 
    168 H168       -4.7533  -17.1214  -41.9613 H         1 UNK         0.0600 
    169 H169       -2.8397  -15.5812  -41.6868 H         1 UNK         0.3000 
    170 H170       -0.4473  -13.4071  -43.0219 H         1 UNK         0.0600 
    171 H171       -1.1588  -11.9706  -41.0985 H         1 UNK         0.0600 
    172 H172       -1.3026  -13.3989  -40.0799 H         1 UNK         0.0600 
    173 H173        0.2717  -12.9119  -40.7083 H         1 UNK         0.0600 
    174 H174       -0.0133  -15.3349  -41.0610 H         1 UNK         0.3000 
    175 H175       -0.1442  -17.9288  -41.6377 H         1 UNK         0.0600 
    176 H176       -0.3432  -18.6978  -44.0244 H         1 UNK         0.0600 
    177 H177        1.2187  -17.9863  -44.3844 H         1 UNK         0.0600 
    178 H178        1.0982  -19.3336  -43.2525 H         1 UNK         0.0600 
    179 H179        2.5158  -17.2568  -42.5418 H         1 UNK         0.3000 
    180 H180        3.6945  -15.2617  -40.5797 H         1 UNK         0.0600 
    181 H181        3.7499  -17.6873  -38.7126 H         1 UNK         0.0600 
    182 H182        3.4035  -16.0228  -38.2763 H         1 UNK         0.0600 
    183 H183        5.0164  -16.4634  -38.8106 H         1 UNK         0.0600 
    184 H184        4.8869  -16.3451  -42.0573 H         1 UNK         0.3000 
    185 H185        6.5960  -18.6646  -42.3940 H         1 UNK         0.0600 
    186 H186        5.9217  -20.4105  -44.0740 H         1 UNK         0.0600 
    187 H187        5.5044  -20.8662  -42.4331 H         1 UNK         0.0600 
    188 H188        4.2495  -20.2817  -43.5178 H         1 UNK         0.0600 
    189 H189        4.4273  -17.6465  -44.1956 H         1 UNK         0.3000 
    190 H190        0.0659  -19.9871  -49.3237 H         1 UNK         0.3000 
    191 H191       -2.4138  -20.6012  -50.8163 H         1 UNK         0.0600 
    192 H192       -1.7170  -18.2321  -49.0047 H         1 UNK         0.0600 
    193 H193       -3.1998  -18.4302  -49.9251 H         1 UNK         0.0600 
    194 H194       -1.6700  -18.2362  -50.7630 H         1 UNK         0.0600 
    195 H195       -1.2944  -20.1952  -47.3931 H         1 UNK         0.3000 
    196 H196       -3.6660  -21.0671  -46.1523 H         1 UNK         0.0600 
    197 H197       -2.1059  -21.5295  -44.1779 H         1 UNK         0.0600 
    198 H198       -2.0066  -19.9187  -44.8506 H         1 UNK         0.0600 
    199 H199       -0.7537  -21.1037  -45.2215 H         1 UNK         0.0600 
    200 H200       -0.9210  -23.0001  -47.3487 H         1 UNK         0.3000 
    201 H201       -1.7212  -25.5423  -46.4432 H         1 UNK         0.0600 
    202 H202        0.5023  -24.9851  -47.4764 H         1 UNK         0.0600 
    203 H203       -0.2810  -24.8182  -49.0503 H         1 UNK         0.0600 
    204 H204       -0.2423  -26.3793  -48.2442 H         1 UNK         0.0600 
    205 H205       -3.1403  -23.5783  -48.9528 H         1 UNK         0.3000 
    206 H206       -4.8789  -25.7948  -49.9451 H         1 UNK         0.0600 
    207 H207       -3.4390  -24.6909  -51.6682 H         1 UNK         0.0600 
    208 H208       -5.1321  -24.3353  -51.9424 H         1 UNK         0.0600 
    209 H209       -4.0878  -23.1195  -51.2165 H         1 UNK         0.0600 
    210 H210       -4.9465  -23.8628  -47.4727 H         1 UNK         0.3000 
    211 H211       -6.3559  -22.8040  -46.1732 H         1 UNK         0.0600 
    212 H212       -8.5911  -24.0760  -47.8419 H         1 UNK         0.0600 
    213 H213       -8.7345  -23.4684  -46.1986 H         1 UNK         0.0600 
    214 H214       -7.7324  -24.8713  -46.5238 H         1 UNK         0.0600 
    215 H215       -5.5646  -21.5044  -48.8099 H         1 UNK         0.3000 
    216 H216       -5.8834  -19.8049  -50.1463 H         1 UNK         0.0600 
    217 H217       -6.7259  -17.6868  -49.2291 H         1 UNK         0.0600 
    218 H218       -5.7736  -18.5070  -48.0042 H         1 UNK         0.0600 
    219 H219       -7.5331  -18.5227  -47.9083 H         1 UNK         0.0600 
    220 H220       -7.8387  -22.0240  -50.2371 H         1 UNK         0.3000 
    221 H221      -10.2145  -20.6978  -51.4993 H         1 UNK         0.0600 
    222 H222      -10.1461  -23.1461  -49.6556 H         1 UNK         0.0600 
    223 H223      -10.7688  -21.5538  -49.2336 H         1 UNK         0.0600 
    224 H224      -11.5721  -22.5110  -50.4702 H         1 UNK         0.0600 
    225 H225       -8.2167  -23.7170  -51.3259 H         1 UNK         0.3000 
    226 H226       -9.3105  -24.7244  -53.8435 H         1 UNK         0.0600 
    227 H227       -8.6309  -26.2930  -52.0687 H         1 UNK         0.0600 
    228 H228       -7.6274  -26.5332  -53.4904 H         1 UNK         0.0600 
    229 H229       -6.9826  -25.6785  -52.0956 H         1 UNK         0.0600 
    230 H230       -6.6409  -22.6980  -52.8280 H         1 UNK         0.3000 
    231 H231       -6.0420  -21.7640  -55.4187 H         1 UNK         0.0600 
    232 H232       -4.6939  -23.9194  -55.5462 H         1 UNK         0.0600 
    233 H233       -3.8582  -23.4687  -54.0625 H         1 UNK         0.0600 
    234 H234       -3.6595  -22.5084  -55.5239 H         1 UNK         0.0600 
    235 H235       -4.3486  -20.0195  -55.1868 H         1 UNK         0.3000 
    236 H236       -3.4671  -19.1721  -52.5828 H         1 UNK         0.0600 
    237 H237       -4.7667  -17.0270  -52.5475 H         1 UNK         0.0600 
    238 H238       -5.7873  -17.6355  -53.8466 H         1 UNK         0.0600 
    239 H239       -5.7800  -18.4317  -52.2772 H         1 UNK         0.0600 
    240 H240       -1.1292  -17.9032  -55.0730 H         1 UNK         0.3000 
    241 H241       -1.3765  -19.6127  -52.7385 H         1 UNK         0.0600 
    242 H242       -1.3807  -22.8733  -54.2219 H         1 UNK         0.3800 
    243 H243       -1.1228  -22.0189  -52.7338 H         1 UNK         0.3800 
    244 H244        1.0077  -20.0472  -53.1332 H         1 UNK         0.0800 
    245 H245        0.9535  -19.1967  -54.6591 H         1 UNK         0.0800 
    246 H246        2.7789  -17.6427  -54.2904 H         1 UNK         0.0800 
    247 H247        2.7936  -16.2938  -53.1886 H         1 UNK         0.0800 
@<TRIPOS>BOND
     1    1    2 1    
     2    1  127 1    
     3    1  128 1    
     4    1  129 1    
     5    2    3 2    
     6    2    4 am   BACKBONE|DICT|INTERRES
     7    4    5 1    
     8    4  130 1    
     9    5    6 1    
    10    5   65 1    
    11    5  131 1    
    12    6    7 1    
    13    6  132 1    
    14    6  133 1    
    15    7    8 1    
    16    8    9 1    
    17    8  134 1    
    18    8  135 1    
    19    9   10 ar   
    20    9   14 ar   
    21   10   11 ar   
    22   10  136 1    
    23   11   12 ar   
    24   11  126 1    
    25   12   13 ar   
    26   12  137 1    
    27   13   14 ar   
    28   13   15 1    
    29   14  138 1    
    30   15   16 1    
    31   15  139 1    
    32   15  140 1    
    33   16   17 1    
    34   17   18 1    
    35   17  141 1    
    36   17  142 1    
    37   18   19 1    
    38   18   67 1    
    39   18  143 1    
    40   19   20 am   BACKBONE|DICT|INTERRES
    41   19  144 1    
    42   20   21 2    
    43   20   22 1    
    44   22   23 1    
    45   22   24 1    
    46   22  145 1    
    47   23  146 1    
    48   23  147 1    
    49   23  148 1    
    50   24   25 am   BACKBONE|DICT|INTERRES
    51   24  149 1    
    52   25   26 2    
    53   25   27 1    
    54   27   28 1    
    55   27   29 1    
    56   27  150 1    
    57   28  151 1    
    58   28  152 1    
    59   28  153 1    
    60   29   30 am   BACKBONE|DICT|INTERRES
    61   29  154 1    
    62   30   31 2    
    63   30   32 1    
    64   32   33 1    
    65   32   34 1    
    66   32  155 1    
    67   33  156 1    
    68   33  157 1    
    69   33  158 1    
    70   34   35 am   BACKBONE|DICT|INTERRES
    71   34  159 1    
    72   35   36 2    
    73   35   37 1    
    74   37   38 1    
    75   37   39 1    
    76   37  160 1    
    77   38  161 1    
    78   38  162 1    
    79   38  163 1    
    80   39   40 am   BACKBONE|DICT|INTERRES
    81   39  164 1    
    82   40   41 2    
    83   40   42 1    
    84   42   43 1    
    85   42   44 1    
    86   42  165 1    
    87   43  166 1    
    88   43  167 1    
    89   43  168 1    
    90   44   45 am   BACKBONE|DICT|INTERRES
    91   44  169 1    
    92   45   46 2    
    93   45   47 1    
    94   47   48 1    
    95   47   49 1    
    96   47  170 1    
    97   48  171 1    
    98   48  172 1    
    99   48  173 1    
   100   49   50 am   BACKBONE|DICT|INTERRES
   101   49  174 1    
   102   50   51 2    
   103   50   52 1    
   104   52   53 1    
   105   52   54 1    
   106   52  175 1    
   107   53  176 1    
   108   53  177 1    
   109   53  178 1    
   110   54   55 am   BACKBONE|DICT|INTERRES
   111   54  179 1    
   112   55   56 2    
   113   55   57 1    
   114   57   58 1    
   115   57   59 1    
   116   57  180 1    
   117   58  181 1    
   118   58  182 1    
   119   58  183 1    
   120   59   60 am   BACKBONE|DICT|INTERRES
   121   59  184 1    
   122   60   61 2    
   123   60   62 1    
   124   62   63 1    
   125   62   64 1    
   126   62  185 1    
   127   63  186 1    
   128   63  187 1    
   129   63  188 1    
   130   64   65 am   BACKBONE|DICT|INTERRES
   131   64  189 1    
   132   65   66 2    
   133   67   68 2    
   134   67   69 am   BACKBONE|DICT|INTERRES
   135   69   70 1    
   136   69  190 1    
   137   70   71 1    
   138   70   72 1    
   139   70  191 1    
   140   71  192 1    
   141   71  193 1    
   142   71  194 1    
   143   72   73 2    
   144   72   74 am   BACKBONE|DICT|INTERRES
   145   74   75 1    
   146   74  195 1    
   147   75   76 1    
   148   75   77 1    
   149   75  196 1    
   150   76  197 1    
   151   76  198 1    
   152   76  199 1    
   153   77   78 2    
   154   77   79 am   BACKBONE|DICT|INTERRES
   155   79   80 1    
   156   79  200 1    
   157   80   81 1    
   158   80   82 1    
   159   80  201 1    
   160   81  202 1    
   161   81  203 1    
   162   81  204 1    
   163   82   83 2    
   164   82   84 am   BACKBONE|DICT|INTERRES
   165   84   85 1    
   166   84  205 1    
   167   85   86 1    
   168   85   87 1    
   169   85  206 1    
   170   86  207 1    
   171   86  208 1    
   172   86  209 1    
   173   87   88 2    
   174   87   89 am   BACKBONE|DICT|INTERRES
   175   89   90 1    
   176   89  210 1    
   177   90   91 1    
   178   90   92 1    
   179   90  211 1    
   180   91  212 1    
   181   91  213 1    
   182   91  214 1    
   183   92   93 2    
   184   92   94 am   BACKBONE|DICT|INTERRES
   185   94   95 1    
   186   94  215 1    
   187   95   96 1    
   188   95   97 1    
   189   95  216 1    
   190   96  217 1    
   191   96  218 1    
   192   96  219 1    
   193   97   98 2    
   194   97   99 am   BACKBONE|DICT|INTERRES
   195   99  100 1    
   196   99  220 1    
   197  100  101 1    
   198  100  102 1    
   199  100  221 1    
   200  101  222 1    
   201  101  223 1    
   202  101  224 1    
   203  102  103 2    
   204  102  104 am   BACKBONE|DICT|INTERRES
   205  104  105 1    
   206  104  225 1    
   207  105  106 1    
   208  105  107 1    
   209  105  226 1    
   210  106  227 1    
   211  106  228 1    
   212  106  229 1    
   213  107  108 2    
   214  107  109 am   BACKBONE|DICT|INTERRES
   215  109  110 1    
   216  109  230 1    
   217  110  111 1    
   218  110  112 1    
   219  110  231 1    
   220  111  232 1    
   221  111  233 1    
   222  111  234 1    
   223  112  113 2    
   224  112  114 am   BACKBONE|DICT|INTERRES
   225  114  115 1    
   226  114  235 1    
   227  115  116 1    
   228  115  117 1    
   229  115  236 1    
   230  116  237 1    
   231  116  238 1    
   232  116  239 1    
   233  117  118 2    
   234  117  119 am   BACKBONE|DICT|INTERRES
   235  119  120 1    
   236  119  240 1    
   237  120  121 1    
   238  120  124 1    
   239  120  241 1    
   240  121  122 am   BACKBONE|DICT|INTERRES
   241  121  123 2    
   242  122  242 1    
   243  122  243 1    
   244  124  125 1    
   245  124  244 1    
   246  124  245 1    
   247  125  126 1    
   248  126  246 1    
   249  126  247 1    
@<TRIPOS>SUBSTRUCTURE
     1 UNK         1 GROUP             0       ****    0 ROOT    
