@<TRIPOS>MOLECULE
3R540
247   249    1
SMALL
USER_CHARGES


@<TRIPOS>ATOM
      1 CA         -1.2599   -8.5339  -44.7861 C.3       0 UNK        -0.1800 
      2 C          -1.6814   -9.5091  -45.8759 C.2       0 UNK         0.5000 
      3 O          -2.2119   -9.0898  -46.9055 O.2       0 UNK        -0.5000 
      4 N          -1.4464  -10.8091  -45.6582 N.am      1 UNK        -0.5000 
      5 CA         -1.7442  -11.8940  -46.5968 C.3       1 UNK         0.1400 
      6 C6         -1.9470  -13.2345  -45.8488 C.3       23 UNK        -0.0398 
      7 S7         -2.7703  -14.5160  -46.8598 S.3       23 UNK        -0.2404 
      8 C8         -1.5378  -15.8446  -46.7365 C.3       23 UNK        -0.0205 
      9 C9         -2.0418  -17.1709  -47.2802 C.ar      23 UNK        -0.0193 
     10 C10        -1.6413  -17.6199  -48.5406 C.ar      23 UNK        -0.1150 
     11 C11        -2.0041  -18.8921  -48.9901 C.ar      23 UNK        -0.0193 
     12 C12        -2.7900  -19.7114  -48.1774 C.ar      23 UNK        -0.1150 
     13 C13        -3.2217  -19.2627  -46.9272 C.ar      23 UNK        -0.0193 
     14 C14        -2.8498  -17.9891  -46.4865 C.ar      23 UNK        -0.1150 
     15 C15        -4.0422  -20.1728  -46.0301 C.3       23 UNK        -0.0205 
     16 S16        -3.0081  -20.7887  -44.6702 S.3       23 UNK        -0.2404 
     17 C17        -3.6050  -22.4992  -44.4668 C.3       23 UNK        -0.0398 
     18 CA         -3.0192  -23.5078  -45.4918 C.3       11 UNK         0.1400 
     19 N          -1.5915  -23.2934  -45.7503 N.am      11 UNK        -0.5000 
     20 C          -0.8399  -23.9675  -46.6297 C.2       10 UNK         0.5000 
     21 O          -1.2721  -24.8607  -47.3588 O.2       10 UNK        -0.5000 
     22 CA          0.6619  -23.6337  -46.6658 C.3       10 UNK         0.1400 
     23 CB          0.9491  -22.6264  -47.7865 C.3       10 UNK        -0.1800 
     24 N           1.2116  -23.1136  -45.4095 N.am      10 UNK        -0.5000 
     25 C           1.1336  -23.6812  -44.1956 C.2       9 UNK         0.5000 
     26 O           0.5082  -24.7177  -43.9625 O.2       9 UNK        -0.5000 
     27 CA          1.8732  -22.9680  -43.0479 C.3       9 UNK         0.1400 
     28 CB          3.1952  -23.6888  -42.7445 C.3       9 UNK        -0.1800 
     29 N           2.1513  -21.5552  -43.3307 N.am      9 UNK        -0.5000 
     30 C           1.2318  -20.5827  -43.2783 C.2       8 UNK         0.5000 
     31 O           0.0527  -20.7761  -42.9764 O.2       8 UNK        -0.5000 
     32 CA          1.7058  -19.1669  -43.6648 C.3       8 UNK         0.1400 
     33 CB          1.3987  -18.8932  -45.1476 C.3       8 UNK        -0.1800 
     34 N           1.0848  -18.1244  -42.8444 N.am      8 UNK        -0.5000 
     35 C           1.2241  -18.0052  -41.5155 C.2       7 UNK         0.5000 
     36 O           1.9721  -18.7194  -40.8439 O.2       7 UNK        -0.5000 
     37 CA          0.3827  -16.9038  -40.8304 C.3       7 UNK         0.1400 
     38 CB          0.8140  -16.6263  -39.3742 C.3       7 UNK        -0.1800 
     39 N           0.3161  -15.6559  -41.6009 N.am      7 UNK        -0.5000 
     40 C           1.3441  -14.8696  -41.9506 C.2       6 UNK         0.5000 
     41 O           2.5189  -15.0727  -41.6350 O.2       6 UNK        -0.5000 
     42 CA          0.9929  -13.6371  -42.8069 C.3       6 UNK         0.1400 
     43 CB          1.0849  -12.3462  -41.9792 C.3       6 UNK        -0.1800 
     44 N           1.8686  -13.5265  -43.9739 N.am      6 UNK        -0.5000 
     45 C           1.9176  -14.4310  -44.9586 C.2       5 UNK         0.5000 
     46 O           1.1795  -15.4190  -45.0133 O.2       5 UNK        -0.5000 
     47 CA          2.9655  -14.2042  -46.0560 C.3       5 UNK         0.1400 
     48 CB          4.3684  -14.6229  -45.5840 C.3       5 UNK        -0.1800 
     49 N           2.5731  -15.0049  -47.2057 N.am      5 UNK        -0.5000 
     50 C           2.8452  -14.7447  -48.4857 C.2       4 UNK         0.5000 
     51 O           3.5678  -13.8220  -48.8644 O.2       4 UNK        -0.5000 
     52 CA          2.1526  -15.6401  -49.5209 C.3       4 UNK         0.1400 
     53 CB          1.8792  -17.0715  -49.0171 C.3       4 UNK        -0.1800 
     54 N           0.9182  -14.9704  -49.9097 N.am      4 UNK        -0.5000 
     55 C           0.2342  -15.1668  -51.0445 C.2       3 UNK         0.5000 
     56 O           0.4702  -16.0754  -51.8457 O.2       3 UNK        -0.5000 
     57 CA         -0.9156  -14.1811  -51.3448 C.3       3 UNK         0.1400 
     58 CB         -2.2613  -14.8032  -50.9560 C.3       3 UNK        -0.1800 
     59 N          -0.8014  -12.9022  -50.6456 N.am      3 UNK        -0.5000 
     60 C           0.1808  -12.0012  -50.7782 C.2       2 UNK         0.5000 
     61 O           1.0670  -12.0786  -51.6293 O.2       2 UNK        -0.5000 
     62 CA          0.1891  -10.8294  -49.7715 C.3       2 UNK         0.1400 
     63 CB         -0.1473   -9.5068  -50.4776 C.3       2 UNK        -0.1800 
     64 N          -0.7206  -10.9945  -48.6299 N.am      2 UNK        -0.5000 
     65 C          -0.6593  -11.9527  -47.6947 C.2       1 UNK         0.5000 
     66 O           0.1985  -12.8365  -47.6847 O.2       1 UNK        -0.5000 
     67 C          -3.3312  -24.9490  -45.0321 C.2       11 UNK         0.5000 
     68 O          -4.4137  -25.4565  -45.3248 O.2       11 UNK        -0.5000 
     69 N          -2.3760  -25.5735  -44.3287 N.am      12 UNK        -0.5000 
     70 CA         -2.4497  -26.9509  -43.8496 C.3       12 UNK         0.1400 
     71 CB         -2.2000  -26.9674  -42.3334 C.3       12 UNK        -0.1800 
     72 C          -1.4281  -27.8450  -44.5695 C.2       12 UNK         0.5000 
     73 O          -1.7616  -28.9782  -44.9151 O.2       12 UNK        -0.5000 
     74 N          -0.2066  -27.3326  -44.7831 N.am      13 UNK        -0.5000 
     75 CA          0.9207  -28.0870  -45.3361 C.3       13 UNK         0.1400 
     76 CB          2.2218  -27.3039  -45.1006 C.3       13 UNK        -0.1800 
     77 C           0.7641  -28.4363  -46.8267 C.2       13 UNK         0.5000 
     78 O           1.1962  -29.5137  -47.2386 O.2       13 UNK        -0.5000 
     79 N           0.1547  -27.5293  -47.6004 N.am      14 UNK        -0.5000 
     80 CA         -0.0949  -27.6908  -49.0353 C.3       14 UNK         0.1400 
     81 CB          0.5841  -26.5292  -49.7824 C.3       14 UNK        -0.1800 
     82 C          -1.5995  -27.7380  -49.3607 C.2       14 UNK         0.5000 
     83 O          -1.9520  -27.9900  -50.5135 O.2       14 UNK        -0.5000 
     84 N          -2.4521  -27.4721  -48.3574 N.am      15 UNK        -0.5000 
     85 CA         -3.9038  -27.2732  -48.4503 C.3       15 UNK         0.1400 
     86 CB         -4.6180  -28.5867  -48.8313 C.3       15 UNK        -0.1800 
     87 C          -4.2794  -26.0855  -49.3662 C.2       15 UNK         0.5000 
     88 O          -5.2928  -26.1361  -50.0666 O.2       15 UNK        -0.5000 
     89 N          -3.4304  -25.0493  -49.3660 N.am      16 UNK        -0.5000 
     90 CA         -3.5593  -23.8567  -50.1985 C.3       16 UNK         0.1400 
     91 CB         -2.1824  -23.1808  -50.2846 C.3       16 UNK        -0.1800 
     92 C          -4.6201  -22.8786  -49.6593 C.2       16 UNK         0.5000 
     93 O          -5.0538  -22.9974  -48.5111 O.2       16 UNK        -0.5000 
     94 N          -4.9902  -21.9008  -50.4921 N.am      17 UNK        -0.5000 
     95 CA         -5.9104  -20.8204  -50.1551 C.3       17 UNK         0.1400 
     96 CB         -7.2910  -21.1179  -50.7614 C.3       17 UNK        -0.1800 
     97 C          -5.3524  -19.5066  -50.7104 C.2       17 UNK         0.5000 
     98 O          -4.7405  -19.5040  -51.7826 O.2       17 UNK        -0.5000 
     99 N          -5.6049  -18.4036  -49.9961 N.am      18 UNK        -0.5000 
    100 CA        -5.1422  -17.0610  -50.3568 C.3       18 UNK         0.1400 
    101 CB        -5.4060  -16.1040  -49.1860 C.3       18 UNK        -0.1800 
    102 C         -5.7675  -16.5226  -51.6593 C.2       18 UNK         0.5000 
    103 O         -5.1459  -15.7070  -52.3382 O.2       18 UNK        -0.5000 
    104 N         -6.9662  -17.0149  -52.0033 N.am      19 UNK        -0.5000 
    105 CA        -7.6565  -16.7252  -53.2611 C.3       19 UNK         0.1400 
    106 CB        -9.1075  -17.2202  -53.1615 C.3       19 UNK        -0.1800 
    107 C         -6.9577  -17.3447  -54.4881 C.2       19 UNK         0.5000 
    108 O         -7.0195  -16.7656  -55.5733 O.2       19 UNK        -0.5000 
    109 N         -6.3052  -18.5003  -54.2965 N.am      20 UNK        -0.5000 
    110 CA        -5.5033  -19.1730  -55.3195 C.3       20 UNK         0.1400 
    111 CB        -5.4665  -20.6809  -55.0226 C.3       20 UNK        -0.1800 
    112 C         -4.0763  -18.5990  -55.3934 C.2       20 UNK         0.5000 
    113 O         -3.5127  -18.5300  -56.4864 O.2       20 UNK        -0.5000 
    114 N         -3.5457  -18.1949  -54.2289 N.am      21 UNK        -0.5000 
    115 CA        -2.1900  -17.7113  -53.9491 C.3       21 UNK         0.1400 
    116 CB        -1.7900  -16.5226  -54.8441 C.3       21 UNK        -0.1800 
    117 C         -1.1425  -18.8394  -53.9677 C.2       21 UNK         0.5000 
    118 O         -1.3440  -19.8774  -54.6030 O.2       21 UNK        -0.5000 
    119 N         -0.0526  -18.6368  -53.2200 N.am      22 UNK        -0.5000 
    120 CA         0.9439  -19.6815  -52.9402 C.3       22 UNK         0.1400 
    121 C          2.3694  -19.1589  -52.6040 C.2       22 UNK         0.5000 
    122 N          2.5957  -17.8606  -52.4448 N.am      22 UNK        -0.7600 
    123 O          3.3063  -19.9490  -52.5261 O.2       22 UNK        -0.5000 
    124 C124        0.4150  -20.7398  -51.9289 C.3       23 UNK        -0.0398 
    125 S125        0.1279  -20.1212  -50.2327 S.3       23 UNK        -0.2404 
    126 C126       -1.5315  -19.3837  -50.3454 C.3       23 UNK        -0.0205 
    127 H127       -2.1252   -7.9783  -44.4252 H         1 UNK         0.0600 
    128 H128       -0.5360   -7.8210  -45.1807 H         1 UNK         0.0600 
    129 H129       -0.8056   -9.0452  -43.9371 H         1 UNK         0.0600 
    130 H130       -0.9819  -11.0844  -44.8051 H         1 UNK         0.3000 
    131 H131       -2.6909  -11.6593  -47.0891 H         1 UNK         0.0600 
    132 H132       -2.5842  -13.0734  -44.9782 H         1 UNK         0.0800 
    133 H133       -1.0002  -13.6044  -45.4540 H         1 UNK         0.0800 
    134 H134       -1.2681  -15.9835  -45.6890 H         1 UNK         0.0800 
    135 H135       -0.6266  -15.5380  -47.2520 H         1 UNK         0.0800 
    136 H136       -1.0155  -16.9961  -49.1596 H         1 UNK         0.1150 
    137 H137       -3.0534  -20.7032  -48.5119 H         1 UNK         0.1150 
    138 H138       -3.1557  -17.6517  -45.5062 H         1 UNK         0.1150 
    139 H139       -4.4480  -21.0066  -46.6049 H         1 UNK         0.0800 
    140 H140       -4.8954  -19.6284  -45.6233 H         1 UNK         0.0800 
    141 H141       -3.3414  -22.7932  -43.4488 H         1 UNK         0.0800 
    142 H142       -4.6956  -22.5041  -44.5085 H         1 UNK         0.0800 
    143 H143       -3.5292  -23.3574  -46.4435 H         1 UNK         0.0600 
    144 H144       -1.1536  -22.5677  -45.2000 H         1 UNK         0.3000 
    145 H145        1.1922  -24.5589  -46.8959 H         1 UNK         0.0600 
    146 H146        0.5887  -22.9943  -48.7481 H         1 UNK         0.0600 
    147 H147        2.0183  -22.4434  -47.8935 H         1 UNK         0.0600 
    148 H148        0.4614  -21.6689  -47.5973 H         1 UNK         0.0600 
    149 H149        1.7428  -22.2595  -45.4831 H         1 UNK         0.3000 
    150 H150        1.2393  -23.0308  -42.1608 H         1 UNK         0.0600 
    151 H151        3.8774  -23.6563  -43.5949 H         1 UNK         0.0600 
    152 H152        3.0215  -24.7388  -42.5040 H         1 UNK         0.0600 
    153 H153        3.7014  -23.2410  -41.8891 H         1 UNK         0.0600 
    154 H154        3.1035  -21.3236  -43.5760 H         1 UNK         0.3000 
    155 H155        2.7859  -19.1063  -43.5168 H         1 UNK         0.0600 
    156 H156        1.8262  -17.9447  -45.4707 H         1 UNK         0.0600 
    157 H157        0.3247  -18.8605  -45.3385 H         1 UNK         0.0600 
    158 H158        1.8207  -19.6678  -45.7890 H         1 UNK         0.0600 
    159 H159        0.4754  -17.4800  -43.3271 H         1 UNK         0.3000 
    160 H160       -0.6365  -17.2914  -40.7957 H         1 UNK         0.0600 
    161 H161        1.8491  -16.2891  -39.3138 H         1 UNK         0.0600 
    162 H162        0.7281  -17.5255  -38.7631 H         1 UNK         0.0600 
    163 H163        0.1853  -15.8633  -38.9152 H         1 UNK         0.0600 
    164 H164       -0.6077  -15.4003  -41.9207 H         1 UNK         0.3000 
    165 H165       -0.0332  -13.7370  -43.1665 H         1 UNK         0.0600 
    166 H166        0.7899  -11.4767  -42.5669 H         1 UNK         0.0600 
    167 H167        0.4246  -12.3915  -41.1122 H         1 UNK         0.0600 
    168 H168        2.0976  -12.1756  -41.6112 H         1 UNK         0.0600 
    169 H169        2.5291  -12.7633  -43.9714 H         1 UNK         0.3000 
    170 H170        2.9593  -13.1464  -46.3276 H         1 UNK         0.0600 
    171 H171        5.1116  -14.4674  -46.3662 H         1 UNK         0.0600 
    172 H172        4.3967  -15.6755  -45.2993 H         1 UNK         0.0600 
    173 H173        4.6822  -14.0393  -44.7178 H         1 UNK         0.0600 
    174 H174        1.9161  -15.7388  -46.9723 H         1 UNK         0.3000 
    175 H175        2.8107  -15.6973  -50.3901 H         1 UNK         0.0600 
    176 H176        2.7999  -17.5526  -48.6858 H         1 UNK         0.0600 
    177 H177        1.1738  -17.0980  -48.1870 H         1 UNK         0.0600 
    178 H178        1.4702  -17.6841  -49.8164 H         1 UNK         0.0600 
    179 H179        0.6499  -14.1951  -49.3117 H         1 UNK         0.3000 
    180 H180       -0.9132  -13.9868  -52.4190 H         1 UNK         0.0600 
    181 H181       -2.3361  -14.9672  -49.8807 H         1 UNK         0.0600 
    182 H182       -2.4016  -15.7648  -51.4415 H         1 UNK         0.0600 
    183 H183       -3.0927  -14.1653  -51.2562 H         1 UNK         0.0600 
    184 H184       -1.4859  -12.7306  -49.9249 H         1 UNK         0.3000 
    185 H185        1.2040  -10.7589  -49.3752 H         1 UNK         0.0600 
    186 H186       -1.1617   -9.5131  -50.8783 H         1 UNK         0.0600 
    187 H187       -0.0610   -8.6615  -49.7944 H         1 UNK         0.0600 
    188 H188        0.5336   -9.3206  -51.3093 H         1 UNK         0.0600 
    189 H189       -1.4230  -10.2734  -48.5088 H         1 UNK         0.3000 
    190 H190       -1.5045  -25.0838  -44.1575 H         1 UNK         0.3000 
    191 H191       -3.4410  -27.3708  -44.0327 H         1 UNK         0.0600 
    192 H192       -2.9563  -26.3864  -41.8055 H         1 UNK         0.0600 
    193 H193       -2.2388  -27.9845  -41.9412 H         1 UNK         0.0600 
    194 H194       -1.2232  -26.5528  -42.0798 H         1 UNK         0.0600 
    195 H195        0.0060  -26.3952  -44.4500 H         1 UNK         0.3000 
    196 H196        0.9932  -29.0275  -44.7857 H         1 UNK         0.0600 
    197 H197        3.0864  -27.8695  -45.4502 H         1 UNK         0.0600 
    198 H198        2.3739  -27.1006  -44.0404 H         1 UNK         0.0600 
    199 H199        2.2208  -26.3496  -45.6270 H         1 UNK         0.0600 
    200 H200       -0.1757  -26.6661  -47.1877 H         1 UNK         0.3000 
    201 H201        0.3347  -28.6249  -49.4022 H         1 UNK         0.0600 
    202 H202        0.4569  -26.6287  -50.8610 H         1 UNK         0.0600 
    203 H203        1.6556  -26.5068  -49.5836 H         1 UNK         0.0600 
    204 H204        0.1704  -25.5634  -49.4929 H         1 UNK         0.0600 
    205 H205       -2.0479  -27.2707  -47.4555 H         1 UNK         0.3000 
    206 H206       -4.2388  -27.0012  -47.4499 H         1 UNK         0.0600 
    207 H207       -4.3291  -29.3992  -48.1646 H         1 UNK         0.0600 
    208 H208       -5.7005  -28.4771  -48.7576 H         1 UNK         0.0600 
    209 H209       -4.3902  -28.8926  -49.8526 H         1 UNK         0.0600 
    210 H210       -2.6460  -25.0661  -48.7213 H         1 UNK         0.3000 
    211 H211       -3.8568  -24.1677  -51.2022 H         1 UNK         0.0600 
    212 H212       -1.8834  -22.7461  -49.3301 H         1 UNK         0.0600 
    213 H213       -2.1898  -22.3835  -51.0258 H         1 UNK         0.0600 
    214 H214       -1.4099  -23.8879  -50.5870 H         1 UNK         0.0600 
    215 H215       -4.5518  -21.8125  -51.3993 H         1 UNK         0.3000 
    216 H216       -6.0047  -20.7223  -49.0713 H         1 UNK         0.0600 
    217 H217       -7.2433  -21.2080  -51.8477 H         1 UNK         0.0600 
    218 H218       -7.6994  -22.0486  -50.3673 H         1 UNK         0.0600 
    219 H219       -8.0031  -20.3259  -50.5266 H         1 UNK         0.0600 
    220 H220       -6.1186  -18.4813  -49.1303 H         1 UNK         0.3000 
    221 H221       -4.0637  -17.1197  -50.5102 H         1 UNK         0.0600 
    222 H222       -6.4707  -16.0183  -48.9663 H         1 UNK         0.0600 
    223 H223       -4.9009  -16.4424  -48.2810 H         1 UNK         0.0600 
    224 H224       -5.0329  -15.1032  -49.4071 H         1 UNK         0.0600 
    225 H225       -7.4139  -17.6671  -51.3769 H         1 UNK         0.3000 
    226 H226       -7.6727  -15.6420  -53.3999 H         1 UNK         0.0600 
    227 H227       -9.6587  -16.9992  -54.0765 H         1 UNK         0.0600 
    228 H228       -9.1559  -18.2980  -53.0013 H         1 UNK         0.0600 
    229 H229       -9.6350  -16.7338  -52.3407 H         1 UNK         0.0600 
    230 H230       -6.2682  -18.8917  -53.3658 H         1 UNK         0.3000 
    231 H231       -5.9740  -19.0346  -56.2954 H         1 UNK         0.0600 
    232 H232       -4.9884  -20.8957  -54.0667 H         1 UNK         0.0600 
    233 H233       -4.9079  -21.2140  -55.7929 H         1 UNK         0.0600 
    234 H234       -6.4712  -21.1031  -54.9980 H         1 UNK         0.0600 
    235 H235       -4.0960  -18.3886  -53.4002 H         1 UNK         0.3000 
    236 H236       -2.2369  -17.3490  -52.9253 H         1 UNK         0.0600 
    237 H237       -1.6330  -16.8233  -55.8799 H         1 UNK         0.0600 
    238 H238       -2.5530  -15.7442  -54.8283 H         1 UNK         0.0600 
    239 H239       -0.8602  -16.0718  -54.4953 H         1 UNK         0.0600 
    240 H240        0.0752  -17.7561  -52.7311 H         1 UNK         0.3000 
    241 H241        1.1011  -20.2102  -53.8825 H         1 UNK         0.0600 
    242 H242        1.8413  -17.1817  -52.4220 H         1 UNK         0.3800 
    243 H243        3.5378  -17.5572  -52.2612 H         1 UNK         0.3800 
    244 H244        1.1222  -21.5677  -51.8601 H         1 UNK         0.0800 
    245 H245       -0.5072  -21.1864  -52.3007 H         1 UNK         0.0800 
    246 H246       -2.2378  -20.1024  -50.7591 H         1 UNK         0.0800 
    247 H247       -1.5126  -18.5379  -51.0281 H         1 UNK         0.0800 
@<TRIPOS>BOND
     1    1    2 1    
     2    1  127 1    
     3    1  128 1    
     4    1  129 1    
     5    2    3 2    
     6    2    4 am   BACKBONE|DICT|INTERRES
     7    4    5 1    
     8    4  130 1    
     9    5    6 1    
    10    5   65 1    
    11    5  131 1    
    12    6    7 1    
    13    6  132 1    
    14    6  133 1    
    15    7    8 1    
    16    8    9 1    
    17    8  134 1    
    18    8  135 1    
    19    9   10 ar   
    20    9   14 ar   
    21   10   11 ar   
    22   10  136 1    
    23   11   12 ar   
    24   11  126 1    
    25   12   13 ar   
    26   12  137 1    
    27   13   14 ar   
    28   13   15 1    
    29   14  138 1    
    30   15   16 1    
    31   15  139 1    
    32   15  140 1    
    33   16   17 1    
    34   17   18 1    
    35   17  141 1    
    36   17  142 1    
    37   18   19 1    
    38   18   67 1    
    39   18  143 1    
    40   19   20 am   BACKBONE|DICT|INTERRES
    41   19  144 1    
    42   20   21 2    
    43   20   22 1    
    44   22   23 1    
    45   22   24 1    
    46   22  145 1    
    47   23  146 1    
    48   23  147 1    
    49   23  148 1    
    50   24   25 am   BACKBONE|DICT|INTERRES
    51   24  149 1    
    52   25   26 2    
    53   25   27 1    
    54   27   28 1    
    55   27   29 1    
    56   27  150 1    
    57   28  151 1    
    58   28  152 1    
    59   28  153 1    
    60   29   30 am   BACKBONE|DICT|INTERRES
    61   29  154 1    
    62   30   31 2    
    63   30   32 1    
    64   32   33 1    
    65   32   34 1    
    66   32  155 1    
    67   33  156 1    
    68   33  157 1    
    69   33  158 1    
    70   34   35 am   BACKBONE|DICT|INTERRES
    71   34  159 1    
    72   35   36 2    
    73   35   37 1    
    74   37   38 1    
    75   37   39 1    
    76   37  160 1    
    77   38  161 1    
    78   38  162 1    
    79   38  163 1    
    80   39   40 am   BACKBONE|DICT|INTERRES
    81   39  164 1    
    82   40   41 2    
    83   40   42 1    
    84   42   43 1    
    85   42   44 1    
    86   42  165 1    
    87   43  166 1    
    88   43  167 1    
    89   43  168 1    
    90   44   45 am   BACKBONE|DICT|INTERRES
    91   44  169 1    
    92   45   46 2    
    93   45   47 1    
    94   47   48 1    
    95   47   49 1    
    96   47  170 1    
    97   48  171 1    
    98   48  172 1    
    99   48  173 1    
   100   49   50 am   BACKBONE|DICT|INTERRES
   101   49  174 1    
   102   50   51 2    
   103   50   52 1    
   104   52   53 1    
   105   52   54 1    
   106   52  175 1    
   107   53  176 1    
   108   53  177 1    
   109   53  178 1    
   110   54   55 am   BACKBONE|DICT|INTERRES
   111   54  179 1    
   112   55   56 2    
   113   55   57 1    
   114   57   58 1    
   115   57   59 1    
   116   57  180 1    
   117   58  181 1    
   118   58  182 1    
   119   58  183 1    
   120   59   60 am   BACKBONE|DICT|INTERRES
   121   59  184 1    
   122   60   61 2    
   123   60   62 1    
   124   62   63 1    
   125   62   64 1    
   126   62  185 1    
   127   63  186 1    
   128   63  187 1    
   129   63  188 1    
   130   64   65 am   BACKBONE|DICT|INTERRES
   131   64  189 1    
   132   65   66 2    
   133   67   68 2    
   134   67   69 am   BACKBONE|DICT|INTERRES
   135   69   70 1    
   136   69  190 1    
   137   70   71 1    
   138   70   72 1    
   139   70  191 1    
   140   71  192 1    
   141   71  193 1    
   142   71  194 1    
   143   72   73 2    
   144   72   74 am   BACKBONE|DICT|INTERRES
   145   74   75 1    
   146   74  195 1    
   147   75   76 1    
   148   75   77 1    
   149   75  196 1    
   150   76  197 1    
   151   76  198 1    
   152   76  199 1    
   153   77   78 2    
   154   77   79 am   BACKBONE|DICT|INTERRES
   155   79   80 1    
   156   79  200 1    
   157   80   81 1    
   158   80   82 1    
   159   80  201 1    
   160   81  202 1    
   161   81  203 1    
   162   81  204 1    
   163   82   83 2    
   164   82   84 am   BACKBONE|DICT|INTERRES
   165   84   85 1    
   166   84  205 1    
   167   85   86 1    
   168   85   87 1    
   169   85  206 1    
   170   86  207 1    
   171   86  208 1    
   172   86  209 1    
   173   87   88 2    
   174   87   89 am   BACKBONE|DICT|INTERRES
   175   89   90 1    
   176   89  210 1    
   177   90   91 1    
   178   90   92 1    
   179   90  211 1    
   180   91  212 1    
   181   91  213 1    
   182   91  214 1    
   183   92   93 2    
   184   92   94 am   BACKBONE|DICT|INTERRES
   185   94   95 1    
   186   94  215 1    
   187   95   96 1    
   188   95   97 1    
   189   95  216 1    
   190   96  217 1    
   191   96  218 1    
   192   96  219 1    
   193   97   98 2    
   194   97   99 am   BACKBONE|DICT|INTERRES
   195   99  100 1    
   196   99  220 1    
   197  100  101 1    
   198  100  102 1    
   199  100  221 1    
   200  101  222 1    
   201  101  223 1    
   202  101  224 1    
   203  102  103 2    
   204  102  104 am   BACKBONE|DICT|INTERRES
   205  104  105 1    
   206  104  225 1    
   207  105  106 1    
   208  105  107 1    
   209  105  226 1    
   210  106  227 1    
   211  106  228 1    
   212  106  229 1    
   213  107  108 2    
   214  107  109 am   BACKBONE|DICT|INTERRES
   215  109  110 1    
   216  109  230 1    
   217  110  111 1    
   218  110  112 1    
   219  110  231 1    
   220  111  232 1    
   221  111  233 1    
   222  111  234 1    
   223  112  113 2    
   224  112  114 am   BACKBONE|DICT|INTERRES
   225  114  115 1    
   226  114  235 1    
   227  115  116 1    
   228  115  117 1    
   229  115  236 1    
   230  116  237 1    
   231  116  238 1    
   232  116  239 1    
   233  117  118 2    
   234  117  119 am   BACKBONE|DICT|INTERRES
   235  119  120 1    
   236  119  240 1    
   237  120  121 1    
   238  120  124 1    
   239  120  241 1    
   240  121  122 am   BACKBONE|DICT|INTERRES
   241  121  123 2    
   242  122  242 1    
   243  122  243 1    
   244  124  125 1    
   245  124  244 1    
   246  124  245 1    
   247  125  126 1    
   248  126  246 1    
   249  126  247 1    
@<TRIPOS>SUBSTRUCTURE
     1 UNK         1 GROUP             0       ****    0 ROOT    
