@<TRIPOS>MOLECULE
3R540
247   249    1
SMALL
USER_CHARGES


@<TRIPOS>ATOM
      1 CA          5.7863  -13.0025  -43.5588 C.3       0 UNK        -0.1800 
      2 C           4.4765  -13.2100  -44.3034 C.2       0 UNK         0.5000 
      3 O           3.4707  -12.5944  -43.9543 O.2       0 UNK        -0.5000 
      4 N           4.4851  -14.0555  -45.3424 N.am      1 UNK        -0.5000 
      5 CA          3.3148  -14.4285  -46.1513 C.3       1 UNK         0.1400 
      6 C6          3.6703  -15.5691  -47.1372 C.3       23 UNK        -0.0398 
      7 S7          2.2315  -16.5674  -47.6451 S.3       23 UNK        -0.2404 
      8 C8          2.0677  -16.0730  -49.3872 C.3       23 UNK        -0.0205 
      9 C9          1.0099  -16.8968  -50.1050 C.ar      23 UNK        -0.0193 
     10 C10         1.3807  -17.9216  -50.9811 C.ar      23 UNK        -0.1150 
     11 C11         0.4113  -18.6546  -51.6741 C.ar      23 UNK        -0.0193 
     12 C12        -0.9422  -18.3654  -51.4581 C.ar      23 UNK        -0.1150 
     13 C13        -1.3275  -17.3517  -50.5763 C.ar      23 UNK        -0.0193 
     14 C14        -0.3439  -16.6152  -49.9115 C.ar      23 UNK        -0.1150 
     15 C15        -2.8009  -17.0257  -50.3596 C.3       23 UNK        -0.0205 
     16 S16        -3.7722  -18.4347  -49.7284 S.3       23 UNK        -0.2404 
     17 C17        -2.8682  -18.8984  -48.2091 C.3       23 UNK        -0.0398 
     18 CA         -2.1665  -20.2699  -48.3689 C.3       11 UNK         0.1400 
     19 N          -0.8704  -20.3283  -47.6907 N.am      11 UNK        -0.5000 
     20 C           0.0599  -21.2555  -47.9630 C.2       10 UNK         0.5000 
     21 O          -0.0705  -22.1155  -48.8321 O.2       10 UNK        -0.5000 
     22 CA          1.3233  -21.2611  -47.0862 C.3       10 UNK         0.1400 
     23 CB          2.4248  -20.4081  -47.7272 C.3       10 UNK        -0.1800 
     24 N           1.0681  -20.8014  -45.7191 N.am      10 UNK        -0.5000 
     25 C           0.2957  -21.4506  -44.8363 C.2       9 UNK         0.5000 
     26 O          -0.2978  -22.4947  -45.1094 O.2       9 UNK        -0.5000 
     27 CA          0.0928  -20.8178  -43.4467 C.3       9 UNK         0.1400 
     28 CB          0.2614  -21.8446  -42.3096 C.3       9 UNK        -0.1800 
     29 N           0.8862  -19.6102  -43.2002 N.am      9 UNK        -0.5000 
     30 C           2.2090  -19.4915  -43.0141 C.2       8 UNK         0.5000 
     31 O           3.0095  -20.4222  -43.0998 O.2       8 UNK        -0.5000 
     32 CA          2.7158  -18.0788  -42.6606 C.3       8 UNK         0.1400 
     33 CB          3.0517  -17.2913  -43.9338 C.3       8 UNK        -0.1800 
     34 N           1.7449  -17.3178  -41.8707 N.am      8 UNK        -0.5000 
     35 C           1.3827  -17.6229  -40.6154 C.2       7 UNK         0.5000 
     36 O           1.9134  -18.5068  -39.9419 O.2       7 UNK        -0.5000 
     37 CA          0.2012  -16.8317  -40.0318 C.3       7 UNK         0.1400 
     38 CB          0.6749  -15.4903  -39.4536 C.3       7 UNK        -0.1800 
     39 N          -0.8373  -16.6039  -41.0394 N.am      7 UNK        -0.5000 
     40 C          -1.7308  -17.5293  -41.4206 C.2       6 UNK         0.5000 
     41 O          -1.7985  -18.6558  -40.9294 O.2       6 UNK        -0.5000 
     42 CA         -2.7085  -17.1433  -42.5473 C.3       6 UNK         0.1400 
     43 CB         -3.9942  -16.5423  -41.9600 C.3       6 UNK        -0.1800 
     44 N          -2.1337  -16.1987  -43.5049 N.am      6 UNK        -0.5000 
     45 C          -1.1981  -16.5090  -44.4124 C.2       5 UNK         0.5000 
     46 O          -0.7474  -17.6437  -44.5691 O.2       5 UNK        -0.5000 
     47 CA         -0.6513  -15.3481  -45.2647 C.3       5 UNK         0.1400 
     48 CB         -1.4824  -15.1933  -46.5449 C.3       5 UNK        -0.1800 
     49 N          -0.6087  -14.0608  -44.5640 N.am      5 UNK        -0.5000 
     50 C           0.0718  -13.8172  -43.4374 C.2       4 UNK         0.5000 
     51 O           0.7586  -14.6631  -42.8601 O.2       4 UNK        -0.5000 
     52 CA         -0.0569  -12.3969  -42.8718 C.3       4 UNK         0.1400 
     53 CB          0.1787  -12.3370  -41.3516 C.3       4 UNK        -0.1800 
     54 N           0.8944  -11.5254  -43.5480 N.am      4 UNK        -0.5000 
     55 C           0.7105  -10.2196  -43.7766 C.2       3 UNK         0.5000 
     56 O          -0.3269   -9.6160  -43.4995 O.2       3 UNK        -0.5000 
     57 CA          1.8790   -9.4533  -44.4165 C.3       3 UNK         0.1400 
     58 CB          2.9445   -9.1161  -43.3608 C.3       3 UNK        -0.1800 
     59 N           2.4989  -10.2205  -45.4953 N.am      3 UNK        -0.5000 
     60 C           2.2309  -10.0571  -46.7982 C.2       2 UNK         0.5000 
     61 O           1.4281   -9.2298  -47.2320 O.2       2 UNK        -0.5000 
     62 CA          2.9947  -10.9532  -47.7954 C.3       2 UNK         0.1400 
     63 CB          4.2027  -10.2009  -48.3746 C.3       2 UNK        -0.1800 
     64 N           3.4594  -12.2102  -47.2077 N.am      2 UNK        -0.5000 
     65 C           2.6573  -13.2306  -46.8746 C.2       1 UNK         0.5000 
     66 O           1.4452  -13.2336  -47.0850 O.2       1 UNK        -0.5000 
     67 C          -3.0814  -21.4468  -47.9621 C.2       11 UNK         0.5000 
     68 O          -3.8262  -21.9646  -48.7941 O.2       11 UNK        -0.5000 
     69 N          -2.9957  -21.8678  -46.6929 N.am      12 UNK        -0.5000 
     70 CA         -3.7366  -23.0081  -46.1599 C.3       12 UNK         0.1400 
     71 CB         -3.7765  -22.9296  -44.6260 C.3       12 UNK        -0.1800 
     72 C          -3.1447  -24.3459  -46.6346 C.2       12 UNK         0.5000 
     73 O          -3.8947  -25.2176  -47.0736 O.2       12 UNK        -0.5000 
     74 N          -1.8165  -24.4768  -46.5416 N.am      13 UNK        -0.5000 
     75 CA         -1.0712  -25.6739  -46.9149 C.3       13 UNK         0.1400 
     76 CB          0.2634  -25.6915  -46.1451 C.3       13 UNK        -0.1800 
     77 C          -0.8823  -25.7730  -48.4402 C.2       13 UNK         0.5000 
     78 O          -1.6626  -26.4465  -49.1147 O.2       13 UNK        -0.5000 
     79 N           0.1628  -25.1115  -48.9531 N.am      14 UNK        -0.5000 
     80 CA          0.6406  -25.1967  -50.3348 C.3       14 UNK         0.1400 
     81 CB          1.9799  -24.4507  -50.4466 C.3       14 UNK        -0.1800 
     82 C          -0.3460  -24.6843  -51.3992 C.2       14 UNK         0.5000 
     83 O          -0.2418  -25.1071  -52.5516 O.2       14 UNK        -0.5000 
     84 N          -1.2647  -23.7905  -51.0111 N.am      15 UNK        -0.5000 
     85 CA         -2.2814  -23.2117  -51.8920 C.3       15 UNK         0.1400 
     86 CB         -2.2386  -21.6813  -51.8015 C.3       15 UNK        -0.1800 
     87 C          -3.6936  -23.7781  -51.6667 C.2       15 UNK         0.5000 
     88 O          -4.6455  -23.2245  -52.2222 O.2       15 UNK        -0.5000 
     89 N          -3.7873  -24.8823  -50.9099 N.am      16 UNK        -0.5000 
     90 CA         -4.9587  -25.7377  -50.7143 C.3       16 UNK         0.1400 
     91 CB         -5.3286  -26.4398  -52.0380 C.3       16 UNK        -0.1800 
     92 C          -6.1621  -25.0105  -50.0844 C.2       16 UNK         0.5000 
     93 O          -7.1075  -24.6492  -50.7857 O.2       16 UNK        -0.5000 
     94 N          -6.1132  -24.8368  -48.7574 N.am      17 UNK        -0.5000 
     95 CA         -7.1945  -24.3434  -47.8956 C.3       17 UNK         0.1400 
     96 CB         -8.3488  -25.3665  -47.8425 C.3       17 UNK        -0.1800 
     97 C          -7.6687  -22.9188  -48.2500 C.2       17 UNK         0.5000 
     98 O          -8.8678  -22.6374  -48.2143 O.2       17 UNK        -0.5000 
     99 N          -6.7060  -22.0479  -48.5819 N.am      18 UNK        -0.5000 
    100 CA        -6.8740  -20.6410  -48.9512 C.3       18 UNK         0.1400 
    101 CB        -7.4846  -19.8190  -47.7970 C.3       18 UNK        -0.1800 
    102 C         -7.5847  -20.4276  -50.3029 C.2       18 UNK         0.5000 
    103 O         -8.1483  -19.3565  -50.5332 O.2       18 UNK        -0.5000 
    104 N         -7.5089  -21.4236  -51.1989 N.am      19 UNK        -0.5000 
    105 CA        -7.9682  -21.3169  -52.5870 C.3       19 UNK         0.1400 
    106 CB        -8.1425  -22.7261  -53.1738 C.3       19 UNK        -0.1800 
    107 C         -7.0162  -20.4843  -53.4703 C.2       19 UNK         0.5000 
    108 O         -7.4132  -20.0812  -54.5642 O.2       19 UNK        -0.5000 
    109 N         -5.7830  -20.2598  -52.9879 N.am      20 UNK        -0.5000 
    110 CA        -4.6735  -19.5652  -53.6506 C.3       20 UNK         0.1400 
    111 CB        -5.0191  -18.0894  -53.9354 C.3       20 UNK        -0.1800 
    112 C         -4.1520  -20.3210  -54.8926 C.2       20 UNK         0.5000 
    113 O         -3.5851  -19.7101  -55.7995 O.2       20 UNK        -0.5000 
    114 N         -4.3287  -21.6486  -54.9013 N.am      21 UNK        -0.5000 
    115 CA        -3.9029  -22.5582  -55.9617 C.3       21 UNK         0.1400 
    116 CB        -4.9622  -23.6677  -56.0960 C.3       21 UNK        -0.1800 
    117 C         -2.5011  -23.1059  -55.6376 C.2       21 UNK         0.5000 
    118 O         -2.3488  -24.3083  -55.4205 O.2       21 UNK        -0.5000 
    119 N         -1.5270  -22.1909  -55.5326 N.am      22 UNK        -0.5000 
    120 CA        -0.1442  -22.4144  -55.0752 C.3       22 UNK         0.1400 
    121 C          0.5888  -23.5576  -55.8324 C.2       22 UNK         0.5000 
    122 N          0.8872  -24.6650  -55.1670 N.am      22 UNK        -0.7600 
    123 O          0.9136  -23.4302  -57.0106 O.2       22 UNK        -0.5000 
    124 C124        0.6915  -21.1076  -55.1244 C.3       23 UNK        -0.0398 
    125 S125       -0.0707  -19.7163  -54.2194 S.3       23 UNK        -0.2404 
    126 C126        0.8422  -19.7573  -52.6398 C.3       23 UNK        -0.0205 
    127 H127        6.0737  -11.9516  -43.5928 H         1 UNK         0.0600 
    128 H128        6.5960  -13.5923  -43.9890 H         1 UNK         0.0600 
    129 H129        5.6711  -13.2919  -42.5144 H         1 UNK         0.0600 
    130 H130        5.3513  -14.5140  -45.5872 H         1 UNK         0.3000 
    131 H131        2.5743  -14.8039  -45.4435 H         1 UNK         0.0600 
    132 H132        4.2043  -15.1871  -48.0092 H         1 UNK         0.0800 
    133 H133        4.3587  -16.2674  -46.6593 H         1 UNK         0.0800 
    134 H134        3.0308  -16.1811  -49.8884 H         1 UNK         0.0800 
    135 H135        1.8064  -15.0149  -49.4399 H         1 UNK         0.0800 
    136 H136        2.4285  -18.1397  -51.1326 H         1 UNK         0.1150 
    137 H137       -1.7026  -18.9234  -51.9826 H         1 UNK         0.1150 
    138 H138       -0.6260  -15.8138  -49.2451 H         1 UNK         0.1150 
    139 H139       -2.9149  -16.1882  -49.6695 H         1 UNK         0.0800 
    140 H140       -3.2317  -16.7012  -51.3077 H         1 UNK         0.0800 
    141 H141       -3.5545  -18.8843  -47.3604 H         1 UNK         0.0800 
    142 H142       -2.1324  -18.1237  -48.0001 H         1 UNK         0.0800 
    143 H143       -1.9382  -20.3942  -49.4245 H         1 UNK         0.0600 
    144 H144       -0.6889  -19.6512  -46.9639 H         1 UNK         0.3000 
    145 H145        1.6819  -22.2909  -47.0296 H         1 UNK         0.0600 
    146 H146        3.3279  -20.3957  -47.1169 H         1 UNK         0.0600 
    147 H147        2.6977  -20.7998  -48.7081 H         1 UNK         0.0600 
    148 H148        2.0969  -19.3804  -47.8702 H         1 UNK         0.0600 
    149 H149        1.5101  -19.9422  -45.4287 H         1 UNK         0.3000 
    150 H150       -0.9462  -20.4858  -43.4278 H         1 UNK         0.0600 
    151 H151       -0.4504  -22.6643  -42.4141 H         1 UNK         0.0600 
    152 H152        0.0849  -21.3852  -41.3368 H         1 UNK         0.0600 
    153 H153        1.2601  -22.2817  -42.3003 H         1 UNK         0.0600 
    154 H154        0.3466  -18.7523  -43.2140 H         1 UNK         0.3000 
    155 H155        3.6284  -18.1873  -42.0709 H         1 UNK         0.0600 
    156 H156        2.1664  -17.1296  -44.5494 H         1 UNK         0.0600 
    157 H157        3.7849  -17.8213  -44.5429 H         1 UNK         0.0600 
    158 H158        3.4739  -16.3171  -43.6883 H         1 UNK         0.0600 
    159 H159        1.3045  -16.5222  -42.3222 H         1 UNK         0.3000 
    160 H160       -0.2265  -17.4160  -39.2140 H         1 UNK         0.0600 
    161 H161        1.1817  -14.8835  -40.2034 H         1 UNK         0.0600 
    162 H162        1.3793  -15.6492  -38.6363 H         1 UNK         0.0600 
    163 H163       -0.1594  -14.9124  -39.0560 H         1 UNK         0.0600 
    164 H164       -0.8029  -15.7230  -41.5320 H         1 UNK         0.3000 
    165 H165       -2.9737  -18.0575  -43.0832 H         1 UNK         0.0600 
    166 H166       -4.7237  -16.3309  -42.7420 H         1 UNK         0.0600 
    167 H167       -4.4631  -17.2335  -41.2583 H         1 UNK         0.0600 
    168 H168       -3.7971  -15.6133  -41.4234 H         1 UNK         0.0600 
    169 H169       -2.4562  -15.2437  -43.4540 H         1 UNK         0.3000 
    170 H170        0.3689  -15.6066  -45.5468 H         1 UNK         0.0600 
    171 H171       -1.5148  -16.1304  -47.0975 H         1 UNK         0.0600 
    172 H172       -2.5110  -14.9027  -46.3285 H         1 UNK         0.0600 
    173 H173       -1.0514  -14.4417  -47.2064 H         1 UNK         0.0600 
    174 H174       -1.1145  -13.3016  -44.9970 H         1 UNK         0.3000 
    175 H175       -1.0765  -12.0591  -43.0697 H         1 UNK         0.0600 
    176 H176        1.2022  -12.6114  -41.0932 H         1 UNK         0.0600 
    177 H177       -0.0037  -11.3346  -40.9642 H         1 UNK         0.0600 
    178 H178       -0.4934  -13.0146  -40.8246 H         1 UNK         0.0600 
    179 H179        1.7898  -11.9521  -43.7830 H         1 UNK         0.3000 
    180 H180        1.4878   -8.5099  -44.8036 H         1 UNK         0.0600 
    181 H181        3.3840  -10.0143  -42.9251 H         1 UNK         0.0600 
    182 H182        2.5145   -8.5329  -42.5455 H         1 UNK         0.0600 
    183 H183        3.7520   -8.5248  -43.7927 H         1 UNK         0.0600 
    184 H184        3.1212  -10.9673  -45.2122 H         1 UNK         0.3000 
    185 H185        2.3135  -11.1877  -48.6163 H         1 UNK         0.0600 
    186 H186        3.8919   -9.2692  -48.8492 H         1 UNK         0.0600 
    187 H187        4.9289   -9.9486  -47.6008 H         1 UNK         0.0600 
    188 H188        4.7118  -10.7958  -49.1332 H         1 UNK         0.0600 
    189 H189        4.4439  -12.2787  -46.9943 H         1 UNK         0.3000 
    190 H190       -2.3169  -21.4410  -46.0808 H         1 UNK         0.3000 
    191 H191       -4.7651  -22.9485  -46.5189 H         1 UNK         0.0600 
    192 H192       -2.7794  -22.9743  -44.1875 H         1 UNK         0.0600 
    193 H193       -4.3532  -23.7568  -44.2101 H         1 UNK         0.0600 
    194 H194       -4.2479  -22.0054  -44.2915 H         1 UNK         0.0600 
    195 H195       -1.2773  -23.7141  -46.1387 H         1 UNK         0.3000 
    196 H196       -1.6389  -26.5533  -46.6030 H         1 UNK         0.0600 
    197 H197        0.8741  -26.5472  -46.4359 H         1 UNK         0.0600 
    198 H198        0.0899  -25.7685  -45.0716 H         1 UNK         0.0600 
    199 H199        0.8515  -24.7889  -46.3150 H         1 UNK         0.0600 
    200 H200        0.7013  -24.5202  -48.3383 H         1 UNK         0.3000 
    201 H201        0.8221  -26.2515  -50.5506 H         1 UNK         0.0600 
    202 H202        2.7203  -24.8612  -49.7600 H         1 UNK         0.0600 
    203 H203        1.8693  -23.3883  -50.2268 H         1 UNK         0.0600 
    204 H204        2.3914  -24.5344  -51.4535 H         1 UNK         0.0600 
    205 H205       -1.2162  -23.4354  -50.0623 H         1 UNK         0.3000 
    206 H206       -2.0429  -23.4749  -52.9184 H         1 UNK         0.0600 
    207 H207       -1.3120  -21.3315  -51.3524 H         1 UNK         0.0600 
    208 H208       -2.2877  -21.2495  -52.7982 H         1 UNK         0.0600 
    209 H209       -3.0683  -21.2708  -51.2267 H         1 UNK         0.0600 
    210 H210       -2.9373  -25.2212  -50.4750 H         1 UNK         0.3000 
    211 H211       -4.6531  -26.5147  -50.0115 H         1 UNK         0.0600 
    212 H212       -5.6288  -25.7284  -52.8084 H         1 UNK         0.0600 
    213 H213       -6.1593  -27.1312  -51.8922 H         1 UNK         0.0600 
    214 H214       -4.4890  -27.0168  -52.4256 H         1 UNK         0.0600 
    215 H215       -5.2672  -25.1170  -48.2631 H         1 UNK         0.3000 
    216 H216       -6.7761  -24.2793  -46.8907 H         1 UNK         0.0600 
    217 H217       -9.0963  -25.0763  -47.1033 H         1 UNK         0.0600 
    218 H218       -7.9861  -26.3556  -47.5629 H         1 UNK         0.0600 
    219 H219       -8.8565  -25.4545  -48.8036 H         1 UNK         0.0600 
    220 H220       -5.7460  -22.3780  -48.6297 H         1 UNK         0.3000 
    221 H221       -5.8643  -20.2655  -49.1018 H         1 UNK         0.0600 
    222 H222       -8.5329  -20.0669  -47.6298 H         1 UNK         0.0600 
    223 H223       -6.9446  -19.9871  -46.8652 H         1 UNK         0.0600 
    224 H224       -7.4333  -18.7507  -48.0103 H         1 UNK         0.0600 
    225 H225       -7.0645  -22.2959  -50.9375 H         1 UNK         0.3000 
    226 H226       -8.9423  -20.8237  -52.5959 H         1 UNK         0.0600 
    227 H227       -8.8464  -23.3143  -52.5848 H         1 UNK         0.0600 
    228 H228       -8.5286  -22.6820  -54.1928 H         1 UNK         0.0600 
    229 H229       -7.1971  -23.2690  -53.2057 H         1 UNK         0.0600 
    230 H230       -5.5628  -20.6827  -52.0972 H         1 UNK         0.3000 
    231 H231       -3.8558  -19.5578  -52.9317 H         1 UNK         0.0600 
    232 H232       -5.3899  -17.5927  -53.0386 H         1 UNK         0.0600 
    233 H233       -5.7754  -17.9900  -54.7141 H         1 UNK         0.0600 
    234 H234       -4.1367  -17.5408  -54.2666 H         1 UNK         0.0600 
    235 H235       -4.7386  -22.0839  -54.0824 H         1 UNK         0.3000 
    236 H236       -3.8447  -22.0295  -56.9153 H         1 UNK         0.0600 
    237 H237       -4.6937  -24.3730  -56.8833 H         1 UNK         0.0600 
    238 H238       -5.0747  -24.2325  -55.1690 H         1 UNK         0.0600 
    239 H239       -5.9367  -23.2508  -56.3512 H         1 UNK         0.0600 
    240 H240       -1.7679  -21.2261  -55.7186 H         1 UNK         0.3000 
    241 H241       -0.2079  -22.7028  -54.0260 H         1 UNK         0.0600 
    242 H242        1.3675  -25.4116  -55.6431 H         1 UNK         0.3800 
    243 H243        0.5384  -24.8183  -54.2225 H         1 UNK         0.3800 
    244 H244        1.6944  -21.2818  -54.7306 H         1 UNK         0.0800 
    245 H245        0.8281  -20.7879  -56.1590 H         1 UNK         0.0800 
    246 H246        0.7116  -20.7277  -52.1611 H         1 UNK         0.0800 
    247 H247        1.9069  -19.6649  -52.8595 H         1 UNK         0.0800 
@<TRIPOS>BOND
     1    1    2 1    
     2    1  127 1    
     3    1  128 1    
     4    1  129 1    
     5    2    3 2    
     6    2    4 am   BACKBONE|DICT|INTERRES
     7    4    5 1    
     8    4  130 1    
     9    5    6 1    
    10    5   65 1    
    11    5  131 1    
    12    6    7 1    
    13    6  132 1    
    14    6  133 1    
    15    7    8 1    
    16    8    9 1    
    17    8  134 1    
    18    8  135 1    
    19    9   10 ar   
    20    9   14 ar   
    21   10   11 ar   
    22   10  136 1    
    23   11   12 ar   
    24   11  126 1    
    25   12   13 ar   
    26   12  137 1    
    27   13   14 ar   
    28   13   15 1    
    29   14  138 1    
    30   15   16 1    
    31   15  139 1    
    32   15  140 1    
    33   16   17 1    
    34   17   18 1    
    35   17  141 1    
    36   17  142 1    
    37   18   19 1    
    38   18   67 1    
    39   18  143 1    
    40   19   20 am   BACKBONE|DICT|INTERRES
    41   19  144 1    
    42   20   21 2    
    43   20   22 1    
    44   22   23 1    
    45   22   24 1    
    46   22  145 1    
    47   23  146 1    
    48   23  147 1    
    49   23  148 1    
    50   24   25 am   BACKBONE|DICT|INTERRES
    51   24  149 1    
    52   25   26 2    
    53   25   27 1    
    54   27   28 1    
    55   27   29 1    
    56   27  150 1    
    57   28  151 1    
    58   28  152 1    
    59   28  153 1    
    60   29   30 am   BACKBONE|DICT|INTERRES
    61   29  154 1    
    62   30   31 2    
    63   30   32 1    
    64   32   33 1    
    65   32   34 1    
    66   32  155 1    
    67   33  156 1    
    68   33  157 1    
    69   33  158 1    
    70   34   35 am   BACKBONE|DICT|INTERRES
    71   34  159 1    
    72   35   36 2    
    73   35   37 1    
    74   37   38 1    
    75   37   39 1    
    76   37  160 1    
    77   38  161 1    
    78   38  162 1    
    79   38  163 1    
    80   39   40 am   BACKBONE|DICT|INTERRES
    81   39  164 1    
    82   40   41 2    
    83   40   42 1    
    84   42   43 1    
    85   42   44 1    
    86   42  165 1    
    87   43  166 1    
    88   43  167 1    
    89   43  168 1    
    90   44   45 am   BACKBONE|DICT|INTERRES
    91   44  169 1    
    92   45   46 2    
    93   45   47 1    
    94   47   48 1    
    95   47   49 1    
    96   47  170 1    
    97   48  171 1    
    98   48  172 1    
    99   48  173 1    
   100   49   50 am   BACKBONE|DICT|INTERRES
   101   49  174 1    
   102   50   51 2    
   103   50   52 1    
   104   52   53 1    
   105   52   54 1    
   106   52  175 1    
   107   53  176 1    
   108   53  177 1    
   109   53  178 1    
   110   54   55 am   BACKBONE|DICT|INTERRES
   111   54  179 1    
   112   55   56 2    
   113   55   57 1    
   114   57   58 1    
   115   57   59 1    
   116   57  180 1    
   117   58  181 1    
   118   58  182 1    
   119   58  183 1    
   120   59   60 am   BACKBONE|DICT|INTERRES
   121   59  184 1    
   122   60   61 2    
   123   60   62 1    
   124   62   63 1    
   125   62   64 1    
   126   62  185 1    
   127   63  186 1    
   128   63  187 1    
   129   63  188 1    
   130   64   65 am   BACKBONE|DICT|INTERRES
   131   64  189 1    
   132   65   66 2    
   133   67   68 2    
   134   67   69 am   BACKBONE|DICT|INTERRES
   135   69   70 1    
   136   69  190 1    
   137   70   71 1    
   138   70   72 1    
   139   70  191 1    
   140   71  192 1    
   141   71  193 1    
   142   71  194 1    
   143   72   73 2    
   144   72   74 am   BACKBONE|DICT|INTERRES
   145   74   75 1    
   146   74  195 1    
   147   75   76 1    
   148   75   77 1    
   149   75  196 1    
   150   76  197 1    
   151   76  198 1    
   152   76  199 1    
   153   77   78 2    
   154   77   79 am   BACKBONE|DICT|INTERRES
   155   79   80 1    
   156   79  200 1    
   157   80   81 1    
   158   80   82 1    
   159   80  201 1    
   160   81  202 1    
   161   81  203 1    
   162   81  204 1    
   163   82   83 2    
   164   82   84 am   BACKBONE|DICT|INTERRES
   165   84   85 1    
   166   84  205 1    
   167   85   86 1    
   168   85   87 1    
   169   85  206 1    
   170   86  207 1    
   171   86  208 1    
   172   86  209 1    
   173   87   88 2    
   174   87   89 am   BACKBONE|DICT|INTERRES
   175   89   90 1    
   176   89  210 1    
   177   90   91 1    
   178   90   92 1    
   179   90  211 1    
   180   91  212 1    
   181   91  213 1    
   182   91  214 1    
   183   92   93 2    
   184   92   94 am   BACKBONE|DICT|INTERRES
   185   94   95 1    
   186   94  215 1    
   187   95   96 1    
   188   95   97 1    
   189   95  216 1    
   190   96  217 1    
   191   96  218 1    
   192   96  219 1    
   193   97   98 2    
   194   97   99 am   BACKBONE|DICT|INTERRES
   195   99  100 1    
   196   99  220 1    
   197  100  101 1    
   198  100  102 1    
   199  100  221 1    
   200  101  222 1    
   201  101  223 1    
   202  101  224 1    
   203  102  103 2    
   204  102  104 am   BACKBONE|DICT|INTERRES
   205  104  105 1    
   206  104  225 1    
   207  105  106 1    
   208  105  107 1    
   209  105  226 1    
   210  106  227 1    
   211  106  228 1    
   212  106  229 1    
   213  107  108 2    
   214  107  109 am   BACKBONE|DICT|INTERRES
   215  109  110 1    
   216  109  230 1    
   217  110  111 1    
   218  110  112 1    
   219  110  231 1    
   220  111  232 1    
   221  111  233 1    
   222  111  234 1    
   223  112  113 2    
   224  112  114 am   BACKBONE|DICT|INTERRES
   225  114  115 1    
   226  114  235 1    
   227  115  116 1    
   228  115  117 1    
   229  115  236 1    
   230  116  237 1    
   231  116  238 1    
   232  116  239 1    
   233  117  118 2    
   234  117  119 am   BACKBONE|DICT|INTERRES
   235  119  120 1    
   236  119  240 1    
   237  120  121 1    
   238  120  124 1    
   239  120  241 1    
   240  121  122 am   BACKBONE|DICT|INTERRES
   241  121  123 2    
   242  122  242 1    
   243  122  243 1    
   244  124  125 1    
   245  124  244 1    
   246  124  245 1    
   247  125  126 1    
   248  126  246 1    
   249  126  247 1    
@<TRIPOS>SUBSTRUCTURE
     1 UNK         1 GROUP             0       ****    0 ROOT    
