@<TRIPOS>MOLECULE
3R540
247   249    1
SMALL
USER_CHARGES


@<TRIPOS>ATOM
      1 CA         -1.0456  -15.6661  -47.6103 C.3       0 UNK        -0.1800 
      2 C          -0.4222  -14.2803  -47.5294 C.2       0 UNK         0.5000 
      3 O          -0.7996  -13.4828  -46.6706 O.2       0 UNK        -0.5000 
      4 N           0.5393  -13.9952  -48.4167 N.am      1 UNK        -0.5000 
      5 CA          1.1918  -12.6885  -48.5886 C.3       1 UNK         0.1400 
      6 C6          2.1312  -12.6804  -49.8165 C.3       23 UNK        -0.0398 
      7 S7          1.2265  -12.8908  -51.3859 S.3       23 UNK        -0.2404 
      8 C8          1.8606  -14.4837  -52.0037 C.3       23 UNK        -0.0205 
      9 C9          1.0011  -15.6718  -51.5909 C.ar      23 UNK        -0.0193 
     10 C10        -0.3356  -15.7377  -51.9969 C.ar      23 UNK        -0.1150 
     11 C11        -1.1024  -16.8763  -51.7389 C.ar      23 UNK        -0.0193 
     12 C12        -0.5288  -17.9502  -51.0558 C.ar      23 UNK        -0.1150 
     13 C13         0.7989  -17.8935  -50.6268 C.ar      23 UNK        -0.0193 
     14 C14         1.5584  -16.7475  -50.8898 C.ar      23 UNK        -0.1150 
     15 C15         1.4256  -19.0986  -49.9396 C.3       23 UNK        -0.0205 
     16 S16         1.3988  -18.9605  -48.1269 S.3       23 UNK        -0.2404 
     17 C17        -0.3488  -19.2873  -47.7182 C.3       23 UNK        -0.0398 
     18 CA         -0.6262  -20.7236  -47.2081 C.3       11 UNK         0.1400 
     19 N           0.1552  -21.0844  -46.0134 N.am      11 UNK        -0.5000 
     20 C           0.1556  -22.3005  -45.4431 C.2       10 UNK         0.5000 
     21 O          -0.4534  -23.2649  -45.9047 O.2       10 UNK        -0.5000 
     22 CA          0.9007  -22.4635  -44.1034 C.3       10 UNK         0.1400 
     23 CB          2.3997  -22.7179  -44.3190 C.3       10 UNK        -0.1800 
     24 N           0.7011  -21.3229  -43.2081 N.am      10 UNK        -0.5000 
     25 C          -0.4752  -21.0078  -42.6447 C.2       9 UNK         0.5000 
     26 O          -1.4896  -21.6924  -42.7652 O.2       9 UNK        -0.5000 
     27 CA         -0.5566  -19.6727  -41.8782 C.3       9 UNK         0.1400 
     28 CB         -0.0935  -19.8358  -40.4237 C.3       9 UNK        -0.1800 
     29 N           0.2070  -18.6124  -42.5375 N.am      9 UNK        -0.5000 
     30 C          -0.0740  -18.1485  -43.7634 C.2       8 UNK         0.5000 
     31 O          -1.0631  -18.4910  -44.4100 O.2       8 UNK        -0.5000 
     32 CA          0.9445  -17.1959  -44.4060 C.3       8 UNK         0.1400 
     33 CB          0.5931  -15.7366  -44.1141 C.3       8 UNK        -0.1800 
     34 N           2.3190  -17.4712  -43.9891 N.am      8 UNK        -0.5000 
     35 C           3.0163  -18.5429  -44.3895 C.2       7 UNK         0.5000 
     36 O           2.5697  -19.3952  -45.1531 O.2       7 UNK        -0.5000 
     37 CA          4.4194  -18.7257  -43.7839 C.3       7 UNK         0.1400 
     38 CB          5.4326  -17.7873  -44.4571 C.3       7 UNK        -0.1800 
     39 N           4.4299  -18.4995  -42.3390 N.am      7 UNK        -0.5000 
     40 C           3.7576  -19.2445  -41.4498 C.2       6 UNK         0.5000 
     41 O           3.1277  -20.2582  -41.7504 O.2       6 UNK        -0.5000 
     42 CA          3.7470  -18.7485  -39.9895 C.3       6 UNK         0.1400 
     43 CB          4.8605  -19.4327  -39.1832 C.3       6 UNK        -0.1800 
     44 N           3.8786  -17.2934  -39.8554 N.am      6 UNK        -0.5000 
     45 C           3.0232  -16.3903  -40.3547 C.2       5 UNK         0.5000 
     46 O           2.0223  -16.6885  -41.0113 O.2       5 UNK        -0.5000 
     47 CA          3.4146  -14.9143  -40.1499 C.3       5 UNK         0.1400 
     48 CB          4.5044  -14.5231  -41.1562 C.3       5 UNK        -0.1800 
     49 N           2.2884  -13.9907  -40.2974 N.am      5 UNK        -0.5000 
     50 C           1.2706  -13.8948  -39.4306 C.2       4 UNK         0.5000 
     51 O           1.1716  -14.5951  -38.4213 O.2       4 UNK        -0.5000 
     52 CA          0.2030  -12.8146  -39.6928 C.3       4 UNK         0.1400 
     53 CB          0.3219  -11.6836  -38.6580 C.3       4 UNK        -0.1800 
     54 N           0.2828  -12.2237  -41.0293 N.am      4 UNK        -0.5000 
     55 C          -0.3300  -12.7062  -42.1166 C.2       3 UNK         0.5000 
     56 O          -1.0091  -13.7327  -42.1158 O.2       3 UNK        -0.5000 
     57 CA         -0.2023  -11.8854  -43.4161 C.3       3 UNK         0.1400 
     58 CB         -0.0692  -10.3662  -43.1701 C.3       3 UNK        -0.1800 
     59 N           0.8637  -12.3540  -44.3047 N.am      3 UNK        -0.5000 
     60 C           2.1808  -12.4291  -44.0537 C.2       2 UNK         0.5000 
     61 O           2.6761  -12.2038  -42.9483 O.2       2 UNK        -0.5000 
     62 CA          3.1113  -12.8094  -45.2315 C.3       2 UNK         0.1400 
     63 CB          4.0246  -13.9967  -44.8908 C.3       2 UNK        -0.1800 
     64 N           2.3987  -13.1081  -46.4773 N.am      2 UNK        -0.5000 
     65 C           1.9529  -12.1861  -47.3414 C.2       1 UNK         0.5000 
     66 O           2.1117  -10.9753  -47.1819 O.2       1 UNK        -0.5000 
     67 C          -2.1445  -20.8994  -46.9793 C.2       11 UNK         0.5000 
     68 O          -2.8407  -21.4122  -47.8588 O.2       11 UNK        -0.5000 
     69 N          -2.6198  -20.4825  -45.7968 N.am      12 UNK        -0.5000 
     70 CA         -4.0038  -20.6247  -45.3497 C.3       12 UNK         0.1400 
     71 CB         -4.2349  -19.7613  -44.1009 C.3       12 UNK        -0.1800 
     72 C          -4.3915  -22.0902  -45.0877 C.2       12 UNK         0.5000 
     73 O          -5.4776  -22.5024  -45.4924 O.2       12 UNK        -0.5000 
     74 N          -3.4918  -22.8650  -44.4639 N.am      13 UNK        -0.5000 
     75 CA         -3.6518  -24.3035  -44.2244 C.3       13 UNK         0.1400 
     76 CB         -2.5274  -24.8054  -43.3068 C.3       13 UNK        -0.1800 
     77 C          -3.6981  -25.1239  -45.5277 C.2       13 UNK         0.5000 
     78 O          -4.4777  -26.0720  -45.6241 O.2       13 UNK        -0.5000 
     79 N          -2.9004  -24.7114  -46.5223 N.am      14 UNK        -0.5000 
     80 CA         -2.9220  -25.2308  -47.8914 C.3       14 UNK         0.1400 
     81 CB         -1.6109  -24.8376  -48.5911 C.3       14 UNK        -0.1800 
     82 C          -4.1320  -24.7403  -48.7137 C.2       14 UNK         0.5000 
     83 O          -4.3346  -25.2293  -49.8255 O.2       14 UNK        -0.5000 
     84 N          -4.8908  -23.7713  -48.1799 N.am      15 UNK        -0.5000 
     85 CA         -6.0689  -23.1260  -48.7630 C.3       15 UNK         0.1400 
     86 CB         -7.2503  -24.1168  -48.8147 C.3       15 UNK        -0.1800 
     87 C          -5.7695  -22.4721  -50.1248 C.2       15 UNK         0.5000 
     88 O          -6.5331  -22.6567  -51.0724 O.2       15 UNK        -0.5000 
     89 N          -4.6347  -21.7587  -50.2105 N.am      16 UNK        -0.5000 
     90 CA         -4.0908  -21.1443  -51.4300 C.3       16 UNK         0.1400 
     91 CB         -4.9914  -19.9857  -51.9110 C.3       16 UNK        -0.1800 
     92 C          -3.8145  -22.1890  -52.5341 C.2       16 UNK         0.5000 
     93 O          -4.1621  -21.9714  -53.6968 O.2       16 UNK        -0.5000 
     94 N          -3.2187  -23.3177  -52.1189 N.am      17 UNK        -0.5000 
     95 CA         -2.9381  -24.5218  -52.9076 C.3       17 UNK         0.1400 
     96 CB         -1.9039  -24.2249  -54.0135 C.3       17 UNK        -0.1800 
     97 C          -4.2327  -25.1626  -53.4463 C.2       17 UNK         0.5000 
     98 O          -4.3502  -25.4061  -54.6463 O.2       17 UNK        -0.5000 
     99 N          -5.2013  -25.3819  -52.5449 N.am      18 UNK        -0.5000 
    100 CA        -6.5625  -25.8637  -52.8154 C.3       18 UNK         0.1400 
    101 CB        -6.5393  -27.3503  -53.2263 C.3       18 UNK        -0.1800 
    102 C         -7.3163  -24.9661  -53.8229 C.2       18 UNK         0.5000 
    103 O         -7.9614  -25.4636  -54.7476 O.2       18 UNK        -0.5000 
    104 N         -7.1827  -23.6481  -53.6239 N.am      19 UNK        -0.5000 
    105 CA        -7.7186  -22.5425  -54.4199 C.3       19 UNK         0.1400 
    106 CB        -9.2603  -22.5337  -54.3721 C.3       19 UNK        -0.1800 
    107 C         -7.1734  -22.4509  -55.8621 C.2       19 UNK         0.5000 
    108 O         -7.7455  -21.7182  -56.6720 O.2       19 UNK        -0.5000 
    109 N         -6.0674  -23.1423  -56.1745 N.am      20 UNK        -0.5000 
    110 CA        -5.4252  -23.1494  -57.4925 C.3       20 UNK         0.1400 
    111 CB        -4.6487  -24.4646  -57.6772 C.3       20 UNK        -0.1800 
    112 C         -4.5398  -21.9050  -57.7148 C.2       20 UNK         0.5000 
    113 O         -3.3502  -22.0348  -58.0111 O.2       20 UNK        -0.5000 
    114 N         -5.1390  -20.7159  -57.5552 N.am      21 UNK        -0.5000 
    115 CA        -4.5658  -19.3837  -57.7864 C.3       21 UNK         0.1400 
    116 CB        -4.4393  -19.1265  -59.3023 C.3       21 UNK        -0.1800 
    117 C         -3.2450  -19.1307  -57.0256 C.2       21 UNK         0.5000 
    118 O         -2.3192  -18.5357  -57.5803 O.2       21 UNK        -0.5000 
    119 N         -3.1832  -19.6135  -55.7771 N.am      22 UNK        -0.5000 
    120 CA        -2.0075  -19.5940  -54.8878 C.3       22 UNK         0.1400 
    121 C         -0.8868  -20.6098  -55.2716 C.2       22 UNK         0.5000 
    122 N         -1.0643  -21.4772  -56.2612 N.am      22 UNK        -0.7600 
    123 O          0.1636  -20.6352  -54.6365 O.2       22 UNK        -0.5000 
    124 C124       -1.4294  -18.1739  -54.6212 C.3       23 UNK        -0.0398 
    125 S125       -2.6654  -16.9427  -54.0625 S.3       23 UNK        -0.2404 
    126 C126       -2.5346  -16.9790  -52.2415 C.3       23 UNK        -0.0205 
    127 H127       -0.4922  -16.3159  -48.2885 H         1 UNK         0.0600 
    128 H128       -2.0714  -15.5936  -47.9710 H         1 UNK         0.0600 
    129 H129       -1.0635  -16.1330  -46.6264 H         1 UNK         0.0600 
    130 H130        0.7860  -14.6905  -49.1072 H         1 UNK         0.3000 
    131 H131        0.3965  -11.9619  -48.7689 H         1 UNK         0.0600 
    132 H132        2.6611  -11.7285  -49.8888 H         1 UNK         0.0800 
    133 H133        2.9021  -13.4457  -49.7137 H         1 UNK         0.0800 
    134 H134        1.8730  -14.4418  -53.0937 H         1 UNK         0.0800 
    135 H135        2.9001  -14.6211  -51.7026 H         1 UNK         0.0800 
    136 H136       -0.7683  -14.9183  -52.5540 H         1 UNK         0.1150 
    137 H137       -1.1098  -18.8446  -50.8826 H         1 UNK         0.1150 
    138 H138        2.5952  -16.7145  -50.5851 H         1 UNK         0.1150 
    139 H139        0.9258  -20.0199  -50.2427 H         1 UNK         0.0800 
    140 H140        2.4623  -19.1993  -50.2642 H         1 UNK         0.0800 
    141 H141       -0.9653  -19.0725  -48.5898 H         1 UNK         0.0800 
    142 H142       -0.6484  -18.5575  -46.9676 H         1 UNK         0.0800 
    143 H143       -0.3394  -21.4195  -47.9992 H         1 UNK         0.0600 
    144 H144        0.7416  -20.3593  -45.6150 H         1 UNK         0.3000 
    145 H145        0.4906  -23.3441  -43.6053 H         1 UNK         0.0600 
    146 H146        2.5567  -23.6255  -44.9030 H         1 UNK         0.0600 
    147 H147        2.8827  -21.9019  -44.8540 H         1 UNK         0.0600 
    148 H148        2.9183  -22.8478  -43.3689 H         1 UNK         0.0600 
    149 H149        1.5061  -20.7341  -43.0267 H         1 UNK         0.3000 
    150 H150       -1.6028  -19.3604  -41.8626 H         1 UNK         0.0600 
    151 H151       -0.0917  -18.8813  -39.8968 H         1 UNK         0.0600 
    152 H152        0.9077  -20.2589  -40.3613 H         1 UNK         0.0600 
    153 H153       -0.7604  -20.5071  -39.8817 H         1 UNK         0.0600 
    154 H154        1.0048  -18.2296  -42.0435 H         1 UNK         0.3000 
    155 H155        0.8813  -17.3396  -45.4861 H         1 UNK         0.0600 
    156 H156        0.8444  -15.4546  -43.0918 H         1 UNK         0.0600 
    157 H157       -0.4712  -15.5445  -44.2572 H         1 UNK         0.0600 
    158 H158        1.1268  -15.0778  -44.7932 H         1 UNK         0.0600 
    159 H159        2.7069  -16.8700  -43.2770 H         1 UNK         0.3000 
    160 H160        4.7307  -19.7561  -43.9689 H         1 UNK         0.0600 
    161 H161        5.4350  -17.9273  -45.5389 H         1 UNK         0.0600 
    162 H162        6.4448  -17.9828  -44.1030 H         1 UNK         0.0600 
    163 H163        5.2067  -16.7386  -44.2619 H         1 UNK         0.0600 
    164 H164        4.9346  -17.6927  -42.0044 H         1 UNK         0.3000 
    165 H165        2.7879  -19.0319  -39.5531 H         1 UNK         0.0600 
    166 H166        4.8088  -19.1612  -38.1287 H         1 UNK         0.0600 
    167 H167        4.7740  -20.5187  -39.2417 H         1 UNK         0.0600 
    168 H168        5.8504  -19.1619  -39.5528 H         1 UNK         0.0600 
    169 H169        4.6853  -16.9667  -39.3428 H         1 UNK         0.3000 
    170 H170        3.8140  -14.7989  -39.1401 H         1 UNK         0.0600 
    171 H171        4.7605  -13.4660  -41.0797 H         1 UNK         0.0600 
    172 H172        5.4200  -15.0922  -40.9919 H         1 UNK         0.0600 
    173 H173        4.1757  -14.7182  -42.1747 H         1 UNK         0.0600 
    174 H174        2.2912  -13.3918  -41.1143 H         1 UNK         0.3000 
    175 H175       -0.7736  -13.2862  -39.5644 H         1 UNK         0.0600 
    176 H176        1.2834  -11.1734  -38.7282 H         1 UNK         0.0600 
    177 H177       -0.4638  -10.9403  -38.7941 H         1 UNK         0.0600 
    178 H178        0.2284  -12.0693  -37.6419 H         1 UNK         0.0600 
    179 H179        0.8537  -11.3963  -41.1280 H         1 UNK         0.3000 
    180 H180       -1.1342  -12.0407  -43.9621 H         1 UNK         0.0600 
    181 H181       -0.1448   -9.8150  -44.1076 H         1 UNK         0.0600 
    182 H182        0.8825  -10.0992  -42.7101 H         1 UNK         0.0600 
    183 H183       -0.8656  -10.0030  -42.5191 H         1 UNK         0.0600 
    184 H184        0.5459  -12.6269  -45.2278 H         1 UNK         0.3000 
    185 H185        3.7577  -11.9468  -45.4060 H         1 UNK         0.0600 
    186 H186        3.4608  -14.8614  -44.5441 H         1 UNK         0.0600 
    187 H187        4.6136  -14.3055  -45.7547 H         1 UNK         0.0600 
    188 H188        4.7340  -13.7202  -44.1113 H         1 UNK         0.0600 
    189 H189        2.2202  -14.0804  -46.6809 H         1 UNK         0.3000 
    190 H190       -1.9872  -20.0028  -45.1621 H         1 UNK         0.3000 
    191 H191       -4.6512  -20.2473  -46.1442 H         1 UNK         0.0600 
    192 H192       -3.6112  -20.0811  -43.2665 H         1 UNK         0.0600 
    193 H193       -5.2740  -19.8179  -43.7745 H         1 UNK         0.0600 
    194 H194       -4.0124  -18.7128  -44.3005 H         1 UNK         0.0600 
    195 H195       -2.6480  -22.4353  -44.0943 H         1 UNK         0.3000 
    196 H196       -4.6021  -24.4501  -43.7071 H         1 UNK         0.0600 
    197 H197       -2.6485  -25.8666  -43.0857 H         1 UNK         0.0600 
    198 H198       -2.5268  -24.2733  -42.3555 H         1 UNK         0.0600 
    199 H199       -1.5469  -24.6758  -43.7647 H         1 UNK         0.0600 
    200 H200       -2.2269  -23.9749  -46.3305 H         1 UNK         0.3000 
    201 H201       -2.9754  -26.3205  -47.8499 H         1 UNK         0.0600 
    202 H202       -0.7459  -25.2191  -48.0482 H         1 UNK         0.0600 
    203 H203       -1.5052  -23.7550  -48.6673 H         1 UNK         0.0600 
    204 H204       -1.5646  -25.2460  -49.6014 H         1 UNK         0.0600 
    205 H205       -4.6334  -23.4290  -47.2633 H         1 UNK         0.3000 
    206 H206       -6.3460  -22.3134  -48.0906 H         1 UNK         0.0600 
    207 H207       -8.1611  -23.6236  -49.1561 H         1 UNK         0.0600 
    208 H208       -7.0539  -24.9483  -49.4918 H         1 UNK         0.0600 
    209 H209       -7.4569  -24.5309  -47.8278 H         1 UNK         0.0600 
    210 H210       -4.0583  -21.6758  -49.3760 H         1 UNK         0.3000 
    211 H211       -3.1226  -20.7202  -51.1601 H         1 UNK         0.0600 
    212 H212       -5.9792  -20.3336  -52.2128 H         1 UNK         0.0600 
    213 H213       -4.5556  -19.4778  -52.7716 H         1 UNK         0.0600 
    214 H214       -5.1254  -19.2408  -51.1269 H         1 UNK         0.0600 
    215 H215       -3.0346  -23.4042  -51.1300 H         1 UNK         0.3000 
    216 H216       -2.4940  -25.2462  -52.2233 H         1 UNK         0.0600 
    217 H217       -1.5916  -25.1440  -54.5102 H         1 UNK         0.0600 
    218 H218       -1.0098  -23.7539  -53.6053 H         1 UNK         0.0600 
    219 H219       -2.3097  -23.5648  -54.7805 H         1 UNK         0.0600 
    220 H220       -4.9922  -25.1793  -51.5692 H         1 UNK         0.3000 
    221 H221       -7.1071  -25.7892  -51.8733 H         1 UNK         0.0600 
    222 H222       -6.0434  -27.4982  -54.1861 H         1 UNK         0.0600 
    223 H223       -6.0199  -27.9555  -52.4834 H         1 UNK         0.0600 
    224 H224       -7.5515  -27.7462  -53.3166 H         1 UNK         0.0600 
    225 H225       -6.6766  -23.3532  -52.7911 H         1 UNK         0.3000 
    226 H226       -7.3730  -21.6362  -53.9211 H         1 UNK         0.0600 
    227 H227       -9.6223  -22.5724  -53.3447 H         1 UNK         0.0600 
    228 H228       -9.6627  -21.6249  -54.8208 H         1 UNK         0.0600 
    229 H229       -9.6870  -23.3798  -54.9114 H         1 UNK         0.0600 
    230 H230       -5.6163  -23.6931  -55.4536 H         1 UNK         0.3000 
    231 H231       -6.2035  -23.1275  -58.2581 H         1 UNK         0.0600 
    232 H232       -3.7830  -24.5170  -57.0164 H         1 UNK         0.0600 
    233 H233       -5.2796  -25.3305  -57.4754 H         1 UNK         0.0600 
    234 H234       -4.2822  -24.5591  -58.6999 H         1 UNK         0.0600 
    235 H235       -6.1183  -20.7370  -57.2873 H         1 UNK         0.3000 
    236 H236       -5.2848  -18.6663  -57.3885 H         1 UNK         0.0600 
    237 H237       -3.7059  -19.7894  -59.7629 H         1 UNK         0.0600 
    238 H238       -5.3925  -19.2780  -59.8088 H         1 UNK         0.0600 
    239 H239       -4.1274  -18.1008  -59.5029 H         1 UNK         0.0600 
    240 H240       -3.9728  -20.1392  -55.4275 H         1 UNK         0.3000 
    241 H241       -2.3760  -19.9554  -53.9293 H         1 UNK         0.0600 
    242 H242       -0.3261  -22.1259  -56.4801 H         1 UNK         0.3800 
    243 H243       -1.9218  -21.5001  -56.8048 H         1 UNK         0.3800 
    244 H244       -0.6167  -18.2303  -53.8984 H         1 UNK         0.0800 
    245 H245       -0.9646  -17.7814  -55.5258 H         1 UNK         0.0800 
    246 H246       -3.0029  -17.8913  -51.8737 H         1 UNK         0.0800 
    247 H247       -3.1155  -16.1526  -51.8301 H         1 UNK         0.0800 
@<TRIPOS>BOND
     1    1    2 1    
     2    1  127 1    
     3    1  128 1    
     4    1  129 1    
     5    2    3 2    
     6    2    4 am   BACKBONE|DICT|INTERRES
     7    4    5 1    
     8    4  130 1    
     9    5    6 1    
    10    5   65 1    
    11    5  131 1    
    12    6    7 1    
    13    6  132 1    
    14    6  133 1    
    15    7    8 1    
    16    8    9 1    
    17    8  134 1    
    18    8  135 1    
    19    9   10 ar   
    20    9   14 ar   
    21   10   11 ar   
    22   10  136 1    
    23   11   12 ar   
    24   11  126 1    
    25   12   13 ar   
    26   12  137 1    
    27   13   14 ar   
    28   13   15 1    
    29   14  138 1    
    30   15   16 1    
    31   15  139 1    
    32   15  140 1    
    33   16   17 1    
    34   17   18 1    
    35   17  141 1    
    36   17  142 1    
    37   18   19 1    
    38   18   67 1    
    39   18  143 1    
    40   19   20 am   BACKBONE|DICT|INTERRES
    41   19  144 1    
    42   20   21 2    
    43   20   22 1    
    44   22   23 1    
    45   22   24 1    
    46   22  145 1    
    47   23  146 1    
    48   23  147 1    
    49   23  148 1    
    50   24   25 am   BACKBONE|DICT|INTERRES
    51   24  149 1    
    52   25   26 2    
    53   25   27 1    
    54   27   28 1    
    55   27   29 1    
    56   27  150 1    
    57   28  151 1    
    58   28  152 1    
    59   28  153 1    
    60   29   30 am   BACKBONE|DICT|INTERRES
    61   29  154 1    
    62   30   31 2    
    63   30   32 1    
    64   32   33 1    
    65   32   34 1    
    66   32  155 1    
    67   33  156 1    
    68   33  157 1    
    69   33  158 1    
    70   34   35 am   BACKBONE|DICT|INTERRES
    71   34  159 1    
    72   35   36 2    
    73   35   37 1    
    74   37   38 1    
    75   37   39 1    
    76   37  160 1    
    77   38  161 1    
    78   38  162 1    
    79   38  163 1    
    80   39   40 am   BACKBONE|DICT|INTERRES
    81   39  164 1    
    82   40   41 2    
    83   40   42 1    
    84   42   43 1    
    85   42   44 1    
    86   42  165 1    
    87   43  166 1    
    88   43  167 1    
    89   43  168 1    
    90   44   45 am   BACKBONE|DICT|INTERRES
    91   44  169 1    
    92   45   46 2    
    93   45   47 1    
    94   47   48 1    
    95   47   49 1    
    96   47  170 1    
    97   48  171 1    
    98   48  172 1    
    99   48  173 1    
   100   49   50 am   BACKBONE|DICT|INTERRES
   101   49  174 1    
   102   50   51 2    
   103   50   52 1    
   104   52   53 1    
   105   52   54 1    
   106   52  175 1    
   107   53  176 1    
   108   53  177 1    
   109   53  178 1    
   110   54   55 am   BACKBONE|DICT|INTERRES
   111   54  179 1    
   112   55   56 2    
   113   55   57 1    
   114   57   58 1    
   115   57   59 1    
   116   57  180 1    
   117   58  181 1    
   118   58  182 1    
   119   58  183 1    
   120   59   60 am   BACKBONE|DICT|INTERRES
   121   59  184 1    
   122   60   61 2    
   123   60   62 1    
   124   62   63 1    
   125   62   64 1    
   126   62  185 1    
   127   63  186 1    
   128   63  187 1    
   129   63  188 1    
   130   64   65 am   BACKBONE|DICT|INTERRES
   131   64  189 1    
   132   65   66 2    
   133   67   68 2    
   134   67   69 am   BACKBONE|DICT|INTERRES
   135   69   70 1    
   136   69  190 1    
   137   70   71 1    
   138   70   72 1    
   139   70  191 1    
   140   71  192 1    
   141   71  193 1    
   142   71  194 1    
   143   72   73 2    
   144   72   74 am   BACKBONE|DICT|INTERRES
   145   74   75 1    
   146   74  195 1    
   147   75   76 1    
   148   75   77 1    
   149   75  196 1    
   150   76  197 1    
   151   76  198 1    
   152   76  199 1    
   153   77   78 2    
   154   77   79 am   BACKBONE|DICT|INTERRES
   155   79   80 1    
   156   79  200 1    
   157   80   81 1    
   158   80   82 1    
   159   80  201 1    
   160   81  202 1    
   161   81  203 1    
   162   81  204 1    
   163   82   83 2    
   164   82   84 am   BACKBONE|DICT|INTERRES
   165   84   85 1    
   166   84  205 1    
   167   85   86 1    
   168   85   87 1    
   169   85  206 1    
   170   86  207 1    
   171   86  208 1    
   172   86  209 1    
   173   87   88 2    
   174   87   89 am   BACKBONE|DICT|INTERRES
   175   89   90 1    
   176   89  210 1    
   177   90   91 1    
   178   90   92 1    
   179   90  211 1    
   180   91  212 1    
   181   91  213 1    
   182   91  214 1    
   183   92   93 2    
   184   92   94 am   BACKBONE|DICT|INTERRES
   185   94   95 1    
   186   94  215 1    
   187   95   96 1    
   188   95   97 1    
   189   95  216 1    
   190   96  217 1    
   191   96  218 1    
   192   96  219 1    
   193   97   98 2    
   194   97   99 am   BACKBONE|DICT|INTERRES
   195   99  100 1    
   196   99  220 1    
   197  100  101 1    
   198  100  102 1    
   199  100  221 1    
   200  101  222 1    
   201  101  223 1    
   202  101  224 1    
   203  102  103 2    
   204  102  104 am   BACKBONE|DICT|INTERRES
   205  104  105 1    
   206  104  225 1    
   207  105  106 1    
   208  105  107 1    
   209  105  226 1    
   210  106  227 1    
   211  106  228 1    
   212  106  229 1    
   213  107  108 2    
   214  107  109 am   BACKBONE|DICT|INTERRES
   215  109  110 1    
   216  109  230 1    
   217  110  111 1    
   218  110  112 1    
   219  110  231 1    
   220  111  232 1    
   221  111  233 1    
   222  111  234 1    
   223  112  113 2    
   224  112  114 am   BACKBONE|DICT|INTERRES
   225  114  115 1    
   226  114  235 1    
   227  115  116 1    
   228  115  117 1    
   229  115  236 1    
   230  116  237 1    
   231  116  238 1    
   232  116  239 1    
   233  117  118 2    
   234  117  119 am   BACKBONE|DICT|INTERRES
   235  119  120 1    
   236  119  240 1    
   237  120  121 1    
   238  120  124 1    
   239  120  241 1    
   240  121  122 am   BACKBONE|DICT|INTERRES
   241  121  123 2    
   242  122  242 1    
   243  122  243 1    
   244  124  125 1    
   245  124  244 1    
   246  124  245 1    
   247  125  126 1    
   248  126  246 1    
   249  126  247 1    
@<TRIPOS>SUBSTRUCTURE
     1 UNK         1 GROUP             0       ****    0 ROOT    
