@<TRIPOS>MOLECULE
3R540
247   249    1
SMALL
USER_CHARGES


@<TRIPOS>ATOM
      1 CA         -3.4925  -15.1438  -46.1704 C.3       0 UNK        -0.1800 
      2 C          -2.9302  -14.2607  -47.2736 C.2       0 UNK         0.5000 
      3 O          -3.6947  -13.6865  -48.0494 O.2       0 UNK        -0.5000 
      4 N          -1.5999  -14.1351  -47.3344 N.am      1 UNK        -0.5000 
      5 CA         -0.8480  -13.3337  -48.3044 C.3       1 UNK         0.1400 
      6 C6          0.6734  -13.6265  -48.2508 C.3       23 UNK        -0.0398 
      7 S7          1.0595  -15.4026  -48.3830 S.3       23 UNK        -0.2404 
      8 C8          1.3371  -15.5983  -50.1661 C.3       23 UNK        -0.0205 
      9 C9          1.5565  -17.0648  -50.4907 C.ar      23 UNK        -0.0193 
     10 C10         2.8415  -17.5634  -50.7158 C.ar      23 UNK        -0.1150 
     11 C11         3.0428  -18.9260  -50.9573 C.ar      23 UNK        -0.0193 
     12 C12         1.9442  -19.7912  -50.9833 C.ar      23 UNK        -0.1150 
     13 C13         0.6544  -19.3000  -50.7583 C.ar      23 UNK        -0.0193 
     14 C14         0.4675  -17.9366  -50.5207 C.ar      23 UNK        -0.1150 
     15 C15        -0.5481  -20.2278  -50.7590 C.3       23 UNK        -0.0205 
     16 S16        -1.2067  -20.4374  -49.0805 S.3       23 UNK        -0.2404 
     17 C17         0.0315  -21.5419  -48.3288 C.3       23 UNK        -0.0398 
     18 CA         -0.6060  -22.8378  -47.7812 C.3       11 UNK         0.1400 
     19 N           0.3987  -23.8704  -47.5365 N.am      11 UNK        -0.5000 
     20 C           0.1305  -25.1763  -47.4047 C.2       10 UNK         0.5000 
     21 O          -0.9924  -25.6618  -47.5341 O.2       10 UNK        -0.5000 
     22 CA          1.3158  -26.0806  -47.0197 C.3       10 UNK         0.1400 
     23 CB          2.0761  -26.5384  -48.2731 C.3       10 UNK        -0.1800 
     24 N           2.2460  -25.4162  -46.1035 N.am      10 UNK        -0.5000 
     25 C           1.9432  -25.0725  -44.8438 C.2       9 UNK         0.5000 
     26 O           0.8666  -25.3329  -44.3074 O.2       9 UNK        -0.5000 
     27 CA          2.9984  -24.2563  -44.0749 C.3       9 UNK         0.1400 
     28 CB          3.9926  -25.1903  -43.3696 C.3       9 UNK        -0.1800 
     29 N           3.7344  -23.3093  -44.9194 N.am      9 UNK        -0.5000 
     30 C           3.1871  -22.2615  -45.5494 C.2       8 UNK         0.5000 
     31 O           1.9809  -22.0051  -45.5367 O.2       8 UNK        -0.5000 
     32 CA          4.1359  -21.3831  -46.3723 C.3       8 UNK         0.1400 
     33 CB          4.1515  -21.8358  -47.8417 C.3       8 UNK        -0.1800 
     34 N           3.6845  -19.9960  -46.3090 N.am      8 UNK        -0.5000 
     35 C           4.4624  -18.9438  -46.0287 C.2       7 UNK         0.5000 
     36 O           5.6678  -19.0340  -45.7906 O.2       7 UNK        -0.5000 
     37 CA          3.8066  -17.5487  -46.0277 C.3       7 UNK         0.1400 
     38 CB          4.2810  -16.7399  -47.2449 C.3       7 UNK        -0.1800 
     39 N           2.3414  -17.5815  -46.0265 N.am      7 UNK        -0.5000 
     40 C           1.5902  -17.7202  -44.9280 C.2       6 UNK         0.5000 
     41 O           2.0522  -17.8913  -43.7976 O.2       6 UNK        -0.5000 
     42 CA          0.0641  -17.6793  -45.1269 C.3       6 UNK         0.1400 
     43 CB         -0.5306  -19.0918  -45.0545 C.3       6 UNK        -0.1800 
     44 N          -0.5735  -16.8484  -44.1067 N.am      6 UNK        -0.5000 
     45 C          -0.5730  -15.5111  -44.1180 C.2       5 UNK         0.5000 
     46 O          -0.0973  -14.8498  -45.0416 O.2       5 UNK        -0.5000 
     47 CA         -1.2751  -14.8253  -42.9267 C.3       5 UNK         0.1400 
     48 CB         -0.5036  -15.0457  -41.6090 C.3       5 UNK        -0.1800 
     49 N          -1.5605  -13.3997  -43.1467 N.am      5 UNK        -0.5000 
     50 C          -0.6961  -12.3773  -43.2456 C.2       4 UNK         0.5000 
     51 O           0.5238  -12.4862  -43.1069 O.2       4 UNK        -0.5000 
     52 CA         -1.3167  -10.9939  -43.5333 C.3       4 UNK         0.1400 
     53 CB         -0.2677   -9.9426  -43.9405 C.3       4 UNK        -0.1800 
     54 N          -2.3401  -11.0705  -44.5796 N.am      4 UNK        -0.5000 
     55 C          -3.6632  -11.1187  -44.3664 C.2       3 UNK         0.5000 
     56 O          -4.1525  -11.1710  -43.2375 O.2       3 UNK        -0.5000 
     57 CA         -4.6064  -11.1633  -45.5918 C.3       3 UNK         0.1400 
     58 CB         -5.8368  -10.2492  -45.4169 C.3       3 UNK        -0.1800 
     59 N          -3.9482  -10.9276  -46.8817 N.am      3 UNK        -0.5000 
     60 C          -3.3771   -9.7994  -47.3344 C.2       2 UNK         0.5000 
     61 O          -3.3964   -8.7270  -46.7288 O.2       2 UNK        -0.5000 
     62 CA         -2.6211   -9.9211  -48.6802 C.3       2 UNK         0.1400 
     63 CB         -1.5719   -8.8078  -48.8828 C.3       2 UNK        -0.1800 
     64 N          -2.0158  -11.2486  -48.8701 N.am      2 UNK        -0.5000 
     65 C          -1.1341  -11.8424  -48.0511 C.2       1 UNK         0.5000 
     66 O          -0.6353  -11.2918  -47.0691 O.2       1 UNK        -0.5000 
     67 C          -1.4617  -22.5890  -46.5210 C.2       11 UNK         0.5000 
     68 O          -2.6782  -22.4467  -46.6376 O.2       11 UNK        -0.5000 
     69 N          -0.8274  -22.5950  -45.3386 N.am      12 UNK        -0.5000 
     70 CA         -1.4880  -22.4822  -44.0363 C.3       12 UNK         0.1400 
     71 CB         -0.4340  -22.3608  -42.9247 C.3       12 UNK        -0.1800 
     72 C          -2.4451  -23.6559  -43.7591 C.2       12 UNK         0.5000 
     73 O          -3.5681  -23.4284  -43.3097 O.2       12 UNK        -0.5000 
     74 N          -2.0134  -24.8810  -44.0927 N.am      13 UNK        -0.5000 
     75 CA         -2.8262  -26.1006  -44.0355 C.3       13 UNK         0.1400 
     76 CB         -1.9298  -27.3172  -44.3099 C.3       13 UNK        -0.1800 
     77 C          -4.0239  -26.0776  -45.0083 C.2       13 UNK         0.5000 
     78 O          -5.0722  -26.6452  -44.7015 O.2       13 UNK        -0.5000 
     79 N          -3.8556  -25.3866  -46.1421 N.am      14 UNK        -0.5000 
     80 CA         -4.8817  -25.1184  -47.1503 C.3       14 UNK         0.1400 
     81 CB         -4.1783  -24.9729  -48.5077 C.3       14 UNK        -0.1800 
     82 C          -5.7345  -23.8685  -46.8346 C.2       14 UNK         0.5000 
     83 O          -6.5481  -23.4677  -47.6727 O.2       14 UNK        -0.5000 
     84 N          -5.5076  -23.2472  -45.6647 N.am      15 UNK        -0.5000 
     85 CA         -6.1598  -22.0466  -45.1252 C.3       15 UNK         0.1400 
     86 CB         -7.6357  -22.3521  -44.7967 C.3       15 UNK        -0.1800 
     87 C          -6.0089  -20.7898  -46.0105 C.2       15 UNK         0.5000 
     88 O          -6.8139  -19.8645  -45.8941 O.2       15 UNK        -0.5000 
     89 N          -5.0094  -20.7975  -46.9065 N.am      16 UNK        -0.5000 
     90 CA         -4.7893  -19.8565  -48.0103 C.3       16 UNK         0.1400 
     91 CB         -4.3100  -18.4920  -47.4747 C.3       16 UNK        -0.1800 
     92 C          -5.9886  -19.7428  -48.9811 C.2       16 UNK         0.5000 
     93 O          -6.1467  -18.7143  -49.6410 O.2       16 UNK        -0.5000 
     94 N          -6.8157  -20.7958  -49.0409 N.am      17 UNK        -0.5000 
     95 CA         -8.0516  -20.8553  -49.8164 C.3       17 UNK         0.1400 
     96 CB         -9.2354  -21.0562  -48.8563 C.3       17 UNK        -0.1800 
     97 C          -7.9916  -21.9881  -50.8479 C.2       17 UNK         0.5000 
     98 O          -8.3472  -21.7704  -52.0065 O.2       17 UNK        -0.5000 
     99 N          -7.5275  -23.1715  -50.4218 N.am      18 UNK        -0.5000 
    100 CA        -7.3921  -24.3549  -51.2753 C.3       18 UNK         0.1400 
    101 CB        -7.6230  -25.6153  -50.4239 C.3       18 UNK        -0.1800 
    102 C         -6.0460  -24.4086  -52.0292 C.2       18 UNK         0.5000 
    103 O         -5.8560  -25.3069  -52.8503 O.2       18 UNK        -0.5000 
    104 N         -5.1438  -23.4588  -51.7504 N.am      19 UNK        -0.5000 
    105 CA        -3.8553  -23.2883  -52.4146 C.3       19 UNK         0.1400 
    106 CB        -2.7241  -23.4962  -51.3941 C.3       19 UNK        -0.1800 
    107 C         -3.7823  -21.8740  -53.0043 C.2       19 UNK         0.5000 
    108 O         -4.2067  -20.9180  -52.3505 O.2       19 UNK        -0.5000 
    109 N         -3.2224  -21.7699  -54.2139 N.am      20 UNK        -0.5000 
    110 CA        -2.8889  -20.5077  -54.8727 C.3       20 UNK         0.1400 
    111 CB        -2.9173  -20.7248  -56.3942 C.3       20 UNK        -0.1800 
    112 C         -1.4994  -20.0212  -54.4233 C.2       20 UNK         0.5000 
    113 O         -0.6916  -20.8261  -53.9515 O.2       20 UNK        -0.5000 
    114 N         -1.2412  -18.7174  -54.5911 N.am      21 UNK        -0.5000 
    115 CA         0.0304  -18.0714  -54.2579 C.3       21 UNK         0.1400 
    116 CB        -0.1024  -16.5531  -54.4471 C.3       21 UNK        -0.1800 
    117 C          1.2102  -18.6268  -55.0769 C.2       21 UNK         0.5000 
    118 O          1.0615  -18.8623  -56.2786 O.2       21 UNK        -0.5000 
    119 N          2.3553  -18.8177  -54.4117 N.am      22 UNK        -0.5000 
    120 CA         3.5722  -19.3994  -55.0005 C.3       22 UNK         0.1400 
    121 C          4.3819  -18.4567  -55.9421 C.2       22 UNK         0.5000 
    122 N          4.0628  -17.1714  -56.0364 N.am      22 UNK        -0.7600 
    123 O          5.3082  -18.9053  -56.6123 O.2       22 UNK        -0.5000 
    124 C124        4.4616  -20.0724  -53.9225 C.3       23 UNK        -0.0398 
    125 S125        5.1975  -18.9151  -52.7123 S.3       23 UNK        -0.2404 
    126 C126        4.4549  -19.4591  -51.1415 C.3       23 UNK        -0.0205 
    127 H127       -2.8599  -16.0164  -46.0075 H         1 UNK         0.0600 
    128 H128       -4.4885  -15.4980  -46.4363 H         1 UNK         0.0600 
    129 H129       -3.5665  -14.5842  -45.2385 H         1 UNK         0.0600 
    130 H130       -1.0240  -14.5565  -46.6080 H         1 UNK         0.3000 
    131 H131       -1.2038  -13.5963  -49.3028 H         1 UNK         0.0600 
    132 H132        1.0964  -13.2825  -47.3046 H         1 UNK         0.0800 
    133 H133        1.1997  -13.0809  -49.0357 H         1 UNK         0.0800 
    134 H134        0.4746  -15.2231  -50.7188 H         1 UNK         0.0800 
    135 H135        2.1965  -15.0001  -50.4727 H         1 UNK         0.0800 
    136 H136        3.6911  -16.8957  -50.6811 H         1 UNK         0.1150 
    137 H137        2.0934  -20.8467  -51.1626 H         1 UNK         0.1150 
    138 H138       -0.5274  -17.5575  -50.3324 H         1 UNK         0.1150 
    139 H139       -1.3310  -19.8005  -51.3868 H         1 UNK         0.0800 
    140 H140       -0.3031  -21.1987  -51.1920 H         1 UNK         0.0800 
    141 H141        0.5764  -21.0001  -47.5572 H         1 UNK         0.0800 
    142 H142        0.7727  -21.7978  -49.0861 H         1 UNK         0.0800 
    143 H143       -1.2731  -23.2250  -48.5540 H         1 UNK         0.0600 
    144 H144        1.3385  -23.5524  -47.3544 H         1 UNK         0.3000 
    145 H145        0.9133  -26.9639  -46.5193 H         1 UNK         0.0600 
    146 H146        2.8750  -27.2345  -48.0170 H         1 UNK         0.0600 
    147 H147        1.4093  -27.0519  -48.9672 H         1 UNK         0.0600 
    148 H148        2.5208  -25.6973  -48.8064 H         1 UNK         0.0600 
    149 H149        3.1566  -25.1752  -46.4657 H         1 UNK         0.3000 
    150 H150        2.4745  -23.6798  -43.3101 H         1 UNK         0.0600 
    151 H151        3.4724  -25.8930  -42.7171 H         1 UNK         0.0600 
    152 H152        4.6895  -24.6277  -42.7480 H         1 UNK         0.0600 
    153 H153        4.5745  -25.7743  -44.0837 H         1 UNK         0.0600 
    154 H154        4.7307  -23.4583  -44.9926 H         1 UNK         0.3000 
    155 H155        5.1413  -21.4832  -45.9583 H         1 UNK         0.0600 
    156 H156        3.1692  -21.7411  -48.3053 H         1 UNK         0.0600 
    157 H157        4.4611  -22.8778  -47.9308 H         1 UNK         0.0600 
    158 H158        4.8517  -21.2386  -48.4261 H         1 UNK         0.0600 
    159 H159        2.6902  -19.8550  -46.4131 H         1 UNK         0.3000 
    160 H160        4.1496  -17.0309  -45.1294 H         1 UNK         0.0600 
    161 H161        3.9623  -17.2021  -48.1784 H         1 UNK         0.0600 
    162 H162        5.3690  -16.6664  -47.2702 H         1 UNK         0.0600 
    163 H163        3.8903  -15.7226  -47.2205 H         1 UNK         0.0600 
    164 H164        1.8914  -17.4128  -46.9163 H         1 UNK         0.3000 
    165 H165       -0.1586  -17.2662  -46.1135 H         1 UNK         0.0600 
    166 H166       -0.0431  -19.7576  -45.7641 H         1 UNK         0.0600 
    167 H167       -0.4059  -19.5246  -44.0624 H         1 UNK         0.0600 
    168 H168       -1.5950  -19.0891  -45.2884 H         1 UNK         0.0600 
    169 H169       -0.9532  -17.3354  -43.3084 H         1 UNK         0.3000 
    170 H170       -2.2508  -15.3026  -42.8231 H         1 UNK         0.0600 
    171 H171       -0.4556  -16.1047  -41.3537 H         1 UNK         0.0600 
    172 H172        0.5232  -14.6846  -41.6713 H         1 UNK         0.0600 
    173 H173       -0.9891  -14.5361  -40.7767 H         1 UNK         0.0600 
    174 H174       -2.5368  -13.1737  -43.2718 H         1 UNK         0.3000 
    175 H175       -1.7651  -10.6523  -42.5984 H         1 UNK         0.0600 
    176 H176        0.2920  -10.2506  -44.8238 H         1 UNK         0.0600 
    177 H177       -0.7357   -8.9825  -44.1590 H         1 UNK         0.0600 
    178 H178        0.4521   -9.7769  -43.1382 H         1 UNK         0.0600 
    179 H179       -1.9872  -11.0767  -45.5309 H         1 UNK         0.3000 
    180 H180       -4.9736  -12.1894  -45.6389 H         1 UNK         0.0600 
    181 H181       -6.4935  -10.3005  -46.2853 H         1 UNK         0.0600 
    182 H182       -5.5527   -9.2070  -45.2704 H         1 UNK         0.0600 
    183 H183       -6.4262  -10.5484  -44.5495 H         1 UNK         0.0600 
    184 H184       -3.8609  -11.7553  -47.4643 H         1 UNK         0.3000 
    185 H185       -3.3746   -9.8111  -49.4613 H         1 UNK         0.0600 
    186 H186       -1.0562   -8.9210  -49.8363 H         1 UNK         0.0600 
    187 H187       -2.0417   -7.8236  -48.8845 H         1 UNK         0.0600 
    188 H188       -0.8205   -8.8087  -48.0927 H         1 UNK         0.0600 
    189 H189       -2.4160  -11.8011  -49.6164 H         1 UNK         0.3000 
    190 H190        0.1868  -22.6481  -45.3323 H         1 UNK         0.3000 
    191 H191       -2.0792  -21.5643  -44.0480 H         1 UNK         0.0600 
    192 H192       -0.9049  -22.1161  -41.9721 H         1 UNK         0.0600 
    193 H193        0.2918  -21.5775  -43.1417 H         1 UNK         0.0600 
    194 H194        0.1157  -23.2907  -42.7840 H         1 UNK         0.0600 
    195 H195       -1.0491  -24.9903  -44.3947 H         1 UNK         0.3000 
    196 H196       -3.2244  -26.1900  -43.0228 H         1 UNK         0.0600 
    197 H197       -1.4857  -27.2728  -45.3048 H         1 UNK         0.0600 
    198 H198       -1.1184  -27.3806  -43.5846 H         1 UNK         0.0600 
    199 H199       -2.4988  -28.2455  -44.2444 H         1 UNK         0.0600 
    200 H200       -2.9484  -24.9748  -46.3177 H         1 UNK         0.3000 
    201 H201       -5.5636  -25.9689  -47.2074 H         1 UNK         0.0600 
    202 H202       -3.6230  -25.8753  -48.7641 H         1 UNK         0.0600 
    203 H203       -3.4782  -24.1396  -48.5081 H         1 UNK         0.0600 
    204 H204       -4.8879  -24.7923  -49.3105 H         1 UNK         0.0600 
    205 H205       -4.7781  -23.6249  -45.0725 H         1 UNK         0.3000 
    206 H206       -5.6504  -21.8176  -44.1885 H         1 UNK         0.0600 
    207 H207       -7.7239  -23.2369  -44.1663 H         1 UNK         0.0600 
    208 H208       -8.0987  -21.5251  -44.2573 H         1 UNK         0.0600 
    209 H209       -8.2228  -22.5231  -45.6996 H         1 UNK         0.0600 
    210 H210       -4.3488  -21.5707  -46.8650 H         1 UNK         0.3000 
    211 H211       -3.9837  -20.2835  -48.6045 H         1 UNK         0.0600 
    212 H212       -4.0167  -17.8298  -48.2901 H         1 UNK         0.0600 
    213 H213       -3.4406  -18.6083  -46.8285 H         1 UNK         0.0600 
    214 H214       -5.0892  -17.9865  -46.9042 H         1 UNK         0.0600 
    215 H215       -6.6103  -21.6022  -48.4606 H         1 UNK         0.3000 
    216 H216       -8.2123  -19.9230  -50.3616 H         1 UNK         0.0600 
    217 H217       -9.1336  -21.9728  -48.2734 H         1 UNK         0.0600 
    218 H218      -10.1776  -21.1145  -49.4026 H         1 UNK         0.0600 
    219 H219       -9.3152  -20.2251  -48.1552 H         1 UNK         0.0600 
    220 H220       -7.2560  -23.2834  -49.4487 H         1 UNK         0.3000 
    221 H221       -8.1725  -24.3366  -52.0390 H         1 UNK         0.0600 
    222 H222       -8.6297  -25.6219  -50.0059 H         1 UNK         0.0600 
    223 H223       -6.9233  -25.6880  -49.5933 H         1 UNK         0.0600 
    224 H224       -7.5179  -26.5210  -51.0225 H         1 UNK         0.0600 
    225 H225       -5.4106  -22.7121  -51.1248 H         1 UNK         0.3000 
    226 H226       -3.7355  -24.0133  -53.2224 H         1 UNK         0.0600 
    227 H227       -2.8103  -22.8072  -50.5530 H         1 UNK         0.0600 
    228 H228       -2.7306  -24.5126  -51.0012 H         1 UNK         0.0600 
    229 H229       -1.7481  -23.3327  -51.8529 H         1 UNK         0.0600 
    230 H230       -2.8538  -22.6016  -54.6519 H         1 UNK         0.3000 
    231 H231       -3.6304  -19.7495  -54.6114 H         1 UNK         0.0600 
    232 H232       -2.1786  -21.4627  -56.7101 H         1 UNK         0.0600 
    233 H233       -2.7023  -19.7979  -56.9274 H         1 UNK         0.0600 
    234 H234       -3.8977  -21.0683  -56.7251 H         1 UNK         0.0600 
    235 H235       -1.9415  -18.1303  -55.0197 H         1 UNK         0.3000 
    236 H236        0.2248  -18.2641  -53.2057 H         1 UNK         0.0600 
    237 H237       -0.8962  -16.1454  -53.8208 H         1 UNK         0.0600 
    238 H238        0.8210  -16.0433  -54.1691 H         1 UNK         0.0600 
    239 H239       -0.3229  -16.2944  -55.4835 H         1 UNK         0.0600 
    240 H240        2.4112  -18.5852  -53.4299 H         1 UNK         0.3000 
    241 H241        3.2380  -20.2091  -55.6526 H         1 UNK         0.0600 
    242 H242        4.5891  -16.5726  -56.6531 H         1 UNK         0.3800 
    243 H243        3.3056  -16.7916  -55.4925 H         1 UNK         0.3800 
    244 H244        5.2763  -20.6196  -54.3995 H         1 UNK         0.0800 
    245 H245        3.8790  -20.8290  -53.3955 H         1 UNK         0.0800 
    246 H246        4.4791  -20.5479  -51.0752 H         1 UNK         0.0800 
    247 H247        5.0741  -19.0951  -50.3202 H         1 UNK         0.0800 
@<TRIPOS>BOND
     1    1    2 1    
     2    1  127 1    
     3    1  128 1    
     4    1  129 1    
     5    2    3 2    
     6    2    4 am   BACKBONE|DICT|INTERRES
     7    4    5 1    
     8    4  130 1    
     9    5    6 1    
    10    5   65 1    
    11    5  131 1    
    12    6    7 1    
    13    6  132 1    
    14    6  133 1    
    15    7    8 1    
    16    8    9 1    
    17    8  134 1    
    18    8  135 1    
    19    9   10 ar   
    20    9   14 ar   
    21   10   11 ar   
    22   10  136 1    
    23   11   12 ar   
    24   11  126 1    
    25   12   13 ar   
    26   12  137 1    
    27   13   14 ar   
    28   13   15 1    
    29   14  138 1    
    30   15   16 1    
    31   15  139 1    
    32   15  140 1    
    33   16   17 1    
    34   17   18 1    
    35   17  141 1    
    36   17  142 1    
    37   18   19 1    
    38   18   67 1    
    39   18  143 1    
    40   19   20 am   BACKBONE|DICT|INTERRES
    41   19  144 1    
    42   20   21 2    
    43   20   22 1    
    44   22   23 1    
    45   22   24 1    
    46   22  145 1    
    47   23  146 1    
    48   23  147 1    
    49   23  148 1    
    50   24   25 am   BACKBONE|DICT|INTERRES
    51   24  149 1    
    52   25   26 2    
    53   25   27 1    
    54   27   28 1    
    55   27   29 1    
    56   27  150 1    
    57   28  151 1    
    58   28  152 1    
    59   28  153 1    
    60   29   30 am   BACKBONE|DICT|INTERRES
    61   29  154 1    
    62   30   31 2    
    63   30   32 1    
    64   32   33 1    
    65   32   34 1    
    66   32  155 1    
    67   33  156 1    
    68   33  157 1    
    69   33  158 1    
    70   34   35 am   BACKBONE|DICT|INTERRES
    71   34  159 1    
    72   35   36 2    
    73   35   37 1    
    74   37   38 1    
    75   37   39 1    
    76   37  160 1    
    77   38  161 1    
    78   38  162 1    
    79   38  163 1    
    80   39   40 am   BACKBONE|DICT|INTERRES
    81   39  164 1    
    82   40   41 2    
    83   40   42 1    
    84   42   43 1    
    85   42   44 1    
    86   42  165 1    
    87   43  166 1    
    88   43  167 1    
    89   43  168 1    
    90   44   45 am   BACKBONE|DICT|INTERRES
    91   44  169 1    
    92   45   46 2    
    93   45   47 1    
    94   47   48 1    
    95   47   49 1    
    96   47  170 1    
    97   48  171 1    
    98   48  172 1    
    99   48  173 1    
   100   49   50 am   BACKBONE|DICT|INTERRES
   101   49  174 1    
   102   50   51 2    
   103   50   52 1    
   104   52   53 1    
   105   52   54 1    
   106   52  175 1    
   107   53  176 1    
   108   53  177 1    
   109   53  178 1    
   110   54   55 am   BACKBONE|DICT|INTERRES
   111   54  179 1    
   112   55   56 2    
   113   55   57 1    
   114   57   58 1    
   115   57   59 1    
   116   57  180 1    
   117   58  181 1    
   118   58  182 1    
   119   58  183 1    
   120   59   60 am   BACKBONE|DICT|INTERRES
   121   59  184 1    
   122   60   61 2    
   123   60   62 1    
   124   62   63 1    
   125   62   64 1    
   126   62  185 1    
   127   63  186 1    
   128   63  187 1    
   129   63  188 1    
   130   64   65 am   BACKBONE|DICT|INTERRES
   131   64  189 1    
   132   65   66 2    
   133   67   68 2    
   134   67   69 am   BACKBONE|DICT|INTERRES
   135   69   70 1    
   136   69  190 1    
   137   70   71 1    
   138   70   72 1    
   139   70  191 1    
   140   71  192 1    
   141   71  193 1    
   142   71  194 1    
   143   72   73 2    
   144   72   74 am   BACKBONE|DICT|INTERRES
   145   74   75 1    
   146   74  195 1    
   147   75   76 1    
   148   75   77 1    
   149   75  196 1    
   150   76  197 1    
   151   76  198 1    
   152   76  199 1    
   153   77   78 2    
   154   77   79 am   BACKBONE|DICT|INTERRES
   155   79   80 1    
   156   79  200 1    
   157   80   81 1    
   158   80   82 1    
   159   80  201 1    
   160   81  202 1    
   161   81  203 1    
   162   81  204 1    
   163   82   83 2    
   164   82   84 am   BACKBONE|DICT|INTERRES
   165   84   85 1    
   166   84  205 1    
   167   85   86 1    
   168   85   87 1    
   169   85  206 1    
   170   86  207 1    
   171   86  208 1    
   172   86  209 1    
   173   87   88 2    
   174   87   89 am   BACKBONE|DICT|INTERRES
   175   89   90 1    
   176   89  210 1    
   177   90   91 1    
   178   90   92 1    
   179   90  211 1    
   180   91  212 1    
   181   91  213 1    
   182   91  214 1    
   183   92   93 2    
   184   92   94 am   BACKBONE|DICT|INTERRES
   185   94   95 1    
   186   94  215 1    
   187   95   96 1    
   188   95   97 1    
   189   95  216 1    
   190   96  217 1    
   191   96  218 1    
   192   96  219 1    
   193   97   98 2    
   194   97   99 am   BACKBONE|DICT|INTERRES
   195   99  100 1    
   196   99  220 1    
   197  100  101 1    
   198  100  102 1    
   199  100  221 1    
   200  101  222 1    
   201  101  223 1    
   202  101  224 1    
   203  102  103 2    
   204  102  104 am   BACKBONE|DICT|INTERRES
   205  104  105 1    
   206  104  225 1    
   207  105  106 1    
   208  105  107 1    
   209  105  226 1    
   210  106  227 1    
   211  106  228 1    
   212  106  229 1    
   213  107  108 2    
   214  107  109 am   BACKBONE|DICT|INTERRES
   215  109  110 1    
   216  109  230 1    
   217  110  111 1    
   218  110  112 1    
   219  110  231 1    
   220  111  232 1    
   221  111  233 1    
   222  111  234 1    
   223  112  113 2    
   224  112  114 am   BACKBONE|DICT|INTERRES
   225  114  115 1    
   226  114  235 1    
   227  115  116 1    
   228  115  117 1    
   229  115  236 1    
   230  116  237 1    
   231  116  238 1    
   232  116  239 1    
   233  117  118 2    
   234  117  119 am   BACKBONE|DICT|INTERRES
   235  119  120 1    
   236  119  240 1    
   237  120  121 1    
   238  120  124 1    
   239  120  241 1    
   240  121  122 am   BACKBONE|DICT|INTERRES
   241  121  123 2    
   242  122  242 1    
   243  122  243 1    
   244  124  125 1    
   245  124  244 1    
   246  124  245 1    
   247  125  126 1    
   248  126  246 1    
   249  126  247 1    
@<TRIPOS>SUBSTRUCTURE
     1 UNK         1 GROUP             0       ****    0 ROOT    
