@<TRIPOS>MOLECULE
3R540
247   249    1
SMALL
USER_CHARGES


@<TRIPOS>ATOM
      1 CA          4.6229  -16.9996  -46.4197 C.3       0 UNK        -0.1800 
      2 C           4.3144  -16.2378  -47.6992 C.2       0 UNK         0.5000 
      3 O           3.7605  -15.1392  -47.6409 O.2       0 UNK        -0.5000 
      4 N           4.6832  -16.8167  -48.8506 N.am      1 UNK        -0.5000 
      5 CA          4.3335  -16.3609  -50.2072 C.3       1 UNK         0.1400 
      6 C6          4.6269  -17.4314  -51.2924 C.3       23 UNK        -0.0398 
      7 S7          4.0340  -19.1113  -50.8785 S.3       23 UNK        -0.2404 
      8 C8          2.2886  -19.0486  -51.4081 C.3       23 UNK        -0.0205 
      9 C9          1.4444  -18.1226  -50.5419 C.ar      23 UNK        -0.0193 
     10 C10         0.6617  -17.1312  -51.1383 C.ar      23 UNK        -0.1150 
     11 C11        -0.1010  -16.2609  -50.3549 C.ar      23 UNK        -0.0193 
     12 C12        -0.0537  -16.3657  -48.9624 C.ar      23 UNK        -0.1150 
     13 C13         0.7189  -17.3571  -48.3517 C.ar      23 UNK        -0.0193 
     14 C14         1.4519  -18.2420  -49.1478 C.ar      23 UNK        -0.1150 
     15 C15         0.7917  -17.4586  -46.8337 C.3       23 UNK        -0.0205 
     16 S16        -0.8407  -17.5746  -46.0267 S.3       23 UNK        -0.2404 
     17 C17        -1.6444  -18.9452  -46.9204 C.3       23 UNK        -0.0398 
     18 CA         -0.8510  -20.2743  -46.9321 C.3       11 UNK         0.1400 
     19 N          -0.4244  -20.7121  -45.6022 N.am      11 UNK        -0.5000 
     20 C           0.4759  -21.6785  -45.3742 C.2       10 UNK         0.5000 
     21 O           1.0716  -22.2832  -46.2651 O.2       10 UNK        -0.5000 
     22 CA          0.7154  -22.0624  -43.9027 C.3       10 UNK         0.1400 
     23 CB          1.7211  -21.0989  -43.2545 C.3       10 UNK        -0.1800 
     24 N          -0.5215  -22.0698  -43.1199 N.am      10 UNK        -0.5000 
     25 C          -1.5491  -22.9077  -43.3241 C.2       9 UNK         0.5000 
     26 O          -1.5315  -23.8221  -44.1466 O.2       9 UNK        -0.5000 
     27 CA         -2.8346  -22.6334  -42.5189 C.3       9 UNK         0.1400 
     28 CB         -2.7968  -23.3703  -41.1722 C.3       9 UNK        -0.1800 
     29 N          -3.0668  -21.2038  -42.2873 N.am      9 UNK        -0.5000 
     30 C          -3.2517  -20.2993  -43.2582 C.2       8 UNK         0.5000 
     31 O          -3.2957  -20.5874  -44.4569 O.2       8 UNK        -0.5000 
     32 CA         -3.3065  -18.8304  -42.8089 C.3       8 UNK         0.1400 
     33 CB         -1.9067  -18.3443  -42.3950 C.3       8 UNK        -0.1800 
     34 N          -3.7995  -17.9567  -43.8703 N.am      8 UNK        -0.5000 
     35 C          -5.0905  -17.7323  -44.1427 C.2       7 UNK         0.5000 
     36 O          -6.0108  -18.2887  -43.5406 O.2       7 UNK        -0.5000 
     37 CA         -5.4170  -16.7140  -45.2634 C.3       7 UNK         0.1400 
     38 CB         -6.6647  -15.8696  -44.9337 C.3       7 UNK        -0.1800 
     39 N          -4.3086  -15.8347  -45.6657 N.am      7 UNK        -0.5000 
     40 C          -3.6184  -14.9882  -44.8886 C.2       6 UNK         0.5000 
     41 O          -3.7964  -14.8512  -43.6756 O.2       6 UNK        -0.5000 
     42 CA         -2.5355  -14.1526  -45.5781 C.3       6 UNK         0.1400 
     43 CB         -3.0342  -12.7245  -45.8590 C.3       6 UNK        -0.1800 
     44 N          -1.3805  -14.1056  -44.6913 N.am      6 UNK        -0.5000 
     45 C          -0.1079  -14.0169  -45.0823 C.2       5 UNK         0.5000 
     46 O           0.2449  -13.8884  -46.2586 O.2       5 UNK        -0.5000 
     47 CA          0.9464  -14.0893  -43.9669 C.3       5 UNK         0.1400 
     48 CB          1.0512  -15.5023  -43.3633 C.3       5 UNK        -0.1800 
     49 N           2.2313  -13.6997  -44.5281 N.am      5 UNK        -0.5000 
     50 C           3.2284  -13.0853  -43.8839 C.2       4 UNK         0.5000 
     51 O           3.2182  -12.8444  -42.6761 O.2       4 UNK        -0.5000 
     52 CA          4.4382  -12.6535  -44.7360 C.3       4 UNK         0.1400 
     53 CB          5.6079  -13.6316  -44.5525 C.3       4 UNK        -0.1800 
     54 N           4.1071  -12.5738  -46.1594 N.am      4 UNK        -0.5000 
     55 C           3.4752  -11.5456  -46.7423 C.2       3 UNK         0.5000 
     56 O           3.1727  -10.5058  -46.1544 O.2       3 UNK        -0.5000 
     57 CA          3.1198  -11.7386  -48.2288 C.3       3 UNK         0.1400 
     58 CB          2.7178  -10.4350  -48.9506 C.3       3 UNK        -0.1800 
     59 N           4.1733  -12.4667  -48.9416 N.am      3 UNK        -0.5000 
     60 C           5.4045  -12.0465  -49.2732 C.2       2 UNK         0.5000 
     61 O           5.7991  -10.8914  -49.1105 O.2       2 UNK        -0.5000 
     62 CA          6.3787  -13.0990  -49.8588 C.3       2 UNK         0.1400 
     63 CB          7.7323  -13.0660  -49.1282 C.3       2 UNK        -0.1800 
     64 N           5.8590  -14.4678  -49.7942 N.am      2 UNK        -0.5000 
     65 C           4.9370  -14.9962  -50.6092 C.2       1 UNK         0.5000 
     66 O           4.5237  -14.4256  -51.6187 O.2       1 UNK        -0.5000 
     67 C          -1.6635  -21.3723  -47.6373 C.2       11 UNK         0.5000 
     68 O          -1.4304  -21.6312  -48.8147 O.2       11 UNK        -0.5000 
     69 N          -2.5712  -22.0246  -46.8973 N.am      12 UNK        -0.5000 
     70 CA         -3.3614  -23.1596  -47.3732 C.3       12 UNK         0.1400 
     71 CB         -4.4224  -23.5254  -46.3259 C.3       12 UNK        -0.1800 
     72 C          -2.4944  -24.3778  -47.7420 C.2       12 UNK         0.5000 
     73 O          -2.7264  -24.9992  -48.7789 O.2       12 UNK        -0.5000 
     74 N          -1.4782  -24.6699  -46.9181 N.am      13 UNK        -0.5000 
     75 CA         -0.4741  -25.7022  -47.1764 C.3       13 UNK         0.1400 
     76 CB          0.4197  -25.8810  -45.9403 C.3       13 UNK        -0.1800 
     77 C           0.3678  -25.4005  -48.4296 C.2       13 UNK         0.5000 
     78 O           0.5342  -26.2827  -49.2727 O.2       13 UNK        -0.5000 
     79 N           0.8367  -24.1504  -48.5596 N.am      14 UNK        -0.5000 
     80 CA          1.5789  -23.6586  -49.7242 C.3       14 UNK         0.1400 
     81 CB          2.1366  -22.2610  -49.4218 C.3       14 UNK        -0.1800 
     82 C           0.7413  -23.6520  -51.0200 C.2       14 UNK         0.5000 
     83 O           1.2827  -23.9090  -52.0951 O.2       14 UNK        -0.5000 
     84 N          -0.5705  -23.4153  -50.8875 N.am      15 UNK        -0.5000 
     85 CA         -1.5739  -23.4972  -51.9507 C.3       15 UNK         0.1400 
     86 CB         -2.7681  -22.6013  -51.5780 C.3       15 UNK        -0.1800 
     87 C          -2.0316  -24.9408  -52.2636 C.2       15 UNK         0.5000 
     88 O          -2.9789  -25.1111  -53.0314 O.2       15 UNK        -0.5000 
     89 N          -1.3671  -25.9505  -51.6804 N.am      16 UNK        -0.5000 
     90 CA         -1.5723  -27.3881  -51.8823 C.3       16 UNK         0.1400 
     91 CB         -1.2504  -27.7945  -53.3362 C.3       16 UNK        -0.1800 
     92 C          -2.9541  -27.8747  -51.4015 C.2       16 UNK         0.5000 
     93 O          -3.6232  -28.6385  -52.0993 O.2       16 UNK        -0.5000 
     94 N          -3.3412  -27.4204  -50.2019 N.am      17 UNK        -0.5000 
     95 CA         -4.5665  -27.7479  -49.4644 C.3       17 UNK         0.1400 
     96 CB         -4.7231  -29.2679  -49.2453 C.3       17 UNK        -0.1800 
     97 C          -5.8400  -27.0838  -50.0246 C.2       17 UNK         0.5000 
     98 O          -6.9439  -27.4438  -49.6106 O.2       17 UNK        -0.5000 
     99 N          -5.6763  -26.0869  -50.9043 N.am      18 UNK        -0.5000 
    100 CA        -6.7160  -25.1138  -51.2386 C.3       18 UNK         0.1400 
    101 CB        -6.3320  -24.4018  -52.5437 C.3       18 UNK        -0.1800 
    102 C         -6.8713  -24.0984  -50.0899 C.2       18 UNK         0.5000 
    103 O         -5.9698  -23.9689  -49.2597 O.2       18 UNK        -0.5000 
    104 N         -7.9880  -23.3621  -50.0664 N.am      19 UNK        -0.5000 
    105 CA        -8.3416  -22.3858  -49.0262 C.3       19 UNK         0.1400 
    106 CB        -9.8623  -22.1499  -49.0766 C.3       19 UNK        -0.1800 
    107 C         -7.5344  -21.0655  -49.0971 C.2       19 UNK         0.5000 
    108 O         -8.1173  -19.9833  -49.0037 O.2       19 UNK        -0.5000 
    109 N         -6.2102  -21.1791  -49.2737 N.am      20 UNK        -0.5000 
    110 CA        -5.1774  -20.1430  -49.4128 C.3       20 UNK         0.1400 
    111 CB        -5.0834  -19.2766  -48.1438 C.3       20 UNK        -0.1800 
    112 C         -5.3178  -19.2676  -50.6736 C.2       20 UNK         0.5000 
    113 O         -4.3557  -19.1398  -51.4281 O.2       20 UNK        -0.5000 
    114 N         -6.5105  -18.6906  -50.8702 N.am      21 UNK        -0.5000 
    115 CA        -6.9459  -17.8247  -51.9725 C.3       21 UNK         0.1400 
    116 CB        -6.8554  -18.5662  -53.3227 C.3       21 UNK        -0.1800 
    117 C         -6.2666  -16.4376  -52.0209 C.2       21 UNK         0.5000 
    118 O         -6.4795  -15.6999  -52.9849 O.2       21 UNK        -0.5000 
    119 N         -5.4970  -16.0816  -50.9869 N.am      22 UNK        -0.5000 
    120 CA        -4.7647  -14.8168  -50.8563 C.3       22 UNK         0.1400 
    121 C         -4.2825  -14.5850  -49.3984 C.2       22 UNK         0.5000 
    122 N         -3.8497  -13.3722  -49.0818 N.am      22 UNK        -0.7600 
    123 O         -4.2830  -15.4833  -48.5564 O.2       22 UNK        -0.5000 
    124 C124       -3.6149  -14.6621  -51.8951 C.3       23 UNK        -0.0398 
    125 S125       -2.3950  -16.0192  -51.8469 S.3       23 UNK        -0.2404 
    126 C126       -0.9881  -15.2198  -51.0146 C.3       23 UNK        -0.0205 
    127 H127        4.5980  -18.0767  -46.5870 H         1 UNK         0.0600 
    128 H128        3.8886  -16.7618  -45.6496 H         1 UNK         0.0600 
    129 H129        5.6116  -16.7307  -46.0491 H         1 UNK         0.0600 
    130 H130        5.1442  -17.7151  -48.8173 H         1 UNK         0.3000 
    131 H131        3.2576  -16.1872  -50.1966 H         1 UNK         0.0600 
    132 H132        4.1910  -17.1350  -52.2482 H         1 UNK         0.0800 
    133 H133        5.7025  -17.5044  -51.4628 H         1 UNK         0.0800 
    134 H134        2.2486  -18.7482  -52.4563 H         1 UNK         0.0800 
    135 H135        1.8608  -20.0498  -51.3638 H         1 UNK         0.0800 
    136 H136        0.6331  -17.0396  -52.2150 H         1 UNK         0.1150 
    137 H137       -0.6260  -15.6836  -48.3489 H         1 UNK         0.1150 
    138 H138        2.0585  -19.0067  -48.6836 H         1 UNK         0.1150 
    139 H139        1.3981  -18.3119  -46.5268 H         1 UNK         0.0800 
    140 H140        1.3039  -16.5713  -46.4611 H         1 UNK         0.0800 
    141 H141       -1.8346  -18.6141  -47.9431 H         1 UNK         0.0800 
    142 H142       -2.6246  -19.0862  -46.4653 H         1 UNK         0.0800 
    143 H143        0.0503  -20.1240  -47.5276 H         1 UNK         0.0600 
    144 H144       -0.9068  -20.2955  -44.8210 H         1 UNK         0.3000 
    145 H145        1.1379  -23.0691  -43.8824 H         1 UNK         0.0600 
    146 H146        2.6603  -21.0851  -43.8092 H         1 UNK         0.0600 
    147 H147        1.3419  -20.0764  -43.2262 H         1 UNK         0.0600 
    148 H148        1.9531  -21.3998  -42.2327 H         1 UNK         0.0600 
    149 H149       -0.6181  -21.3559  -42.4138 H         1 UNK         0.3000 
    150 H150       -3.6767  -23.0194  -43.0965 H         1 UNK         0.0600 
    151 H151       -3.7339  -23.2474  -40.6289 H         1 UNK         0.0600 
    152 H152       -1.9886  -23.0078  -40.5358 H         1 UNK         0.0600 
    153 H153       -2.6453  -24.4407  -41.3179 H         1 UNK         0.0600 
    154 H154       -3.0399  -20.8946  -41.3262 H         1 UNK         0.3000 
    155 H155       -3.9713  -18.7559  -41.9457 H         1 UNK         0.0600 
    156 H156       -1.5305  -18.9030  -41.5375 H         1 UNK         0.0600 
    157 H157       -1.9260  -17.2927  -42.1075 H         1 UNK         0.0600 
    158 H158       -1.1810  -18.4556  -43.2008 H         1 UNK         0.0600 
    159 H159       -3.1036  -17.4896  -44.4321 H         1 UNK         0.3000 
    160 H160       -5.6543  -17.3099  -46.1430 H         1 UNK         0.0600 
    161 H161       -7.5403  -16.5014  -44.7803 H         1 UNK         0.0600 
    162 H162       -6.9020  -15.1843  -45.7476 H         1 UNK         0.0600 
    163 H163       -6.5240  -15.2792  -44.0278 H         1 UNK         0.0600 
    164 H164       -4.1124  -15.8358  -46.6648 H         1 UNK         0.3000 
    165 H165       -2.2634  -14.6393  -46.5179 H         1 UNK         0.0600 
    166 H166       -2.3152  -12.1666  -46.4594 H         1 UNK         0.0600 
    167 H167       -3.9840  -12.7328  -46.3939 H         1 UNK         0.0600 
    168 H168       -3.1945  -12.1709  -44.9329 H         1 UNK         0.0600 
    169 H169       -1.6050  -14.2407  -43.7136 H         1 UNK         0.3000 
    170 H170        0.6575  -13.3797  -43.1887 H         1 UNK         0.0600 
    171 H171        1.7657  -15.5252  -42.5404 H         1 UNK         0.0600 
    172 H172        0.0922  -15.8377  -42.9674 H         1 UNK         0.0600 
    173 H173        1.3751  -16.2344  -44.1026 H         1 UNK         0.0600 
    174 H174        2.2887  -13.8107  -45.5333 H         1 UNK         0.3000 
    175 H175        4.7581  -11.6688  -44.3889 H         1 UNK         0.0600 
    176 H176        5.3340  -14.6432  -44.8497 H         1 UNK         0.0600 
    177 H177        6.4732  -13.3292  -45.1427 H         1 UNK         0.0600 
    178 H178        5.9228  -13.6709  -43.5090 H         1 UNK         0.0600 
    179 H179        4.2588  -13.4124  -46.7100 H         1 UNK         0.3000 
    180 H180        2.2477  -12.3947  -48.2411 H         1 UNK         0.0600 
    181 H181        2.5023  -10.6172  -50.0034 H         1 UNK         0.0600 
    182 H182        3.4978   -9.6759  -48.8919 H         1 UNK         0.0600 
    183 H183        1.8186  -10.0085  -48.5047 H         1 UNK         0.0600 
    184 H184        3.9849  -13.4537  -49.0621 H         1 UNK         0.3000 
    185 H185        6.5484  -12.8359  -50.9048 H         1 UNK         0.0600 
    186 H186        7.6202  -13.2881  -48.0661 H         1 UNK         0.0600 
    187 H187        8.4275  -13.7909  -49.5520 H         1 UNK         0.0600 
    188 H188        8.2019  -12.0851  -49.2109 H         1 UNK         0.0600 
    189 H189        6.1249  -15.0087  -48.9840 H         1 UNK         0.3000 
    190 H190       -2.7365  -21.7140  -45.9441 H         1 UNK         0.3000 
    191 H191       -3.8732  -22.8372  -48.2798 H         1 UNK         0.0600 
    192 H192       -3.9705  -23.8458  -45.3878 H         1 UNK         0.0600 
    193 H193       -5.0532  -24.3413  -46.6808 H         1 UNK         0.0600 
    194 H194       -5.0746  -22.6777  -46.1144 H         1 UNK         0.0600 
    195 H195       -1.3907  -24.1565  -46.0457 H         1 UNK         0.3000 
    196 H196       -1.0018  -26.6424  -47.3499 H         1 UNK         0.0600 
    197 H197        1.1651  -26.6597  -46.1066 H         1 UNK         0.0600 
    198 H198       -0.1676  -26.1733  -45.0697 H         1 UNK         0.0600 
    199 H199        0.9526  -24.9637  -45.6900 H         1 UNK         0.0600 
    200 H200        0.6891  -23.4876  -47.8043 H         1 UNK         0.3000 
    201 H201        2.4244  -24.3311  -49.8829 H         1 UNK         0.0600 
    202 H202        2.7465  -22.2640  -48.5184 H         1 UNK         0.0600 
    203 H203        1.3402  -21.5286  -49.2860 H         1 UNK         0.0600 
    204 H204        2.7729  -21.9169  -50.2370 H         1 UNK         0.0600 
    205 H205       -0.9155  -23.1288  -49.9762 H         1 UNK         0.3000 
    206 H206       -1.1340  -23.0991  -52.8670 H         1 UNK         0.0600 
    207 H207       -3.4733  -22.5233  -52.4053 H         1 UNK         0.0600 
    208 H208       -3.3091  -22.9902  -50.7148 H         1 UNK         0.0600 
    209 H209       -2.4446  -21.5867  -51.3442 H         1 UNK         0.0600 
    210 H210       -0.6368  -25.7138  -51.0199 H         1 UNK         0.3000 
    211 H211       -0.8431  -27.8854  -51.2413 H         1 UNK         0.0600 
    212 H212       -1.9702  -27.3825  -54.0441 H         1 UNK         0.0600 
    213 H213       -1.2665  -28.8790  -53.4501 H         1 UNK         0.0600 
    214 H214       -0.2577  -27.4533  -53.6298 H         1 UNK         0.0600 
    215 H215       -2.7719  -26.7048  -49.7573 H         1 UNK         0.3000 
    216 H216       -4.4267  -27.3011  -48.4790 H         1 UNK         0.0600 
    217 H217       -5.5189  -29.4779  -48.5298 H         1 UNK         0.0600 
    218 H218       -3.8081  -29.7066  -48.8474 H         1 UNK         0.0600 
    219 H219       -4.9748  -29.7898  -50.1685 H         1 UNK         0.0600 
    220 H220       -4.7321  -25.8419  -51.1668 H         1 UNK         0.3000 
    221 H221       -7.6656  -25.6330  -51.3836 H         1 UNK         0.0600 
    222 H222       -5.4138  -23.8268  -52.4308 H         1 UNK         0.0600 
    223 H223       -6.1799  -25.1161  -53.3532 H         1 UNK         0.0600 
    224 H224       -7.1140  -23.7114  -52.8617 H         1 UNK         0.0600 
    225 H225       -8.6675  -23.4873  -50.8029 H         1 UNK         0.3000 
    226 H226       -8.1143  -22.8310  -48.0553 H         1 UNK         0.0600 
    227 H227      -10.4110  -23.0853  -48.9652 H         1 UNK         0.0600 
    228 H228      -10.1861  -21.4913  -48.2696 H         1 UNK         0.0600 
    229 H229      -10.1664  -21.6915  -50.0184 H         1 UNK         0.0600 
    230 H230       -5.8695  -22.1360  -49.3318 H         1 UNK         0.3000 
    231 H231       -4.2315  -20.6779  -49.5112 H         1 UNK         0.0600 
    232 H232       -6.0157  -18.7487  -47.9459 H         1 UNK         0.0600 
    233 H233       -4.8500  -19.8837  -47.2687 H         1 UNK         0.0600 
    234 H234       -4.3021  -18.5224  -48.2429 H         1 UNK         0.0600 
    235 H235       -7.2264  -18.9085  -50.1792 H         1 UNK         0.3000 
    236 H236       -8.0016  -17.6260  -51.7836 H         1 UNK         0.0600 
    237 H237       -5.8213  -18.7331  -53.6252 H         1 UNK         0.0600 
    238 H238       -7.3529  -19.5349  -53.2754 H         1 UNK         0.0600 
    239 H239       -7.3371  -17.9946  -54.1168 H         1 UNK         0.0600 
    240 H240       -5.3689  -16.7214  -50.2152 H         1 UNK         0.3000 
    241 H241       -5.4921  -14.0254  -51.0466 H         1 UNK         0.0600 
    242 H242       -3.5250  -13.1943  -48.1475 H         1 UNK         0.3800 
    243 H243       -3.8587  -12.6171  -49.7498 H         1 UNK         0.3800 
    244 H244       -4.0322  -14.6359  -52.9018 H         1 UNK         0.0800 
    245 H245       -3.1077  -13.7034  -51.7782 H         1 UNK         0.0800 
    246 H246       -1.3498  -14.5095  -50.2698 H         1 UNK         0.0800 
    247 H247       -0.4114  -14.6453  -51.7408 H         1 UNK         0.0800 
@<TRIPOS>BOND
     1    1    2 1    
     2    1  127 1    
     3    1  128 1    
     4    1  129 1    
     5    2    3 2    
     6    2    4 am   BACKBONE|DICT|INTERRES
     7    4    5 1    
     8    4  130 1    
     9    5    6 1    
    10    5   65 1    
    11    5  131 1    
    12    6    7 1    
    13    6  132 1    
    14    6  133 1    
    15    7    8 1    
    16    8    9 1    
    17    8  134 1    
    18    8  135 1    
    19    9   10 ar   
    20    9   14 ar   
    21   10   11 ar   
    22   10  136 1    
    23   11   12 ar   
    24   11  126 1    
    25   12   13 ar   
    26   12  137 1    
    27   13   14 ar   
    28   13   15 1    
    29   14  138 1    
    30   15   16 1    
    31   15  139 1    
    32   15  140 1    
    33   16   17 1    
    34   17   18 1    
    35   17  141 1    
    36   17  142 1    
    37   18   19 1    
    38   18   67 1    
    39   18  143 1    
    40   19   20 am   BACKBONE|DICT|INTERRES
    41   19  144 1    
    42   20   21 2    
    43   20   22 1    
    44   22   23 1    
    45   22   24 1    
    46   22  145 1    
    47   23  146 1    
    48   23  147 1    
    49   23  148 1    
    50   24   25 am   BACKBONE|DICT|INTERRES
    51   24  149 1    
    52   25   26 2    
    53   25   27 1    
    54   27   28 1    
    55   27   29 1    
    56   27  150 1    
    57   28  151 1    
    58   28  152 1    
    59   28  153 1    
    60   29   30 am   BACKBONE|DICT|INTERRES
    61   29  154 1    
    62   30   31 2    
    63   30   32 1    
    64   32   33 1    
    65   32   34 1    
    66   32  155 1    
    67   33  156 1    
    68   33  157 1    
    69   33  158 1    
    70   34   35 am   BACKBONE|DICT|INTERRES
    71   34  159 1    
    72   35   36 2    
    73   35   37 1    
    74   37   38 1    
    75   37   39 1    
    76   37  160 1    
    77   38  161 1    
    78   38  162 1    
    79   38  163 1    
    80   39   40 am   BACKBONE|DICT|INTERRES
    81   39  164 1    
    82   40   41 2    
    83   40   42 1    
    84   42   43 1    
    85   42   44 1    
    86   42  165 1    
    87   43  166 1    
    88   43  167 1    
    89   43  168 1    
    90   44   45 am   BACKBONE|DICT|INTERRES
    91   44  169 1    
    92   45   46 2    
    93   45   47 1    
    94   47   48 1    
    95   47   49 1    
    96   47  170 1    
    97   48  171 1    
    98   48  172 1    
    99   48  173 1    
   100   49   50 am   BACKBONE|DICT|INTERRES
   101   49  174 1    
   102   50   51 2    
   103   50   52 1    
   104   52   53 1    
   105   52   54 1    
   106   52  175 1    
   107   53  176 1    
   108   53  177 1    
   109   53  178 1    
   110   54   55 am   BACKBONE|DICT|INTERRES
   111   54  179 1    
   112   55   56 2    
   113   55   57 1    
   114   57   58 1    
   115   57   59 1    
   116   57  180 1    
   117   58  181 1    
   118   58  182 1    
   119   58  183 1    
   120   59   60 am   BACKBONE|DICT|INTERRES
   121   59  184 1    
   122   60   61 2    
   123   60   62 1    
   124   62   63 1    
   125   62   64 1    
   126   62  185 1    
   127   63  186 1    
   128   63  187 1    
   129   63  188 1    
   130   64   65 am   BACKBONE|DICT|INTERRES
   131   64  189 1    
   132   65   66 2    
   133   67   68 2    
   134   67   69 am   BACKBONE|DICT|INTERRES
   135   69   70 1    
   136   69  190 1    
   137   70   71 1    
   138   70   72 1    
   139   70  191 1    
   140   71  192 1    
   141   71  193 1    
   142   71  194 1    
   143   72   73 2    
   144   72   74 am   BACKBONE|DICT|INTERRES
   145   74   75 1    
   146   74  195 1    
   147   75   76 1    
   148   75   77 1    
   149   75  196 1    
   150   76  197 1    
   151   76  198 1    
   152   76  199 1    
   153   77   78 2    
   154   77   79 am   BACKBONE|DICT|INTERRES
   155   79   80 1    
   156   79  200 1    
   157   80   81 1    
   158   80   82 1    
   159   80  201 1    
   160   81  202 1    
   161   81  203 1    
   162   81  204 1    
   163   82   83 2    
   164   82   84 am   BACKBONE|DICT|INTERRES
   165   84   85 1    
   166   84  205 1    
   167   85   86 1    
   168   85   87 1    
   169   85  206 1    
   170   86  207 1    
   171   86  208 1    
   172   86  209 1    
   173   87   88 2    
   174   87   89 am   BACKBONE|DICT|INTERRES
   175   89   90 1    
   176   89  210 1    
   177   90   91 1    
   178   90   92 1    
   179   90  211 1    
   180   91  212 1    
   181   91  213 1    
   182   91  214 1    
   183   92   93 2    
   184   92   94 am   BACKBONE|DICT|INTERRES
   185   94   95 1    
   186   94  215 1    
   187   95   96 1    
   188   95   97 1    
   189   95  216 1    
   190   96  217 1    
   191   96  218 1    
   192   96  219 1    
   193   97   98 2    
   194   97   99 am   BACKBONE|DICT|INTERRES
   195   99  100 1    
   196   99  220 1    
   197  100  101 1    
   198  100  102 1    
   199  100  221 1    
   200  101  222 1    
   201  101  223 1    
   202  101  224 1    
   203  102  103 2    
   204  102  104 am   BACKBONE|DICT|INTERRES
   205  104  105 1    
   206  104  225 1    
   207  105  106 1    
   208  105  107 1    
   209  105  226 1    
   210  106  227 1    
   211  106  228 1    
   212  106  229 1    
   213  107  108 2    
   214  107  109 am   BACKBONE|DICT|INTERRES
   215  109  110 1    
   216  109  230 1    
   217  110  111 1    
   218  110  112 1    
   219  110  231 1    
   220  111  232 1    
   221  111  233 1    
   222  111  234 1    
   223  112  113 2    
   224  112  114 am   BACKBONE|DICT|INTERRES
   225  114  115 1    
   226  114  235 1    
   227  115  116 1    
   228  115  117 1    
   229  115  236 1    
   230  116  237 1    
   231  116  238 1    
   232  116  239 1    
   233  117  118 2    
   234  117  119 am   BACKBONE|DICT|INTERRES
   235  119  120 1    
   236  119  240 1    
   237  120  121 1    
   238  120  124 1    
   239  120  241 1    
   240  121  122 am   BACKBONE|DICT|INTERRES
   241  121  123 2    
   242  122  242 1    
   243  122  243 1    
   244  124  125 1    
   245  124  244 1    
   246  124  245 1    
   247  125  126 1    
   248  126  246 1    
   249  126  247 1    
@<TRIPOS>SUBSTRUCTURE
     1 UNK         1 GROUP             0       ****    0 ROOT    
