@<TRIPOS>MOLECULE
3R540
247   249    1
SMALL
USER_CHARGES


@<TRIPOS>ATOM
      1 CA          0.5587  -11.1440  -51.9343 C.3       0 UNK        -0.1800 
      2 C           0.9459  -11.7308  -50.5847 C.2       0 UNK         0.5000 
      3 O           1.0800  -10.9905  -49.6100 O.2       0 UNK        -0.5000 
      4 N           1.1139  -13.0594  -50.5219 N.am      1 UNK        -0.5000 
      5 CA          1.5152  -13.8118  -49.3238 C.3       1 UNK         0.1400 
      6 C6          1.7367  -15.3123  -49.6201 C.3       23 UNK        -0.0398 
      7 S7          3.0560  -15.6348  -50.8404 S.3       23 UNK        -0.2404 
      8 C8          2.1452  -16.4930  -52.1766 C.3       23 UNK        -0.0205 
      9 C9          1.6305  -17.9041  -51.8683 C.ar      23 UNK        -0.0193 
     10 C10         1.0660  -18.6415  -52.9141 C.ar      23 UNK        -0.1150 
     11 C11         0.5369  -19.9169  -52.6940 C.ar      23 UNK        -0.0193 
     12 C12         0.5589  -20.4593  -51.4075 C.ar      23 UNK        -0.1150 
     13 C13         1.1102  -19.7341  -50.3504 C.ar      23 UNK        -0.0193 
     14 C14         1.6654  -18.4756  -50.5893 C.ar      23 UNK        -0.1150 
     15 C15         1.0398  -20.2687  -48.9337 C.3       23 UNK        -0.0205 
     16 S16         2.4235  -21.3789  -48.5338 S.3       23 UNK        -0.2404 
     17 C17         2.1831  -21.5240  -46.7248 C.3       23 UNK        -0.0398 
     18 CA          1.4210  -22.7659  -46.1793 C.3       11 UNK         0.1400 
     19 N           0.9153  -22.4999  -44.8307 N.am      11 UNK        -0.5000 
     20 C           0.3529  -23.3976  -44.0110 C.2       10 UNK         0.5000 
     21 O           0.2519  -24.5978  -44.2673 O.2       10 UNK        -0.5000 
     22 CA         -0.2503  -22.8377  -42.7098 C.3       10 UNK         0.1400 
     23 CB          0.8404  -22.5792  -41.6595 C.3       10 UNK        -0.1800 
     24 N          -1.0113  -21.6075  -42.9408 N.am      10 UNK        -0.5000 
     25 C          -2.1450  -21.5484  -43.6545 C.2       9 UNK         0.5000 
     26 O          -2.6831  -22.5308  -44.1638 O.2       9 UNK        -0.5000 
     27 CA         -2.7642  -20.1563  -43.8674 C.3       9 UNK         0.1400 
     28 CB         -3.5713  -19.7315  -42.6319 C.3       9 UNK        -0.1800 
     29 N          -1.7702  -19.1304  -44.1839 N.am      9 UNK        -0.5000 
     30 C          -0.9975  -19.1289  -45.2796 C.2       8 UNK         0.5000 
     31 O          -1.0535  -19.9833  -46.1603 O.2       8 UNK        -0.5000 
     32 CA          0.0561  -18.0174  -45.3923 C.3       8 UNK         0.1400 
     33 CB         -0.5775  -16.7141  -45.8915 C.3       8 UNK        -0.1800 
     34 N           0.7559  -17.7718  -44.1351 N.am      8 UNK        -0.5000 
     35 C           1.4923  -18.6722  -43.4696 C.2       7 UNK         0.5000 
     36 O           1.6657  -19.8332  -43.8426 O.2       7 UNK        -0.5000 
     37 CA          2.1052  -18.1978  -42.1435 C.3       7 UNK         0.1400 
     38 CB          3.3870  -17.3884  -42.3923 C.3       7 UNK        -0.1800 
     39 N           1.1559  -17.3884  -41.3813 N.am      7 UNK        -0.5000 
     40 C           0.1122  -17.8896  -40.7077 C.2       6 UNK         0.5000 
     41 O          -0.1317  -19.0938  -40.6181 O.2       6 UNK        -0.5000 
     42 CA         -0.8327  -16.8672  -40.0485 C.3       6 UNK         0.1400 
     43 CB         -0.2697  -16.3990  -38.6981 C.3       6 UNK        -0.1800 
     44 N          -1.0999  -15.7007  -40.8944 N.am      6 UNK        -0.5000 
     45 C          -1.7688  -15.7532  -42.0541 C.2       5 UNK         0.5000 
     46 O          -2.2066  -16.7938  -42.5425 O.2       5 UNK        -0.5000 
     47 CA         -1.9658  -14.4290  -42.8137 C.3       5 UNK         0.1400 
     48 CB         -3.1516  -13.6486  -42.2268 C.3       5 UNK        -0.1800 
     49 N          -0.7975  -13.5458  -42.8820 N.am      5 UNK        -0.5000 
     50 C           0.4520  -13.8837  -43.2311 C.2       4 UNK         0.5000 
     51 O           0.8436  -15.0450  -43.3531 O.2       4 UNK        -0.5000 
     52 CA          1.3954  -12.7098  -43.5489 C.3       4 UNK         0.1400 
     53 CB          2.8059  -13.1770  -43.9519 C.3       4 UNK        -0.1800 
     54 N           0.8219  -11.9369  -44.6498 N.am      4 UNK        -0.5000 
     55 C           0.1175  -10.8034  -44.5228 C.2       3 UNK         0.5000 
     56 O          -0.0503  -10.2252  -43.4488 O.2       3 UNK        -0.5000 
     57 CA         -0.5517  -10.2417  -45.7963 C.3       3 UNK         0.1400 
     58 CB          0.3714   -9.2270  -46.4868 C.3       3 UNK        -0.1800 
     59 N          -0.9199  -11.2821  -46.7585 N.am      3 UNK        -0.5000 
     60 C          -1.8235  -12.2482  -46.5358 C.2       2 UNK         0.5000 
     61 O          -2.5574  -12.2735  -45.5480 O.2       2 UNK        -0.5000 
     62 CA         -1.9067  -13.4018  -47.5589 C.3       2 UNK         0.1400 
     63 CB         -3.2036  -13.3182  -48.3781 C.3       2 UNK        -0.1800 
     64 N          -0.7753  -13.5019  -48.4863 N.am      2 UNK        -0.5000 
     65 C           0.5138  -13.6768  -48.1582 C.2       1 UNK         0.5000 
     66 O           0.9271  -13.7140  -46.9998 O.2       1 UNK        -0.5000 
     67 C           0.2948  -23.2902  -47.0992 C.2       11 UNK         0.5000 
     68 O           0.4741  -24.3188  -47.7496 O.2       11 UNK        -0.5000 
     69 N          -0.8566  -22.6043  -47.1034 N.am      12 UNK        -0.5000 
     70 CA         -2.0341  -22.9486  -47.8980 C.3       12 UNK         0.1400 
     71 CB         -3.0788  -21.8321  -47.7753 C.3       12 UNK        -0.1800 
     72 C          -2.6388  -24.3083  -47.5167 C.2       12 UNK         0.5000 
     73 O          -3.0092  -25.0701  -48.4088 O.2       12 UNK        -0.5000 
     74 N          -2.6874  -24.6073  -46.2113 N.am      13 UNK        -0.5000 
     75 CA         -3.1217  -25.8961  -45.6736 C.3       13 UNK         0.1400 
     76 CB         -3.2448  -25.8040  -44.1452 C.3       13 UNK        -0.1800 
     77 C          -2.1890  -27.0517  -46.0797 C.2       13 UNK         0.5000 
     78 O          -2.6785  -28.1200  -46.4470 O.2       13 UNK        -0.5000 
     79 N          -0.8707  -26.8102  -46.0382 N.am      14 UNK        -0.5000 
     80 CA          0.1574  -27.7611  -46.4653 C.3       14 UNK         0.1400 
     81 CB          1.5355  -27.2728  -45.9931 C.3       14 UNK        -0.1800 
     82 C           0.1502  -28.0015  -47.9873 C.2       14 UNK         0.5000 
     83 O           0.2872  -29.1452  -48.4233 O.2       14 UNK        -0.5000 
     84 N          -0.0260  -26.9247  -48.7645 N.am      15 UNK        -0.5000 
     85 CA         -0.1095  -26.9475  -50.2263 C.3       15 UNK         0.1400 
     86 CB          0.0901  -25.5175  -50.7556 C.3       15 UNK        -0.1800 
     87 C          -1.4346  -27.5236  -50.7628 C.2       15 UNK         0.5000 
     88 O          -1.4767  -27.9414  -51.9205 O.2       15 UNK        -0.5000 
     89 N          -2.4852  -27.5048  -49.9285 N.am      16 UNK        -0.5000 
     90 CA         -3.8884  -27.7862  -50.2495 C.3       16 UNK         0.1400 
     91 CB         -4.0881  -29.2603  -50.6594 C.3       16 UNK        -0.1800 
     92 C          -4.4338  -26.7745  -51.2799 C.2       16 UNK         0.5000 
     93 O          -5.0102  -27.1611  -52.2989 O.2       16 UNK        -0.5000 
     94 N          -4.1978  -25.4893  -50.9965 N.am      17 UNK        -0.5000 
     95 CA         -4.5165  -24.3464  -51.8469 C.3       17 UNK         0.1400 
     96 CB         -3.2359  -23.9194  -52.5925 C.3       17 UNK        -0.1800 
     97 C          -5.1214  -23.2125  -50.9969 C.2       17 UNK         0.5000 
     98 O          -5.6001  -23.4612  -49.8880 O.2       17 UNK        -0.5000 
     99 N          -5.0972  -21.9864  -51.5292 N.am      18 UNK        -0.5000 
    100 CA        -5.5226  -20.7626  -50.8612 C.3       18 UNK         0.1400 
    101 CB        -6.9855  -20.4478  -51.2177 C.3       18 UNK        -0.1800 
    102 C         -4.5726  -19.6545  -51.3233 C.2       18 UNK         0.5000 
    103 O         -4.6118  -19.2862  -52.4985 O.2       18 UNK        -0.5000 
    104 N         -3.7215  -19.1654  -50.4110 N.am      19 UNK        -0.5000 
    105 CA        -2.6183  -18.2331  -50.6813 C.3       19 UNK         0.1400 
    106 CB        -1.8952  -17.9255  -49.3618 C.3       19 UNK        -0.1800 
    107 C         -3.0397  -16.9210  -51.3683 C.2       19 UNK         0.5000 
    108 O         -2.2979  -16.3992  -52.2001 O.2       19 UNK        -0.5000 
    109 N         -4.2390  -16.4309  -51.0294 N.am      20 UNK        -0.5000 
    110 CA        -4.8503  -15.2442  -51.6276 C.3       20 UNK         0.1400 
    111 CB        -6.0461  -14.8151  -50.7631 C.3       20 UNK        -0.1800 
    112 C         -5.2909  -15.4482  -53.0920 C.2       20 UNK         0.5000 
    113 O         -5.4168  -14.4617  -53.8186 O.2       20 UNK        -0.5000 
    114 N         -5.5271  -16.7039  -53.4967 N.am      21 UNK        -0.5000 
    115 CA        -5.9310  -17.0740  -54.8498 C.3       21 UNK         0.1400 
    116 CB        -6.9422  -18.2310  -54.7896 C.3       21 UNK        -0.1800 
    117 C         -4.7127  -17.4527  -55.7051 C.2       21 UNK         0.5000 
    118 O         -4.5794  -16.9394  -56.8172 O.2       21 UNK        -0.5000 
    119 N         -3.8544  -18.3430  -55.1868 N.am      22 UNK        -0.5000 
    120 CA        -2.6658  -18.8408  -55.9016 C.3       22 UNK         0.1400 
    121 C         -1.4238  -17.9041  -55.8519 C.2       22 UNK         0.5000 
    122 N         -1.3639  -16.9081  -54.9768 N.am      22 UNK        -0.7600 
    123 O         -0.5003  -18.0729  -56.6435 O.2       22 UNK        -0.5000 
    124 C124       -2.3241  -20.3086  -55.5344 C.3       23 UNK        -0.0398 
    125 S125       -1.9002  -20.5697  -53.7793 S.3       23 UNK        -0.2404 
    126 C126       -0.0873  -20.6948  -53.8387 C.3       23 UNK        -0.0205 
    127 H127       -0.3985  -10.6284  -51.8580 H         1 UNK         0.0600 
    128 H128        0.4706  -11.9138  -52.7015 H         1 UNK         0.0600 
    129 H129        1.3101  -10.4243  -52.2592 H         1 UNK         0.0600 
    130 H130        1.0063  -13.6075  -51.3630 H         1 UNK         0.3000 
    131 H131        2.4614  -13.3894  -48.9790 H         1 UNK         0.0600 
    132 H132        2.0155  -15.8381  -48.7044 H         1 UNK         0.0800 
    133 H133        0.8059  -15.7682  -49.9614 H         1 UNK         0.0800 
    134 H134        1.3010  -15.8729  -52.4815 H         1 UNK         0.0800 
    135 H135        2.8087  -16.5510  -53.0407 H         1 UNK         0.0800 
    136 H136        1.0263  -18.2144  -53.9063 H         1 UNK         0.1150 
    137 H137        0.1238  -21.4322  -51.2256 H         1 UNK         0.1150 
    138 H138        2.0965  -17.9447  -49.7563 H         1 UNK         0.1150 
    139 H139        1.0238  -19.4321  -48.2350 H         1 UNK         0.0800 
    140 H140        0.0946  -20.7921  -48.7977 H         1 UNK         0.0800 
    141 H141        1.6847  -20.6154  -46.3890 H         1 UNK         0.0800 
    142 H142        3.1684  -21.4847  -46.2586 H         1 UNK         0.0800 
    143 H143        2.1460  -23.5781  -46.0939 H         1 UNK         0.0600 
    144 H144        0.9826  -21.5382  -44.5093 H         1 UNK         0.3000 
    145 H145       -0.9353  -23.5887  -42.3106 H         1 UNK         0.0600 
    146 H146        0.4075  -22.2385  -40.7187 H         1 UNK         0.0600 
    147 H147        1.4022  -23.4900  -41.4491 H         1 UNK         0.0600 
    148 H148        1.5526  -21.8231  -41.9908 H         1 UNK         0.0600 
    149 H149       -0.6276  -20.7523  -42.5619 H         1 UNK         0.3000 
    150 H150       -3.4511  -20.2253  -44.7131 H         1 UNK         0.0600 
    151 H151       -4.3093  -20.4892  -42.3652 H         1 UNK         0.0600 
    152 H152       -4.1121  -18.8032  -42.8163 H         1 UNK         0.0600 
    153 H153       -2.9277  -19.5766  -41.7647 H         1 UNK         0.0600 
    154 H154       -1.6976  -18.3556  -43.5296 H         1 UNK         0.3000 
    155 H155        0.8038  -18.3307  -46.1219 H         1 UNK         0.0600 
    156 H156        0.1629  -15.9181  -45.9389 H         1 UNK         0.0600 
    157 H157       -0.9898  -16.8361  -46.8918 H         1 UNK         0.0600 
    158 H158       -1.3844  -16.3815  -45.2399 H         1 UNK         0.0600 
    159 H159        0.7009  -16.8250  -43.7652 H         1 UNK         0.3000 
    160 H160        2.3677  -19.0811  -41.5570 H         1 UNK         0.0600 
    161 H161        3.1907  -16.4852  -42.9715 H         1 UNK         0.0600 
    162 H162        4.1190  -17.9792  -42.9443 H         1 UNK         0.0600 
    163 H163        3.8521  -17.0893  -41.4530 H         1 UNK         0.0600 
    164 H164        1.2348  -16.3853  -41.4781 H         1 UNK         0.3000 
    165 H165       -1.7836  -17.3714  -39.8625 H         1 UNK         0.0600 
    166 H166       -0.9734  -15.7447  -38.1832 H         1 UNK         0.0600 
    167 H167       -0.0762  -17.2477  -38.0407 H         1 UNK         0.0600 
    168 H168        0.6685  -15.8559  -38.8180 H         1 UNK         0.0600 
    169 H169       -0.7585  -14.8073  -40.5718 H         1 UNK         0.3000 
    170 H170       -2.2194  -14.6850  -43.8435 H         1 UNK         0.0600 
    171 H171       -4.0467  -14.2706  -42.1816 H         1 UNK         0.0600 
    172 H172       -2.9423  -13.2983  -41.2154 H         1 UNK         0.0600 
    173 H173       -3.3937  -12.7801  -42.8398 H         1 UNK         0.0600 
    174 H174       -1.0010  -12.5583  -42.8173 H         1 UNK         0.3000 
    175 H175        1.4849  -12.0986  -42.6488 H         1 UNK         0.0600 
    176 H176        3.2721  -13.7502  -43.1497 H         1 UNK         0.0600 
    177 H177        2.7827  -13.8109  -44.8395 H         1 UNK         0.0600 
    178 H178        3.4550  -12.3277  -44.1651 H         1 UNK         0.0600 
    179 H179        0.8554  -12.3922  -45.5581 H         1 UNK         0.3000 
    180 H180       -1.4643   -9.7254  -45.4916 H         1 UNK         0.0600 
    181 H181        1.2925   -9.6955  -46.8366 H         1 UNK         0.0600 
    182 H182        0.6489   -8.4224  -45.8046 H         1 UNK         0.0600 
    183 H183       -0.1182   -8.7699  -47.3470 H         1 UNK         0.0600 
    184 H184       -0.3614  -11.3346  -47.6002 H         1 UNK         0.3000 
    185 H185       -1.9324  -14.3270  -46.9808 H         1 UNK         0.0600 
    186 H186       -4.0784  -13.2809  -47.7275 H         1 UNK         0.0600 
    187 H187       -3.2242  -12.4284  -49.0084 H         1 UNK         0.0600 
    188 H188       -3.3178  -14.1905  -49.0219 H         1 UNK         0.0600 
    189 H189       -1.0021  -13.4478  -49.4684 H         1 UNK         0.3000 
    190 H190       -0.9180  -21.7405  -46.5679 H         1 UNK         0.3000 
    191 H191       -1.7236  -23.0077  -48.9432 H         1 UNK         0.0600 
    192 H192       -3.3733  -21.6700  -46.7386 H         1 UNK         0.0600 
    193 H193       -3.9803  -22.0763  -48.3338 H         1 UNK         0.0600 
    194 H194       -2.6935  -20.8914  -48.1660 H         1 UNK         0.0600 
    195 H195       -2.4177  -23.8988  -45.5349 H         1 UNK         0.3000 
    196 H196       -4.1119  -26.1101  -46.0810 H         1 UNK         0.0600 
    197 H197       -3.5751  -26.7531  -43.7212 H         1 UNK         0.0600 
    198 H198       -3.9731  -25.0468  -43.8546 H         1 UNK         0.0600 
    199 H199       -2.2932  -25.5479  -43.6786 H         1 UNK         0.0600 
    200 H200       -0.5467  -25.9135  -45.6911 H         1 UNK         0.3000 
    201 H201       -0.0454  -28.7170  -45.9779 H         1 UNK         0.0600 
    202 H202        1.5666  -27.1727  -44.9080 H         1 UNK         0.0600 
    203 H203        1.7911  -26.3043  -46.4237 H         1 UNK         0.0600 
    204 H204        2.3183  -27.9766  -46.2783 H         1 UNK         0.0600 
    205 H205       -0.0515  -26.0067  -48.3254 H         1 UNK         0.3000 
    206 H206        0.7015  -27.5711  -50.6079 H         1 UNK         0.0600 
    207 H207        1.0529  -25.1113  -50.4447 H         1 UNK         0.0600 
    208 H208        0.0635  -25.4937  -51.8458 H         1 UNK         0.0600 
    209 H209       -0.6888  -24.8452  -50.3940 H         1 UNK         0.0600 
    210 H210       -2.3370  -27.0771  -49.0230 H         1 UNK         0.3000 
    211 H211       -4.4501  -27.6223  -49.3286 H         1 UNK         0.0600 
    212 H212       -3.6014  -29.4926  -51.6068 H         1 UNK         0.0600 
    213 H213       -5.1480  -29.4899  -50.7739 H         1 UNK         0.0600 
    214 H214       -3.6892  -29.9356  -49.9025 H         1 UNK         0.0600 
    215 H215       -3.7851  -25.2630  -50.0931 H         1 UNK         0.3000 
    216 H216       -5.2746  -24.6283  -52.5801 H         1 UNK         0.0600 
    217 H217       -2.4971  -23.4916  -51.9131 H         1 UNK         0.0600 
    218 H218       -3.4512  -23.1786  -53.3625 H         1 UNK         0.0600 
    219 H219       -2.7706  -24.7684  -53.0940 H         1 UNK         0.0600 
    220 H220       -4.6649  -21.8443  -52.4327 H         1 UNK         0.3000 
    221 H221       -5.4426  -20.8696  -49.7779 H         1 UNK         0.0600 
    222 H222       -7.6544  -21.2240  -50.8459 H         1 UNK         0.0600 
    223 H223       -7.1326  -20.3710  -52.2955 H         1 UNK         0.0600 
    224 H224       -7.3020  -19.5036  -50.7732 H         1 UNK         0.0600 
    225 H225       -3.7738  -19.5181  -49.4675 H         1 UNK         0.3000 
    226 H226       -1.9168  -18.7378  -51.3475 H         1 UNK         0.0600 
    227 H227       -1.5210  -18.8339  -48.8916 H         1 UNK         0.0600 
    228 H228       -1.0384  -17.2726  -49.5292 H         1 UNK         0.0600 
    229 H229       -2.5556  -17.4283  -48.6505 H         1 UNK         0.0600 
    230 H230       -4.7865  -16.9301  -50.3442 H         1 UNK         0.3000 
    231 H231       -4.1132  -14.4384  -51.6157 H         1 UNK         0.0600 
    232 H232       -6.8167  -15.5865  -50.7320 H         1 UNK         0.0600 
    233 H233       -6.5062  -13.9075  -51.1560 H         1 UNK         0.0600 
    234 H234       -5.7402  -14.6043  -49.7384 H         1 UNK         0.0600 
    235 H235       -5.3301  -17.4731  -52.8661 H         1 UNK         0.3000 
    236 H236       -6.4305  -16.2300  -55.3305 H         1 UNK         0.0600 
    237 H237       -6.5078  -19.1333  -54.3596 H         1 UNK         0.0600 
    238 H238       -7.8133  -17.9620  -54.1921 H         1 UNK         0.0600 
    239 H239       -7.2987  -18.4860  -55.7883 H         1 UNK         0.0600 
    240 H240       -4.0194  -18.7218  -54.2582 H         1 UNK         0.3000 
    241 H241       -2.9302  -18.8740  -56.9605 H         1 UNK         0.0600 
    242 H242       -0.5603  -16.3028  -54.9811 H         1 UNK         0.3800 
    243 H243       -2.0592  -16.7984  -54.2497 H         1 UNK         0.3800 
    244 H244       -1.5251  -20.6890  -56.1726 H         1 UNK         0.0800 
    245 H245       -3.1868  -20.9386  -55.7545 H         1 UNK         0.0800 
    246 H246        0.2032  -21.7447  -53.7808 H         1 UNK         0.0800 
    247 H247        0.2949  -20.3214  -54.7896 H         1 UNK         0.0800 
@<TRIPOS>BOND
     1    1    2 1    
     2    1  127 1    
     3    1  128 1    
     4    1  129 1    
     5    2    3 2    
     6    2    4 am   BACKBONE|DICT|INTERRES
     7    4    5 1    
     8    4  130 1    
     9    5    6 1    
    10    5   65 1    
    11    5  131 1    
    12    6    7 1    
    13    6  132 1    
    14    6  133 1    
    15    7    8 1    
    16    8    9 1    
    17    8  134 1    
    18    8  135 1    
    19    9   10 ar   
    20    9   14 ar   
    21   10   11 ar   
    22   10  136 1    
    23   11   12 ar   
    24   11  126 1    
    25   12   13 ar   
    26   12  137 1    
    27   13   14 ar   
    28   13   15 1    
    29   14  138 1    
    30   15   16 1    
    31   15  139 1    
    32   15  140 1    
    33   16   17 1    
    34   17   18 1    
    35   17  141 1    
    36   17  142 1    
    37   18   19 1    
    38   18   67 1    
    39   18  143 1    
    40   19   20 am   BACKBONE|DICT|INTERRES
    41   19  144 1    
    42   20   21 2    
    43   20   22 1    
    44   22   23 1    
    45   22   24 1    
    46   22  145 1    
    47   23  146 1    
    48   23  147 1    
    49   23  148 1    
    50   24   25 am   BACKBONE|DICT|INTERRES
    51   24  149 1    
    52   25   26 2    
    53   25   27 1    
    54   27   28 1    
    55   27   29 1    
    56   27  150 1    
    57   28  151 1    
    58   28  152 1    
    59   28  153 1    
    60   29   30 am   BACKBONE|DICT|INTERRES
    61   29  154 1    
    62   30   31 2    
    63   30   32 1    
    64   32   33 1    
    65   32   34 1    
    66   32  155 1    
    67   33  156 1    
    68   33  157 1    
    69   33  158 1    
    70   34   35 am   BACKBONE|DICT|INTERRES
    71   34  159 1    
    72   35   36 2    
    73   35   37 1    
    74   37   38 1    
    75   37   39 1    
    76   37  160 1    
    77   38  161 1    
    78   38  162 1    
    79   38  163 1    
    80   39   40 am   BACKBONE|DICT|INTERRES
    81   39  164 1    
    82   40   41 2    
    83   40   42 1    
    84   42   43 1    
    85   42   44 1    
    86   42  165 1    
    87   43  166 1    
    88   43  167 1    
    89   43  168 1    
    90   44   45 am   BACKBONE|DICT|INTERRES
    91   44  169 1    
    92   45   46 2    
    93   45   47 1    
    94   47   48 1    
    95   47   49 1    
    96   47  170 1    
    97   48  171 1    
    98   48  172 1    
    99   48  173 1    
   100   49   50 am   BACKBONE|DICT|INTERRES
   101   49  174 1    
   102   50   51 2    
   103   50   52 1    
   104   52   53 1    
   105   52   54 1    
   106   52  175 1    
   107   53  176 1    
   108   53  177 1    
   109   53  178 1    
   110   54   55 am   BACKBONE|DICT|INTERRES
   111   54  179 1    
   112   55   56 2    
   113   55   57 1    
   114   57   58 1    
   115   57   59 1    
   116   57  180 1    
   117   58  181 1    
   118   58  182 1    
   119   58  183 1    
   120   59   60 am   BACKBONE|DICT|INTERRES
   121   59  184 1    
   122   60   61 2    
   123   60   62 1    
   124   62   63 1    
   125   62   64 1    
   126   62  185 1    
   127   63  186 1    
   128   63  187 1    
   129   63  188 1    
   130   64   65 am   BACKBONE|DICT|INTERRES
   131   64  189 1    
   132   65   66 2    
   133   67   68 2    
   134   67   69 am   BACKBONE|DICT|INTERRES
   135   69   70 1    
   136   69  190 1    
   137   70   71 1    
   138   70   72 1    
   139   70  191 1    
   140   71  192 1    
   141   71  193 1    
   142   71  194 1    
   143   72   73 2    
   144   72   74 am   BACKBONE|DICT|INTERRES
   145   74   75 1    
   146   74  195 1    
   147   75   76 1    
   148   75   77 1    
   149   75  196 1    
   150   76  197 1    
   151   76  198 1    
   152   76  199 1    
   153   77   78 2    
   154   77   79 am   BACKBONE|DICT|INTERRES
   155   79   80 1    
   156   79  200 1    
   157   80   81 1    
   158   80   82 1    
   159   80  201 1    
   160   81  202 1    
   161   81  203 1    
   162   81  204 1    
   163   82   83 2    
   164   82   84 am   BACKBONE|DICT|INTERRES
   165   84   85 1    
   166   84  205 1    
   167   85   86 1    
   168   85   87 1    
   169   85  206 1    
   170   86  207 1    
   171   86  208 1    
   172   86  209 1    
   173   87   88 2    
   174   87   89 am   BACKBONE|DICT|INTERRES
   175   89   90 1    
   176   89  210 1    
   177   90   91 1    
   178   90   92 1    
   179   90  211 1    
   180   91  212 1    
   181   91  213 1    
   182   91  214 1    
   183   92   93 2    
   184   92   94 am   BACKBONE|DICT|INTERRES
   185   94   95 1    
   186   94  215 1    
   187   95   96 1    
   188   95   97 1    
   189   95  216 1    
   190   96  217 1    
   191   96  218 1    
   192   96  219 1    
   193   97   98 2    
   194   97   99 am   BACKBONE|DICT|INTERRES
   195   99  100 1    
   196   99  220 1    
   197  100  101 1    
   198  100  102 1    
   199  100  221 1    
   200  101  222 1    
   201  101  223 1    
   202  101  224 1    
   203  102  103 2    
   204  102  104 am   BACKBONE|DICT|INTERRES
   205  104  105 1    
   206  104  225 1    
   207  105  106 1    
   208  105  107 1    
   209  105  226 1    
   210  106  227 1    
   211  106  228 1    
   212  106  229 1    
   213  107  108 2    
   214  107  109 am   BACKBONE|DICT|INTERRES
   215  109  110 1    
   216  109  230 1    
   217  110  111 1    
   218  110  112 1    
   219  110  231 1    
   220  111  232 1    
   221  111  233 1    
   222  111  234 1    
   223  112  113 2    
   224  112  114 am   BACKBONE|DICT|INTERRES
   225  114  115 1    
   226  114  235 1    
   227  115  116 1    
   228  115  117 1    
   229  115  236 1    
   230  116  237 1    
   231  116  238 1    
   232  116  239 1    
   233  117  118 2    
   234  117  119 am   BACKBONE|DICT|INTERRES
   235  119  120 1    
   236  119  240 1    
   237  120  121 1    
   238  120  124 1    
   239  120  241 1    
   240  121  122 am   BACKBONE|DICT|INTERRES
   241  121  123 2    
   242  122  242 1    
   243  122  243 1    
   244  124  125 1    
   245  124  244 1    
   246  124  245 1    
   247  125  126 1    
   248  126  246 1    
   249  126  247 1    
@<TRIPOS>SUBSTRUCTURE
     1 UNK         1 GROUP             0       ****    0 ROOT    
