@<TRIPOS>MOLECULE
3R540
247   249    1
SMALL
USER_CHARGES


@<TRIPOS>ATOM
      1 CA          5.3325  -13.1355  -50.0633 C.3       0 UNK        -0.1800 
      2 C           4.5988  -13.7298  -48.8698 C.2       0 UNK         0.5000 
      3 O           4.5367  -13.1016  -47.8127 O.2       0 UNK        -0.5000 
      4 N           4.0302  -14.9321  -49.0366 N.am      1 UNK        -0.5000 
      5 CA          3.2848  -15.6666  -48.0044 C.3       1 UNK         0.1400 
      6 C6          3.0188  -17.1388  -48.4122 C.3       23 UNK        -0.0398 
      7 S7          2.0662  -17.3391  -49.9652 S.3       23 UNK        -0.2404 
      8 C8          0.9401  -18.7172  -49.5597 C.3       23 UNK        -0.0205 
      9 C9         -0.4274  -18.2578  -49.0667 C.ar      23 UNK        -0.0193 
     10 C10        -1.5888  -18.6727  -49.7248 C.ar      23 UNK        -0.1150 
     11 C11        -2.8504  -18.2993  -49.2497 C.ar      23 UNK        -0.0193 
     12 C12        -2.9492  -17.4788  -48.1221 C.ar      23 UNK        -0.1150 
     13 C13        -1.7962  -17.0670  -47.4474 C.ar      23 UNK        -0.0193 
     14 C14        -0.5453  -17.4673  -47.9223 C.ar      23 UNK        -0.1150 
     15 C15        -1.8923  -16.2380  -46.1747 C.3       23 UNK        -0.0205 
     16 S16        -1.1953  -17.1208  -44.7438 S.3       23 UNK        -0.2404 
     17 C17        -2.4017  -18.4653  -44.5095 C.3       23 UNK        -0.0398 
     18 CA         -2.1109  -19.7391  -45.3445 C.3       11 UNK         0.1400 
     19 N          -0.7358  -20.2382  -45.2251 N.am      11 UNK        -0.5000 
     20 C          -0.2077  -21.1842  -46.0169 C.2       10 UNK         0.5000 
     21 O          -0.7975  -21.6773  -46.9748 O.2       10 UNK        -0.5000 
     22 CA          1.1836  -21.7242  -45.6486 C.3       10 UNK         0.1400 
     23 CB          2.2937  -20.9297  -46.3536 C.3       10 UNK        -0.1800 
     24 N           1.3938  -21.7174  -44.2019 N.am      10 UNK        -0.5000 
     25 C           0.8119  -22.5805  -43.3561 C.2       9 UNK         0.5000 
     26 O           0.0906  -23.5091  -43.7227 O.2       9 UNK        -0.5000 
     27 CA          1.0313  -22.3355  -41.8495 C.3       9 UNK         0.1400 
     28 CB          2.3213  -23.0191  -41.3735 C.3       9 UNK        -0.1800 
     29 N           1.0845  -20.9120  -41.5089 N.am      9 UNK        -0.5000 
     30 C           0.0519  -20.0662  -41.6324 C.2       8 UNK         0.5000 
     31 O          -1.0784  -20.4239  -41.9633 O.2       8 UNK        -0.5000 
     32 CA          0.3368  -18.5656  -41.4121 C.3       8 UNK         0.1400 
     33 CB         -0.0239  -18.1546  -39.9789 C.3       8 UNK        -0.1800 
     34 N           1.7139  -18.1528  -41.7222 N.am      8 UNK        -0.5000 
     35 C           2.2958  -18.2990  -42.9249 C.2       7 UNK         0.5000 
     36 O           1.7241  -18.8318  -43.8743 O.2       7 UNK        -0.5000 
     37 CA          3.7423  -17.8035  -43.1215 C.3       7 UNK         0.1400 
     38 CB          3.8573  -16.9238  -44.3779 C.3       7 UNK        -0.1800 
     39 N           4.2564  -17.0629  -41.9705 N.am      7 UNK        -0.5000 
     40 C           4.9310  -17.6011  -40.9448 C.2       6 UNK         0.5000 
     41 O           5.2128  -18.7972  -40.8675 O.2       6 UNK        -0.5000 
     42 CA          5.3363  -16.6512  -39.7971 C.3       6 UNK         0.1400 
     43 CB          6.7748  -16.1507  -39.9955 C.3       6 UNK        -0.1800 
     44 N           4.4443  -15.4970  -39.6579 N.am      6 UNK        -0.5000 
     45 C           3.1488  -15.5743  -39.3268 C.2       5 UNK         0.5000 
     46 O           2.5911  -16.6298  -39.0283 O.2       5 UNK        -0.5000 
     47 CA          2.3124  -14.2821  -39.4065 C.3       5 UNK         0.1400 
     48 CB          3.1464  -12.9853  -39.3032 C.3       5 UNK        -0.1800 
     49 N           1.4777  -14.2718  -40.6141 N.am      5 UNK        -0.5000 
     50 C           1.8970  -14.3407  -41.8872 C.2       4 UNK         0.5000 
     51 O           3.0854  -14.4035  -42.2099 O.2       4 UNK        -0.5000 
     52 CA          0.8258  -14.3784  -42.9978 C.3       4 UNK         0.1400 
     53 CB         -0.6256  -14.1966  -42.5005 C.3       4 UNK        -0.1800 
     54 N           1.1331  -13.4351  -44.0753 N.am      4 UNK        -0.5000 
     55 C           1.2530  -12.1008  -43.9765 C.2       3 UNK         0.5000 
     56 O           1.0624  -11.4706  -42.9352 O.2       3 UNK        -0.5000 
     57 CA          1.6570  -11.3232  -45.2487 C.3       3 UNK         0.1400 
     58 CB          3.1389  -10.9228  -45.1798 C.3       3 UNK        -0.1800 
     59 N           1.4328  -12.0615  -46.4917 N.am      3 UNK        -0.5000 
     60 C           0.2327  -12.3790  -46.9979 C.2       2 UNK         0.5000 
     61 O          -0.8322  -11.9819  -46.5241 O.2       2 UNK        -0.5000 
     62 CA          0.2102  -13.3144  -48.2262 C.3       2 UNK         0.1400 
     63 CB         -0.0694  -12.5115  -49.5056 C.3       2 UNK        -0.1800 
     64 N           1.4302  -14.1026  -48.4275 N.am      2 UNK        -0.5000 
     65 C           1.9938  -14.9497  -47.5523 C.2       1 UNK         0.5000 
     66 O           1.5604  -15.1477  -46.4176 O.2       1 UNK        -0.5000 
     67 C          -3.1440  -20.8312  -45.0097 C.2       11 UNK         0.5000 
     68 O          -4.1380  -20.9630  -45.7233 O.2       11 UNK        -0.5000 
     69 N          -2.8773  -21.6058  -43.9477 N.am      12 UNK        -0.5000 
     70 CA         -3.6988  -22.7351  -43.5099 C.3       12 UNK         0.1400 
     71 CB         -3.2014  -23.2294  -42.1431 C.3       12 UNK        -0.1800 
     72 C          -3.7269  -23.8844  -44.5350 C.2       12 UNK         0.5000 
     73 O          -4.7892  -24.4610  -44.7712 O.2       12 UNK        -0.5000 
     74 N          -2.5687  -24.1773  -45.1429 N.am      13 UNK        -0.5000 
     75 CA         -2.4303  -25.1502  -46.2293 C.3       13 UNK         0.1400 
     76 CB         -0.9437  -25.5063  -46.3861 C.3       13 UNK        -0.1800 
     77 C          -2.9990  -24.6449  -47.5717 C.2       13 UNK         0.5000 
     78 O          -3.3879  -25.4588  -48.4082 O.2       13 UNK        -0.5000 
     79 N          -2.9875  -23.3178  -47.7576 N.am      14 UNK        -0.5000 
     80 CA         -3.3332  -22.5298  -48.9470 C.3       14 UNK         0.1400 
     81 CB         -4.7828  -22.7808  -49.4077 C.3       14 UNK        -0.1800 
     82 C          -2.3116  -22.6285  -50.1009 C.2       14 UNK         0.5000 
     83 O          -2.4780  -21.9369  -51.1061 O.2       14 UNK        -0.5000 
     84 N          -1.2553  -23.4372  -49.9248 N.am      15 UNK        -0.5000 
     85 CA         -0.1187  -23.6392  -50.8281 C.3       15 UNK         0.1400 
     86 CB          0.7829  -22.3843  -50.8047 C.3       15 UNK        -0.1800 
     87 C          -0.5468  -24.0673  -52.2517 C.2       15 UNK         0.5000 
     88 O          -1.5610  -24.7499  -52.4113 O.2       15 UNK        -0.5000 
     89 N           0.2213  -23.6543  -53.2694 N.am      16 UNK        -0.5000 
     90 CA         -0.1070  -23.8400  -54.6864 C.3       16 UNK         0.1400 
     91 CB          1.1435  -23.5539  -55.5312 C.3       16 UNK        -0.1800 
     92 C          -1.2834  -22.9551  -55.1474 C.2       16 UNK         0.5000 
     93 O          -1.9456  -23.2850  -56.1319 O.2       16 UNK        -0.5000 
     94 N          -1.5433  -21.8639  -54.4115 N.am      17 UNK        -0.5000 
     95 CA         -2.6362  -20.9191  -54.6445 C.3       17 UNK         0.1400 
     96 CB         -2.3845  -19.6498  -53.8177 C.3       17 UNK        -0.1800 
     97 C          -4.0333  -21.5054  -54.3575 C.2       17 UNK         0.5000 
     98 O          -5.0314  -20.8990  -54.7480 O.2       17 UNK        -0.5000 
     99 N          -4.1029  -22.6863  -53.7259 N.am      18 UNK        -0.5000 
    100 CA        -5.3231  -23.4706  -53.5223 C.3       18 UNK         0.1400 
    101 CB        -4.9657  -24.7672  -52.7827 C.3       18 UNK        -0.1800 
    102 C         -6.0617  -23.7919  -54.8383 C.2       18 UNK         0.5000 
    103 O         -7.2924  -23.7913  -54.8604 O.2       18 UNK        -0.5000 
    104 N         -5.2986  -23.9852  -55.9250 N.am      19 UNK        -0.5000 
    105 CA        -5.8010  -24.1758  -57.2881 C.3       19 UNK         0.1400 
    106 CB        -4.6409  -24.6413  -58.1809 C.3       19 UNK        -0.1800 
    107 C         -6.4686  -22.9181  -57.8852 C.2       19 UNK         0.5000 
    108 O         -7.2733  -23.0450  -58.8084 O.2       19 UNK        -0.5000 
    109 N         -6.1440  -21.7371  -57.3414 N.am      20 UNK        -0.5000 
    110 CA        -6.7361  -20.4437  -57.6874 C.3       20 UNK         0.1400 
    111 CB        -5.6159  -19.3899  -57.7519 C.3       20 UNK        -0.1800 
    112 C         -7.8429  -20.0329  -56.6915 C.2       20 UNK         0.5000 
    113 O         -8.2853  -18.8839  -56.7247 O.2       20 UNK        -0.5000 
    114 N         -8.2700  -20.9694  -55.8289 N.am      21 UNK        -0.5000 
    115 CA        -9.3072  -20.8360  -54.8012 C.3       21 UNK         0.1400 
    116 CB       -10.6819  -20.5219  -55.4296 C.3       21 UNK        -0.1800 
    117 C         -8.9268  -19.8754  -53.6541 C.2       21 UNK         0.5000 
    118 O         -9.8066  -19.2493  -53.0600 O.2       21 UNK        -0.5000 
    119 N         -7.6266  -19.7978  -53.3378 N.am      22 UNK        -0.5000 
    120 CA        -7.0887  -19.0680  -52.1754 C.3       22 UNK         0.1400 
    121 C         -7.5000  -19.6806  -50.8005 C.2       22 UNK         0.5000 
    122 N         -7.7995  -20.9721  -50.7161 N.am      22 UNK        -0.7600 
    123 O         -7.5765  -18.9714  -49.8018 O.2       22 UNK        -0.5000 
    124 C124       -5.5529  -18.9311  -52.3108 C.3       23 UNK        -0.0398 
    125 S125       -4.7419  -17.7248  -51.2046 S.3       23 UNK        -0.2404 
    126 C126       -4.1021  -18.8415  -49.9177 C.3       23 UNK        -0.0205 
    127 H127        5.2997  -13.7965  -50.9297 H         1 UNK         0.0600 
    128 H128        6.3776  -12.9579  -49.8100 H         1 UNK         0.0600 
    129 H129        4.8819  -12.1835  -50.3440 H         1 UNK         0.0600 
    130 H130        4.1003  -15.3958  -49.9319 H         1 UNK         0.3000 
    131 H131        3.9302  -15.6950  -47.1240 H         1 UNK         0.0600 
    132 H132        3.9729  -17.6499  -48.5472 H         1 UNK         0.0800 
    133 H133        2.5272  -17.6708  -47.5968 H         1 UNK         0.0800 
    134 H134        0.8260  -19.3206  -50.4606 H         1 UNK         0.0800 
    135 H135        1.3925  -19.3727  -48.8164 H         1 UNK         0.0800 
    136 H136       -1.5146  -19.3141  -50.5916 H         1 UNK         0.1150 
    137 H137       -3.9238  -17.1959  -47.7500 H         1 UNK         0.1150 
    138 H138        0.3357  -17.1844  -47.3717 H         1 UNK         0.1150 
    139 H139       -1.3360  -15.3105  -46.3067 H         1 UNK         0.0800 
    140 H140       -2.9237  -15.9525  -45.9634 H         1 UNK         0.0800 
    141 H141       -3.3972  -18.0825  -44.7413 H         1 UNK         0.0800 
    142 H142       -2.4169  -18.6999  -43.4446 H         1 UNK         0.0800 
    143 H143       -2.2603  -19.4965  -46.3958 H         1 UNK         0.0600 
    144 H144       -0.1584  -19.8287  -44.5015 H         1 UNK         0.3000 
    145 H145        1.2450  -22.7580  -45.9951 H         1 UNK         0.0600 
    146 H146        3.2819  -21.2413  -46.0154 H         1 UNK         0.0600 
    147 H147        2.2022  -19.8568  -46.1856 H         1 UNK         0.0600 
    148 H148        2.2546  -21.0951  -47.4304 H         1 UNK         0.0600 
    149 H149        1.8866  -20.9161  -43.8289 H         1 UNK         0.3000 
    150 H150        0.1899  -22.7813  -41.3148 H         1 UNK         0.0600 
    151 H151        2.3027  -24.0864  -41.5983 H         1 UNK         0.0600 
    152 H152        2.4467  -22.9173  -40.2954 H         1 UNK         0.0600 
    153 H153        3.2036  -22.5969  -41.8562 H         1 UNK         0.0600 
    154 H154        1.9802  -20.5398  -41.2289 H         1 UNK         0.3000 
    155 H155       -0.3217  -18.0162  -42.0855 H         1 UNK         0.0600 
    156 H156       -1.0432  -18.4528  -39.7299 H         1 UNK         0.0600 
    157 H157        0.0339  -17.0735  -39.8537 H         1 UNK         0.0600 
    158 H158        0.6417  -18.6166  -39.2489 H         1 UNK         0.0600 
    159 H159        2.2376  -17.7246  -40.9691 H         1 UNK         0.3000 
    160 H160        4.3582  -18.6898  -43.2861 H         1 UNK         0.0600 
    161 H161        3.2110  -16.0482  -44.3219 H         1 UNK         0.0600 
    162 H162        3.5721  -17.4805  -45.2710 H         1 UNK         0.0600 
    163 H163        4.8798  -16.5767  -44.5263 H         1 UNK         0.0600 
    164 H164        4.0390  -16.0696  -41.9497 H         1 UNK         0.3000 
    165 H165        5.2966  -17.2226  -38.8673 H         1 UNK         0.0600 
    166 H166        7.0998  -15.5391  -39.1536 H         1 UNK         0.0600 
    167 H167        7.4715  -16.9862  -40.0767 H         1 UNK         0.0600 
    168 H168        6.8711  -15.5533  -40.9030 H         1 UNK         0.0600 
    169 H169        4.8158  -14.5993  -39.9335 H         1 UNK         0.3000 
    170 H170        1.6318  -14.3041  -38.5542 H         1 UNK         0.0600 
    171 H171        3.8165  -12.8469  -40.1519 H         1 UNK         0.0600 
    172 H172        2.4961  -12.1117  -39.2573 H         1 UNK         0.0600 
    173 H173        3.7533  -12.9814  -38.3969 H         1 UNK         0.0600 
    174 H174        0.4818  -14.2401  -40.4493 H         1 UNK         0.3000 
    175 H175        0.8964  -15.3711  -43.4436 H         1 UNK         0.0600 
    176 H176       -0.7709  -13.2453  -41.9876 H         1 UNK         0.0600 
    177 H177       -1.3263  -14.2300  -43.3351 H         1 UNK         0.0600 
    178 H178       -0.9115  -14.9968  -41.8167 H         1 UNK         0.0600 
    179 H179        1.3293  -13.8702  -44.9725 H         1 UNK         0.3000 
    180 H180        1.0558  -10.4124  -45.2813 H         1 UNK         0.0600 
    181 H181        3.4242  -10.3130  -46.0372 H         1 UNK         0.0600 
    182 H182        3.7895  -11.7985  -45.1599 H         1 UNK         0.0600 
    183 H183        3.3462  -10.3387  -44.2822 H         1 UNK         0.0600 
    184 H184        2.2555  -12.4342  -46.9468 H         1 UNK         0.3000 
    185 H185       -0.6106  -14.0184  -48.0846 H         1 UNK         0.0600 
    186 H186       -0.1884  -13.1695  -50.3667 H         1 UNK         0.0600 
    187 H187       -0.9895  -11.9330  -49.4124 H         1 UNK         0.0600 
    188 H188        0.7381  -11.8118  -49.7246 H         1 UNK         0.0600 
    189 H189        1.8748  -14.0082  -49.3287 H         1 UNK         0.3000 
    190 H190       -2.0720  -21.3786  -43.3720 H         1 UNK         0.3000 
    191 H191       -4.7222  -22.3742  -43.3878 H         1 UNK         0.0600 
    192 H192       -3.2345  -22.4325  -41.3999 H         1 UNK         0.0600 
    193 H193       -2.1758  -23.5953  -42.1942 H         1 UNK         0.0600 
    194 H194       -3.8231  -24.0458  -41.7737 H         1 UNK         0.0600 
    195 H195       -1.7246  -23.7055  -44.8381 H         1 UNK         0.3000 
    196 H196       -2.9735  -26.0573  -45.9563 H         1 UNK         0.0600 
    197 H197       -0.5380  -25.9184  -45.4618 H         1 UNK         0.0600 
    198 H198       -0.3467  -24.6330  -46.6516 H         1 UNK         0.0600 
    199 H199       -0.7996  -26.2546  -47.1665 H         1 UNK         0.0600 
    200 H200       -2.5546  -22.7643  -47.0272 H         1 UNK         0.3000 
    201 H201       -3.2806  -21.4921  -48.6149 H         1 UNK         0.0600 
    202 H202       -5.0400  -22.1494  -50.2590 H         1 UNK         0.0600 
    203 H203       -5.4892  -22.5503  -48.6103 H         1 UNK         0.0600 
    204 H204       -4.9460  -23.8142  -49.7091 H         1 UNK         0.0600 
    205 H205       -1.2319  -23.9685  -49.0685 H         1 UNK         0.3000 
    206 H206        0.4532  -24.4719  -50.4171 H         1 UNK         0.0600 
    207 H207        0.3069  -21.5381  -51.3014 H         1 UNK         0.0600 
    208 H208        1.0041  -22.0817  -49.7806 H         1 UNK         0.0600 
    209 H209        1.7402  -22.5671  -51.2935 H         1 UNK         0.0600 
    210 H210        1.0497  -23.1144  -53.0650 H         1 UNK         0.3000 
    211 H211       -0.3960  -24.8815  -54.8426 H         1 UNK         0.0600 
    212 H212        1.4862  -22.5256  -55.4091 H         1 UNK         0.0600 
    213 H213        0.9416  -23.7087  -56.5920 H         1 UNK         0.0600 
    214 H214        1.9645  -24.2171  -55.2583 H         1 UNK         0.0600 
    215 H215       -0.9782  -21.6955  -53.5926 H         1 UNK         0.3000 
    216 H216       -2.6173  -20.6425  -55.7006 H         1 UNK         0.0600 
    217 H217       -3.0977  -18.8682  -54.0786 H         1 UNK         0.0600 
    218 H218       -1.3886  -19.2465  -54.0015 H         1 UNK         0.0600 
    219 H219       -2.4783  -19.8381  -52.7485 H         1 UNK         0.0600 
    220 H220       -3.2429  -23.0922  -53.3811 H         1 UNK         0.3000 
    221 H221       -5.9925  -22.8821  -52.8924 H         1 UNK         0.0600 
    222 H222       -4.3262  -25.4112  -53.3878 H         1 UNK         0.0600 
    223 H223       -4.4352  -24.5612  -51.8538 H         1 UNK         0.0600 
    224 H224       -5.8624  -25.3344  -52.5302 H         1 UNK         0.0600 
    225 H225       -4.2931  -23.9394  -55.8211 H         1 UNK         0.3000 
    226 H226       -6.5541  -24.9661  -57.2636 H         1 UNK         0.0600 
    227 H227       -4.2038  -25.5682  -57.8092 H         1 UNK         0.0600 
    228 H228       -4.9814  -24.8289  -59.2001 H         1 UNK         0.0600 
    229 H229       -3.8484  -23.8934  -58.2312 H         1 UNK         0.0600 
    230 H230       -5.5153  -21.7206  -56.5468 H         1 UNK         0.3000 
    231 H231       -7.1995  -20.4991  -58.6743 H         1 UNK         0.0600 
    232 H232       -5.9993  -18.4318  -58.1047 H         1 UNK         0.0600 
    233 H233       -4.8274  -19.6944  -58.4402 H         1 UNK         0.0600 
    234 H234       -5.1615  -19.2192  -56.7758 H         1 UNK         0.0600 
    235 H235       -7.8290  -21.8797  -55.8697 H         1 UNK         0.3000 
    236 H236       -9.3866  -21.8210  -54.3394 H         1 UNK         0.0600 
    237 H237      -10.7198  -19.5145  -55.8446 H         1 UNK         0.0600 
    238 H238      -10.9202  -21.2241  -56.2285 H         1 UNK         0.0600 
    239 H239      -11.4770  -20.5970  -54.6870 H         1 UNK         0.0600 
    240 H240       -6.9539  -20.3052  -53.9004 H         1 UNK         0.3000 
    241 H241       -7.5128  -18.0626  -52.2081 H         1 UNK         0.0600 
    242 H242       -7.7815  -21.5633  -51.5295 H         1 UNK         0.3800 
    243 H243       -8.0831  -21.3519  -49.8270 H         1 UNK         0.3800 
    244 H244       -5.3221  -18.6008  -53.3241 H         1 UNK         0.0800 
    245 H245       -5.0813  -19.9078  -52.2056 H         1 UNK         0.0800 
    246 H246       -4.8783  -19.0165  -49.1714 H         1 UNK         0.0800 
    247 H247       -3.8747  -19.8155  -50.3483 H         1 UNK         0.0800 
@<TRIPOS>BOND
     1    1    2 1    
     2    1  127 1    
     3    1  128 1    
     4    1  129 1    
     5    2    3 2    
     6    2    4 am   BACKBONE|DICT|INTERRES
     7    4    5 1    
     8    4  130 1    
     9    5    6 1    
    10    5   65 1    
    11    5  131 1    
    12    6    7 1    
    13    6  132 1    
    14    6  133 1    
    15    7    8 1    
    16    8    9 1    
    17    8  134 1    
    18    8  135 1    
    19    9   10 ar   
    20    9   14 ar   
    21   10   11 ar   
    22   10  136 1    
    23   11   12 ar   
    24   11  126 1    
    25   12   13 ar   
    26   12  137 1    
    27   13   14 ar   
    28   13   15 1    
    29   14  138 1    
    30   15   16 1    
    31   15  139 1    
    32   15  140 1    
    33   16   17 1    
    34   17   18 1    
    35   17  141 1    
    36   17  142 1    
    37   18   19 1    
    38   18   67 1    
    39   18  143 1    
    40   19   20 am   BACKBONE|DICT|INTERRES
    41   19  144 1    
    42   20   21 2    
    43   20   22 1    
    44   22   23 1    
    45   22   24 1    
    46   22  145 1    
    47   23  146 1    
    48   23  147 1    
    49   23  148 1    
    50   24   25 am   BACKBONE|DICT|INTERRES
    51   24  149 1    
    52   25   26 2    
    53   25   27 1    
    54   27   28 1    
    55   27   29 1    
    56   27  150 1    
    57   28  151 1    
    58   28  152 1    
    59   28  153 1    
    60   29   30 am   BACKBONE|DICT|INTERRES
    61   29  154 1    
    62   30   31 2    
    63   30   32 1    
    64   32   33 1    
    65   32   34 1    
    66   32  155 1    
    67   33  156 1    
    68   33  157 1    
    69   33  158 1    
    70   34   35 am   BACKBONE|DICT|INTERRES
    71   34  159 1    
    72   35   36 2    
    73   35   37 1    
    74   37   38 1    
    75   37   39 1    
    76   37  160 1    
    77   38  161 1    
    78   38  162 1    
    79   38  163 1    
    80   39   40 am   BACKBONE|DICT|INTERRES
    81   39  164 1    
    82   40   41 2    
    83   40   42 1    
    84   42   43 1    
    85   42   44 1    
    86   42  165 1    
    87   43  166 1    
    88   43  167 1    
    89   43  168 1    
    90   44   45 am   BACKBONE|DICT|INTERRES
    91   44  169 1    
    92   45   46 2    
    93   45   47 1    
    94   47   48 1    
    95   47   49 1    
    96   47  170 1    
    97   48  171 1    
    98   48  172 1    
    99   48  173 1    
   100   49   50 am   BACKBONE|DICT|INTERRES
   101   49  174 1    
   102   50   51 2    
   103   50   52 1    
   104   52   53 1    
   105   52   54 1    
   106   52  175 1    
   107   53  176 1    
   108   53  177 1    
   109   53  178 1    
   110   54   55 am   BACKBONE|DICT|INTERRES
   111   54  179 1    
   112   55   56 2    
   113   55   57 1    
   114   57   58 1    
   115   57   59 1    
   116   57  180 1    
   117   58  181 1    
   118   58  182 1    
   119   58  183 1    
   120   59   60 am   BACKBONE|DICT|INTERRES
   121   59  184 1    
   122   60   61 2    
   123   60   62 1    
   124   62   63 1    
   125   62   64 1    
   126   62  185 1    
   127   63  186 1    
   128   63  187 1    
   129   63  188 1    
   130   64   65 am   BACKBONE|DICT|INTERRES
   131   64  189 1    
   132   65   66 2    
   133   67   68 2    
   134   67   69 am   BACKBONE|DICT|INTERRES
   135   69   70 1    
   136   69  190 1    
   137   70   71 1    
   138   70   72 1    
   139   70  191 1    
   140   71  192 1    
   141   71  193 1    
   142   71  194 1    
   143   72   73 2    
   144   72   74 am   BACKBONE|DICT|INTERRES
   145   74   75 1    
   146   74  195 1    
   147   75   76 1    
   148   75   77 1    
   149   75  196 1    
   150   76  197 1    
   151   76  198 1    
   152   76  199 1    
   153   77   78 2    
   154   77   79 am   BACKBONE|DICT|INTERRES
   155   79   80 1    
   156   79  200 1    
   157   80   81 1    
   158   80   82 1    
   159   80  201 1    
   160   81  202 1    
   161   81  203 1    
   162   81  204 1    
   163   82   83 2    
   164   82   84 am   BACKBONE|DICT|INTERRES
   165   84   85 1    
   166   84  205 1    
   167   85   86 1    
   168   85   87 1    
   169   85  206 1    
   170   86  207 1    
   171   86  208 1    
   172   86  209 1    
   173   87   88 2    
   174   87   89 am   BACKBONE|DICT|INTERRES
   175   89   90 1    
   176   89  210 1    
   177   90   91 1    
   178   90   92 1    
   179   90  211 1    
   180   91  212 1    
   181   91  213 1    
   182   91  214 1    
   183   92   93 2    
   184   92   94 am   BACKBONE|DICT|INTERRES
   185   94   95 1    
   186   94  215 1    
   187   95   96 1    
   188   95   97 1    
   189   95  216 1    
   190   96  217 1    
   191   96  218 1    
   192   96  219 1    
   193   97   98 2    
   194   97   99 am   BACKBONE|DICT|INTERRES
   195   99  100 1    
   196   99  220 1    
   197  100  101 1    
   198  100  102 1    
   199  100  221 1    
   200  101  222 1    
   201  101  223 1    
   202  101  224 1    
   203  102  103 2    
   204  102  104 am   BACKBONE|DICT|INTERRES
   205  104  105 1    
   206  104  225 1    
   207  105  106 1    
   208  105  107 1    
   209  105  226 1    
   210  106  227 1    
   211  106  228 1    
   212  106  229 1    
   213  107  108 2    
   214  107  109 am   BACKBONE|DICT|INTERRES
   215  109  110 1    
   216  109  230 1    
   217  110  111 1    
   218  110  112 1    
   219  110  231 1    
   220  111  232 1    
   221  111  233 1    
   222  111  234 1    
   223  112  113 2    
   224  112  114 am   BACKBONE|DICT|INTERRES
   225  114  115 1    
   226  114  235 1    
   227  115  116 1    
   228  115  117 1    
   229  115  236 1    
   230  116  237 1    
   231  116  238 1    
   232  116  239 1    
   233  117  118 2    
   234  117  119 am   BACKBONE|DICT|INTERRES
   235  119  120 1    
   236  119  240 1    
   237  120  121 1    
   238  120  124 1    
   239  120  241 1    
   240  121  122 am   BACKBONE|DICT|INTERRES
   241  121  123 2    
   242  122  242 1    
   243  122  243 1    
   244  124  125 1    
   245  124  244 1    
   246  124  245 1    
   247  125  126 1    
   248  126  246 1    
   249  126  247 1    
@<TRIPOS>SUBSTRUCTURE
     1 UNK         1 GROUP             0       ****    0 ROOT    
