@<TRIPOS>MOLECULE
3R540
247   249    1
SMALL
USER_CHARGES


@<TRIPOS>ATOM
      1 CA         -0.9909   -9.8491  -47.6000 C.3       0 UNK        -0.1800 
      2 C          -0.0867  -11.0721  -47.5604 C.2       0 UNK         0.5000 
      3 O          -0.0103  -11.7438  -46.5330 O.2       0 UNK        -0.5000 
      4 N           0.5862  -11.3757  -48.6790 N.am      1 UNK        -0.5000 
      5 CA          1.5242  -12.4981  -48.8378 C.3       1 UNK         0.1400 
      6 C6          2.2294  -12.4272  -50.2146 C.3       23 UNK        -0.0398 
      7 S7          3.7684  -13.4052  -50.2943 S.3       23 UNK        -0.2404 
      8 C8          3.4960  -14.4115  -51.7881 C.3       23 UNK        -0.0205 
      9 C9          2.3940  -15.4453  -51.6048 C.ar      23 UNK        -0.0193 
     10 C10         1.1472  -15.2679  -52.2112 C.ar      23 UNK        -0.1150 
     11 C11         0.1435  -16.2294  -52.0657 C.ar      23 UNK        -0.0193 
     12 C12         0.3981  -17.3837  -51.3199 C.ar      23 UNK        -0.1150 
     13 C13         1.6355  -17.5646  -50.6930 C.ar      23 UNK        -0.0193 
     14 C14         2.6289  -16.5924  -50.8425 C.ar      23 UNK        -0.1150 
     15 C15         1.9102  -18.8079  -49.8595 C.3       23 UNK        -0.0205 
     16 S16         1.0691  -18.7392  -48.2452 S.3       23 UNK        -0.2404 
     17 C17        -0.5741  -19.4083  -48.6654 C.3       23 UNK        -0.0398 
     18 CA         -1.1781  -20.2446  -47.5142 C.3       11 UNK         0.1400 
     19 N          -1.4770  -19.4254  -46.3342 N.am      11 UNK        -0.5000 
     20 C          -1.9452  -19.8931  -45.1725 C.2       10 UNK         0.5000 
     21 O          -2.2110  -21.0808  -44.9779 O.2       10 UNK        -0.5000 
     22 CA         -2.2344  -18.8550  -44.0739 C.3       10 UNK         0.1400 
     23 CB         -3.6002  -18.1909  -44.3122 C.3       10 UNK        -0.1800 
     24 N          -2.2436  -19.4667  -42.7455 N.am      10 UNK        -0.5000 
     25 C          -1.1643  -19.9695  -42.1358 C.2       9 UNK         0.5000 
     26 O          -0.0166  -19.8833  -42.5776 O.2       9 UNK        -0.5000 
     27 CA         -1.4213  -20.7447  -40.8347 C.3       9 UNK         0.1400 
     28 CB         -1.5150  -22.2517  -41.1244 C.3       9 UNK        -0.1800 
     29 N          -0.3361  -20.5061  -39.8881 N.am      9 UNK        -0.5000 
     30 C          -0.2757  -19.4637  -39.0498 C.2       8 UNK         0.5000 
     31 O          -1.1899  -18.6524  -38.8968 O.2       8 UNK        -0.5000 
     32 CA          1.0299  -19.2975  -38.2487 C.3       8 UNK         0.1400 
     33 CB          0.9374  -20.0385  -36.9057 C.3       8 UNK        -0.1800 
     34 N           2.2077  -19.7719  -38.9805 N.am      8 UNK        -0.5000 
     35 C           2.7587  -19.1244  -40.0148 C.2       7 UNK         0.5000 
     36 O           2.3537  -18.0403  -40.4434 O.2       7 UNK        -0.5000 
     37 CA          3.9559  -19.8130  -40.6865 C.3       7 UNK         0.1400 
     38 CB          3.4742  -20.7992  -41.7627 C.3       7 UNK        -0.1800 
     39 N           4.7829  -18.7920  -41.3183 N.am      7 UNK        -0.5000 
     40 C           6.0598  -18.5204  -41.0269 C.2       6 UNK         0.5000 
     41 O           6.7471  -19.1934  -40.2575 O.2       6 UNK        -0.5000 
     42 CA          6.6756  -17.2792  -41.7045 C.3       6 UNK         0.1400 
     43 CB          7.5630  -17.6971  -42.8870 C.3       6 UNK        -0.1800 
     44 N           5.6670  -16.3336  -42.1863 N.am      6 UNK        -0.5000 
     45 C           4.9236  -15.5257  -41.4214 C.2       5 UNK         0.5000 
     46 O           5.0659  -15.4279  -40.2021 O.2       5 UNK        -0.5000 
     47 CA          3.8209  -14.7063  -42.1235 C.3       5 UNK         0.1400 
     48 CB          4.3843  -13.3946  -42.7013 C.3       5 UNK        -0.1800 
     49 N           3.0493  -15.4455  -43.1338 N.am      5 UNK        -0.5000 
     50 C           3.4380  -15.9544  -44.3110 C.2       4 UNK         0.5000 
     51 O           4.5908  -15.8899  -44.7388 O.2       4 UNK        -0.5000 
     52 CA          2.3677  -16.6734  -45.1506 C.3       4 UNK         0.1400 
     53 CB          2.1361  -18.1079  -44.6369 C.3       4 UNK        -0.1800 
     54 N           1.1097  -15.9292  -45.2828 N.am      4 UNK        -0.5000 
     55 C           0.1668  -15.6782  -44.3607 C.2       3 UNK         0.5000 
     56 O           0.2570  -16.0266  -43.1837 O.2       3 UNK        -0.5000 
     57 CA         -1.0866  -14.8941  -44.8073 C.3       3 UNK         0.1400 
     58 CB         -1.1892  -13.5610  -44.0500 C.3       3 UNK        -0.1800 
     59 N          -1.1290  -14.6342  -46.2484 N.am      3 UNK        -0.5000 
     60 C          -1.4217  -15.5580  -47.1764 C.2       2 UNK         0.5000 
     61 O          -1.7767  -16.7017  -46.8958 O.2       2 UNK        -0.5000 
     62 CA         -1.2659  -15.1701  -48.6613 C.3       2 UNK         0.1400 
     63 CB         -2.6435  -14.9453  -49.3021 C.3       2 UNK        -0.1800 
     64 N          -0.4319  -13.9898  -48.8989 N.am      2 UNK        -0.5000 
     65 C           0.8674  -13.8762  -48.5825 C.2       1 UNK         0.5000 
     66 O           1.5140  -14.7722  -48.0385 O.2       1 UNK        -0.5000 
     67 C          -2.4228  -21.0063  -48.0083 C.2       11 UNK         0.5000 
     68 O          -2.3355  -22.1998  -48.2917 O.2       11 UNK        -0.5000 
     69 N          -3.5680  -20.3111  -48.0409 N.am      12 UNK        -0.5000 
     70 CA         -4.8593  -20.8676  -48.4403 C.3       12 UNK         0.1400 
     71 CB         -5.8459  -19.7130  -48.6715 C.3       12 UNK        -0.1800 
     72 C          -5.4349  -21.8854  -47.4345 C.2       12 UNK         0.5000 
     73 O          -6.2300  -22.7387  -47.8276 O.2       12 UNK        -0.5000 
     74 N          -5.0294  -21.7849  -46.1609 N.am      13 UNK        -0.5000 
     75 CA         -5.3651  -22.7554  -45.1196 C.3       13 UNK         0.1400 
     76 CB         -5.2900  -22.0808  -43.7401 C.3       13 UNK        -0.1800 
     77 C          -4.4368  -23.9808  -45.1860 C.2       13 UNK         0.5000 
     78 O          -4.8976  -25.1046  -44.9833 O.2       13 UNK        -0.5000 
     79 N          -3.1506  -23.7394  -45.4747 N.am      14 UNK        -0.5000 
     80 CA         -2.1083  -24.7544  -45.5985 C.3       14 UNK         0.1400 
     81 CB         -0.7335  -24.0695  -45.6373 C.3       14 UNK        -0.1800 
     82 C          -2.2926  -25.6806  -46.8146 C.2       14 UNK         0.5000 
     83 O          -2.0254  -26.8774  -46.6923 O.2       14 UNK        -0.5000 
     84 N          -2.7445  -25.1357  -47.9529 N.am      15 UNK        -0.5000 
     85 CA         -2.9729  -25.8938  -49.1792 C.3       15 UNK         0.1400 
     86 CB         -1.6806  -25.9354  -50.0136 C.3       15 UNK        -0.1800 
     87 C          -4.1223  -25.2888  -49.9939 C.2       15 UNK         0.5000 
     88 O          -4.1309  -24.0839  -50.2535 O.2       15 UNK        -0.5000 
     89 N          -5.0303  -26.1549  -50.4629 N.am      16 UNK        -0.5000 
     90 CA         -6.1142  -25.8014  -51.3839 C.3       16 UNK         0.1400 
     91 CB         -7.1053  -26.9705  -51.4764 C.3       16 UNK        -0.1800 
     92 C          -5.6000  -25.4160  -52.7846 C.2       16 UNK         0.5000 
     93 O          -6.2179  -24.5892  -53.4536 O.2       16 UNK        -0.5000 
     94 N          -4.4542  -25.9851  -53.1873 N.am      17 UNK        -0.5000 
     95 CA         -3.7448  -25.6384  -54.4199 C.3       17 UNK         0.1400 
     96 CB         -2.6027  -26.6395  -54.6483 C.3       17 UNK        -0.1800 
     97 C          -3.2070  -24.1956  -54.4008 C.2       17 UNK         0.5000 
     98 O          -3.2515  -23.5174  -55.4268 O.2       17 UNK        -0.5000 
     99 N          -2.7495  -23.7391  -53.2254 N.am      18 UNK        -0.5000 
    100 CA        -2.3320  -22.3576  -52.9976 C.3       18 UNK         0.1400 
    101 CB        -1.4948  -22.2603  -51.7160 C.3       18 UNK        -0.1800 
    102 C         -3.5377  -21.4054  -52.9530 C.2       18 UNK         0.5000 
    103 O         -3.4617  -20.3310  -53.5436 O.2       18 UNK        -0.5000 
    104 N         -4.6411  -21.8389  -52.3204 N.am      19 UNK        -0.5000 
    105 CA        -5.9185  -21.1151  -52.2778 C.3       19 UNK         0.1400 
    106 CB        -6.9304  -21.8868  -51.4131 C.3       19 UNK        -0.1800 
    107 C         -6.5172  -20.8687  -53.6761 C.2       19 UNK         0.5000 
    108 O         -7.0554  -19.7916  -53.9332 O.2       19 UNK        -0.5000 
    109 N         -6.4018  -21.8733  -54.5553 N.am      20 UNK        -0.5000 
    110 CA        -6.8079  -21.8035  -55.9573 C.3       20 UNK         0.1400 
    111 CB        -6.8136  -23.2206  -56.5505 C.3       20 UNK        -0.1800 
    112 C         -5.9149  -20.8680  -56.7946 C.2       20 UNK         0.5000 
    113 O         -6.4101  -20.2510  -57.7387 O.2       20 UNK        -0.5000 
    114 N         -4.6245  -20.7794  -56.4429 N.am      21 UNK        -0.5000 
    115 CA        -3.6485  -19.9132  -57.0997 C.3       21 UNK         0.1400 
    116 CB        -2.2229  -20.3932  -56.7838 C.3       21 UNK        -0.1800 
    117 C         -3.8322  -18.4327  -56.7233 C.2       21 UNK         0.5000 
    118 O         -3.8394  -17.5854  -57.6180 O.2       21 UNK        -0.5000 
    119 N         -3.9853  -18.1410  -55.4256 N.am      22 UNK        -0.5000 
    120 CA        -4.1189  -16.7782  -54.8927 C.3       22 UNK         0.1400 
    121 C         -4.7009  -16.7418  -53.4537 C.2       22 UNK         0.5000 
    122 N         -5.2446  -15.6070  -53.0332 N.am      22 UNK        -0.7600 
    123 O         -4.6485  -17.7072  -52.6990 O.2       22 UNK        -0.5000 
    124 C124       -2.8128  -15.9401  -55.0217 C.3       23 UNK        -0.0398 
    125 S125       -1.3039  -16.7377  -54.3619 S.3       23 UNK        -0.2404 
    126 C126       -1.2192  -16.0076  -52.7004 C.3       23 UNK        -0.0205 
    127 H127       -0.6760   -9.1265  -46.8471 H         1 UNK         0.0600 
    128 H128       -2.0203  -10.1375  -47.3874 H         1 UNK         0.0600 
    129 H129       -0.9684   -9.3585  -48.5733 H         1 UNK         0.0600 
    130 H130        0.4724  -10.7826  -49.4889 H         1 UNK         0.3000 
    131 H131        2.2849  -12.3668  -48.0651 H         1 UNK         0.0600 
    132 H132        1.5460  -12.7113  -51.0153 H         1 UNK         0.0800 
    133 H133        2.5156  -11.3962  -50.4276 H         1 UNK         0.0800 
    134 H134        3.2766  -13.7552  -52.6319 H         1 UNK         0.0800 
    135 H135        4.4260  -14.9239  -52.0386 H         1 UNK         0.0800 
    136 H136        0.9562  -14.3819  -52.8003 H         1 UNK         0.1150 
    137 H137       -0.3738  -18.1325  -51.2190 H         1 UNK         0.1150 
    138 H138        3.5890  -16.7244  -50.3636 H         1 UNK         0.1150 
    139 H139        1.6198  -19.7023  -50.4120 H         1 UNK         0.0800 
    140 H140        2.9816  -18.9067  -49.6787 H         1 UNK         0.0800 
    141 H141       -0.4789  -20.0241  -49.5605 H         1 UNK         0.0800 
    142 H142       -1.2322  -18.5794  -48.9308 H         1 UNK         0.0800 
    143 H143       -0.4435  -20.9941  -47.2124 H         1 UNK         0.0600 
    144 H144       -1.3730  -18.4197  -46.4566 H         1 UNK         0.3000 
    145 H145       -1.4530  -18.0949  -44.1021 H         1 UNK         0.0600 
    146 H146       -3.7983  -17.4211  -43.5662 H         1 UNK         0.0600 
    147 H147       -3.6435  -17.7093  -45.2892 H         1 UNK         0.0600 
    148 H148       -4.4139  -18.9162  -44.2707 H         1 UNK         0.0600 
    149 H149       -3.1505  -19.6102  -42.3277 H         1 UNK         0.3000 
    150 H150       -2.3675  -20.4171  -40.3981 H         1 UNK         0.0600 
    151 H151       -0.5933  -22.6360  -41.5634 H         1 UNK         0.0600 
    152 H152       -2.3231  -22.4649  -41.8258 H         1 UNK         0.0600 
    153 H153       -1.7157  -22.8171  -40.2143 H         1 UNK         0.0600 
    154 H154        0.4834  -21.0847  -39.9921 H         1 UNK         0.3000 
    155 H155        1.1574  -18.2329  -38.0402 H         1 UNK         0.0600 
    156 H156        0.8229  -21.1142  -37.0450 H         1 UNK         0.0600 
    157 H157        0.0815  -19.6898  -36.3263 H         1 UNK         0.0600 
    158 H158        1.8282  -19.8703  -36.3001 H         1 UNK         0.0600 
    159 H159        2.6025  -20.6516  -38.6800 H         1 UNK         0.3000 
    160 H160        4.5210  -20.3570  -39.9268 H         1 UNK         0.0600 
    161 H161        2.8691  -20.3029  -42.5227 H         1 UNK         0.0600 
    162 H162        2.8643  -21.5906  -41.3257 H         1 UNK         0.0600 
    163 H163        4.3160  -21.2764  -42.2644 H         1 UNK         0.0600 
    164 H164        4.2776  -18.1286  -41.8883 H         1 UNK         0.3000 
    165 H165        7.3006  -16.7736  -40.9655 H         1 UNK         0.0600 
    166 H166        8.3460  -18.3851  -42.5654 H         1 UNK         0.0600 
    167 H167        6.9850  -18.1963  -43.6658 H         1 UNK         0.0600 
    168 H168        8.0543  -16.8334  -43.3355 H         1 UNK         0.0600 
    169 H169        5.4866  -16.3175  -43.1875 H         1 UNK         0.3000 
    170 H170        3.0983  -14.4376  -41.3513 H         1 UNK         0.0600 
    171 H171        4.8629  -12.8011  -41.9214 H         1 UNK         0.0600 
    172 H172        5.1308  -13.5758  -43.4750 H         1 UNK         0.0600 
    173 H173        3.5927  -12.7836  -43.1353 H         1 UNK         0.0600 
    174 H174        2.0763  -15.6151  -42.8878 H         1 UNK         0.3000 
    175 H175        2.7606  -16.7510  -46.1659 H         1 UNK         0.0600 
    176 H176        1.3661  -18.6196  -45.2140 H         1 UNK         0.0600 
    177 H177        3.0489  -18.6993  -44.7147 H         1 UNK         0.0600 
    178 H178        1.8303  -18.1232  -43.5903 H         1 UNK         0.0600 
    179 H179        0.9671  -15.5407  -46.2098 H         1 UNK         0.3000 
    180 H180       -1.9574  -15.4970  -44.5419 H         1 UNK         0.0600 
    181 H181       -0.2991  -12.9478  -44.1936 H         1 UNK         0.0600 
    182 H182       -1.2977  -13.7292  -42.9779 H         1 UNK         0.0600 
    183 H183       -2.0538  -12.9830  -44.3768 H         1 UNK         0.0600 
    184 H184       -0.8205  -13.7149  -46.5452 H         1 UNK         0.3000 
    185 H185       -0.7870  -16.0138  -49.1599 H         1 UNK         0.0600 
    186 H186       -3.2647  -15.8380  -49.2158 H         1 UNK         0.0600 
    187 H187       -3.1788  -14.1243  -48.8235 H         1 UNK         0.0600 
    188 H188       -2.5566  -14.7136  -50.3631 H         1 UNK         0.0600 
    189 H189       -0.8923  -13.1888  -49.3051 H         1 UNK         0.3000 
    190 H190       -3.5543  -19.3387  -47.7695 H         1 UNK         0.3000 
    191 H191       -4.7076  -21.3915  -49.3852 H         1 UNK         0.0600 
    192 H192       -5.4927  -19.0440  -49.4567 H         1 UNK         0.0600 
    193 H193       -6.8229  -20.0870  -48.9798 H         1 UNK         0.0600 
    194 H194       -5.9929  -19.1227  -47.7662 H         1 UNK         0.0600 
    195 H195       -4.3379  -21.0882  -45.9251 H         1 UNK         0.3000 
    196 H196       -6.3910  -23.1001  -45.2669 H         1 UNK         0.0600 
    197 H197       -5.5874  -22.7751  -42.9534 H         1 UNK         0.0600 
    198 H198       -5.9584  -21.2215  -43.6847 H         1 UNK         0.0600 
    199 H199       -4.2826  -21.7377  -43.5061 H         1 UNK         0.0600 
    200 H200       -2.8448  -22.7739  -45.5543 H         1 UNK         0.3000 
    201 H201       -2.1468  -25.3766  -44.7019 H         1 UNK         0.0600 
    202 H202        0.0691  -24.8066  -45.6810 H         1 UNK         0.0600 
    203 H203       -0.6316  -23.4215  -46.5079 H         1 UNK         0.0600 
    204 H204       -0.5699  -23.4614  -44.7471 H         1 UNK         0.0600 
    205 H205       -2.9081  -24.1334  -48.0101 H         1 UNK         0.3000 
    206 H206       -3.2511  -26.9185  -48.9233 H         1 UNK         0.0600 
    207 H207       -0.8833  -26.4518  -49.4789 H         1 UNK         0.0600 
    208 H208       -1.8340  -26.4641  -50.9551 H         1 UNK         0.0600 
    209 H209       -1.3253  -24.9321  -50.2504 H         1 UNK         0.0600 
    210 H210       -4.9582  -27.1297  -50.2087 H         1 UNK         0.3000 
    211 H211       -6.6409  -24.9380  -50.9727 H         1 UNK         0.0600 
    212 H212       -6.6313  -27.8725  -51.8655 H         1 UNK         0.0600 
    213 H213       -7.9368  -26.7247  -52.1385 H         1 UNK         0.0600 
    214 H214       -7.5285  -27.2069  -50.4999 H         1 UNK         0.0600 
    215 H215       -4.0205  -26.6708  -52.5879 H         1 UNK         0.3000 
    216 H216       -4.4474  -25.7216  -55.2520 H         1 UNK         0.0600 
    217 H217       -2.0669  -26.4149  -55.5716 H         1 UNK         0.0600 
    218 H218       -2.9823  -27.6578  -54.7340 H         1 UNK         0.0600 
    219 H219       -1.8772  -26.6182  -53.8341 H         1 UNK         0.0600 
    220 H220       -2.7861  -24.3421  -52.4176 H         1 UNK         0.3000 
    221 H221       -1.6961  -22.0505  -53.8310 H         1 UNK         0.0600 
    222 H222       -2.0657  -22.5641  -50.8407 H         1 UNK         0.0600 
    223 H223       -0.6071  -22.8899  -51.7739 H         1 UNK         0.0600 
    224 H224       -1.1587  -21.2363  -51.5512 H         1 UNK         0.0600 
    225 H225       -4.5976  -22.7216  -51.8245 H         1 UNK         0.3000 
    226 H226       -5.7277  -20.1469  -51.8111 H         1 UNK         0.0600 
    227 H227       -7.7802  -21.2523  -51.1600 H         1 UNK         0.0600 
    228 H228       -7.3272  -22.7594  -51.9310 H         1 UNK         0.0600 
    229 H229       -6.4943  -22.2367  -50.4804 H         1 UNK         0.0600 
    230 H230       -6.0310  -22.7608  -54.2307 H         1 UNK         0.3000 
    231 H231       -7.8271  -21.4136  -55.9966 H         1 UNK         0.0600 
    232 H232       -5.8216  -23.6726  -56.5218 H         1 UNK         0.0600 
    233 H233       -7.1397  -23.2078  -57.5912 H         1 UNK         0.0600 
    234 H234       -7.4940  -23.8740  -56.0038 H         1 UNK         0.0600 
    235 H235       -4.2954  -21.3208  -55.6549 H         1 UNK         0.3000 
    236 H236       -3.7907  -20.0015  -58.1790 H         1 UNK         0.0600 
    237 H237       -2.0818  -21.4332  -57.0785 H         1 UNK         0.0600 
    238 H238       -1.4857  -19.7981  -57.3239 H         1 UNK         0.0600 
    239 H239       -1.9898  -20.3114  -55.7226 H         1 UNK         0.0600 
    240 H240       -3.9543  -18.8796  -54.7246 H         1 UNK         0.3000 
    241 H241       -4.8773  -16.2918  -55.5096 H         1 UNK         0.0600 
    242 H242       -5.3129  -14.7945  -53.6260 H         1 UNK         0.3800 
    243 H243       -5.6215  -15.5692  -52.0994 H         1 UNK         0.3800 
    244 H244       -2.9362  -14.9537  -54.5725 H         1 UNK         0.0800 
    245 H245       -2.6238  -15.7382  -56.0763 H         1 UNK         0.0800 
    246 H246       -1.4286  -14.9382  -52.7522 H         1 UNK         0.0800 
    247 H247       -1.9985  -16.4466  -52.0758 H         1 UNK         0.0800 
@<TRIPOS>BOND
     1    1    2 1    
     2    1  127 1    
     3    1  128 1    
     4    1  129 1    
     5    2    3 2    
     6    2    4 am   BACKBONE|DICT|INTERRES
     7    4    5 1    
     8    4  130 1    
     9    5    6 1    
    10    5   65 1    
    11    5  131 1    
    12    6    7 1    
    13    6  132 1    
    14    6  133 1    
    15    7    8 1    
    16    8    9 1    
    17    8  134 1    
    18    8  135 1    
    19    9   10 ar   
    20    9   14 ar   
    21   10   11 ar   
    22   10  136 1    
    23   11   12 ar   
    24   11  126 1    
    25   12   13 ar   
    26   12  137 1    
    27   13   14 ar   
    28   13   15 1    
    29   14  138 1    
    30   15   16 1    
    31   15  139 1    
    32   15  140 1    
    33   16   17 1    
    34   17   18 1    
    35   17  141 1    
    36   17  142 1    
    37   18   19 1    
    38   18   67 1    
    39   18  143 1    
    40   19   20 am   BACKBONE|DICT|INTERRES
    41   19  144 1    
    42   20   21 2    
    43   20   22 1    
    44   22   23 1    
    45   22   24 1    
    46   22  145 1    
    47   23  146 1    
    48   23  147 1    
    49   23  148 1    
    50   24   25 am   BACKBONE|DICT|INTERRES
    51   24  149 1    
    52   25   26 2    
    53   25   27 1    
    54   27   28 1    
    55   27   29 1    
    56   27  150 1    
    57   28  151 1    
    58   28  152 1    
    59   28  153 1    
    60   29   30 am   BACKBONE|DICT|INTERRES
    61   29  154 1    
    62   30   31 2    
    63   30   32 1    
    64   32   33 1    
    65   32   34 1    
    66   32  155 1    
    67   33  156 1    
    68   33  157 1    
    69   33  158 1    
    70   34   35 am   BACKBONE|DICT|INTERRES
    71   34  159 1    
    72   35   36 2    
    73   35   37 1    
    74   37   38 1    
    75   37   39 1    
    76   37  160 1    
    77   38  161 1    
    78   38  162 1    
    79   38  163 1    
    80   39   40 am   BACKBONE|DICT|INTERRES
    81   39  164 1    
    82   40   41 2    
    83   40   42 1    
    84   42   43 1    
    85   42   44 1    
    86   42  165 1    
    87   43  166 1    
    88   43  167 1    
    89   43  168 1    
    90   44   45 am   BACKBONE|DICT|INTERRES
    91   44  169 1    
    92   45   46 2    
    93   45   47 1    
    94   47   48 1    
    95   47   49 1    
    96   47  170 1    
    97   48  171 1    
    98   48  172 1    
    99   48  173 1    
   100   49   50 am   BACKBONE|DICT|INTERRES
   101   49  174 1    
   102   50   51 2    
   103   50   52 1    
   104   52   53 1    
   105   52   54 1    
   106   52  175 1    
   107   53  176 1    
   108   53  177 1    
   109   53  178 1    
   110   54   55 am   BACKBONE|DICT|INTERRES
   111   54  179 1    
   112   55   56 2    
   113   55   57 1    
   114   57   58 1    
   115   57   59 1    
   116   57  180 1    
   117   58  181 1    
   118   58  182 1    
   119   58  183 1    
   120   59   60 am   BACKBONE|DICT|INTERRES
   121   59  184 1    
   122   60   61 2    
   123   60   62 1    
   124   62   63 1    
   125   62   64 1    
   126   62  185 1    
   127   63  186 1    
   128   63  187 1    
   129   63  188 1    
   130   64   65 am   BACKBONE|DICT|INTERRES
   131   64  189 1    
   132   65   66 2    
   133   67   68 2    
   134   67   69 am   BACKBONE|DICT|INTERRES
   135   69   70 1    
   136   69  190 1    
   137   70   71 1    
   138   70   72 1    
   139   70  191 1    
   140   71  192 1    
   141   71  193 1    
   142   71  194 1    
   143   72   73 2    
   144   72   74 am   BACKBONE|DICT|INTERRES
   145   74   75 1    
   146   74  195 1    
   147   75   76 1    
   148   75   77 1    
   149   75  196 1    
   150   76  197 1    
   151   76  198 1    
   152   76  199 1    
   153   77   78 2    
   154   77   79 am   BACKBONE|DICT|INTERRES
   155   79   80 1    
   156   79  200 1    
   157   80   81 1    
   158   80   82 1    
   159   80  201 1    
   160   81  202 1    
   161   81  203 1    
   162   81  204 1    
   163   82   83 2    
   164   82   84 am   BACKBONE|DICT|INTERRES
   165   84   85 1    
   166   84  205 1    
   167   85   86 1    
   168   85   87 1    
   169   85  206 1    
   170   86  207 1    
   171   86  208 1    
   172   86  209 1    
   173   87   88 2    
   174   87   89 am   BACKBONE|DICT|INTERRES
   175   89   90 1    
   176   89  210 1    
   177   90   91 1    
   178   90   92 1    
   179   90  211 1    
   180   91  212 1    
   181   91  213 1    
   182   91  214 1    
   183   92   93 2    
   184   92   94 am   BACKBONE|DICT|INTERRES
   185   94   95 1    
   186   94  215 1    
   187   95   96 1    
   188   95   97 1    
   189   95  216 1    
   190   96  217 1    
   191   96  218 1    
   192   96  219 1    
   193   97   98 2    
   194   97   99 am   BACKBONE|DICT|INTERRES
   195   99  100 1    
   196   99  220 1    
   197  100  101 1    
   198  100  102 1    
   199  100  221 1    
   200  101  222 1    
   201  101  223 1    
   202  101  224 1    
   203  102  103 2    
   204  102  104 am   BACKBONE|DICT|INTERRES
   205  104  105 1    
   206  104  225 1    
   207  105  106 1    
   208  105  107 1    
   209  105  226 1    
   210  106  227 1    
   211  106  228 1    
   212  106  229 1    
   213  107  108 2    
   214  107  109 am   BACKBONE|DICT|INTERRES
   215  109  110 1    
   216  109  230 1    
   217  110  111 1    
   218  110  112 1    
   219  110  231 1    
   220  111  232 1    
   221  111  233 1    
   222  111  234 1    
   223  112  113 2    
   224  112  114 am   BACKBONE|DICT|INTERRES
   225  114  115 1    
   226  114  235 1    
   227  115  116 1    
   228  115  117 1    
   229  115  236 1    
   230  116  237 1    
   231  116  238 1    
   232  116  239 1    
   233  117  118 2    
   234  117  119 am   BACKBONE|DICT|INTERRES
   235  119  120 1    
   236  119  240 1    
   237  120  121 1    
   238  120  124 1    
   239  120  241 1    
   240  121  122 am   BACKBONE|DICT|INTERRES
   241  121  123 2    
   242  122  242 1    
   243  122  243 1    
   244  124  125 1    
   245  124  244 1    
   246  124  245 1    
   247  125  126 1    
   248  126  246 1    
   249  126  247 1    
@<TRIPOS>SUBSTRUCTURE
     1 UNK         1 GROUP             0       ****    0 ROOT    
