@<TRIPOS>MOLECULE
3R540
247   249    1
SMALL
USER_CHARGES


@<TRIPOS>ATOM
      1 CA         -2.3466  -16.9999  -48.7755 C.3       0 UNK        -0.1800 
      2 C          -0.9478  -16.5261  -49.1364 C.2       0 UNK         0.5000 
      3 O          -0.7361  -16.0522  -50.2518 O.2       0 UNK        -0.5000 
      4 N           0.0079  -16.6731  -48.2108 N.am      1 UNK        -0.5000 
      5 CA          1.4113  -16.3012  -48.4103 C.3       1 UNK         0.1400 
      6 C6          2.3469  -17.1952  -47.5521 C.3       23 UNK        -0.0398 
      7 S7          4.1155  -16.7383  -47.5001 S.3       23 UNK        -0.2404 
      8 C8          4.6008  -16.7982  -49.2604 C.3       23 UNK        -0.0205 
      9 C9          4.2201  -18.1067  -49.9413 C.ar      23 UNK        -0.0193 
     10 C10         3.3020  -18.1127  -50.9976 C.ar      23 UNK        -0.1150 
     11 C11         2.9230  -19.3101  -51.6120 C.ar      23 UNK        -0.0193 
     12 C12         3.4848  -20.5085  -51.1586 C.ar      23 UNK        -0.1150 
     13 C13         4.4153  -20.5172  -50.1167 C.ar      23 UNK        -0.0193 
     14 C14         4.7820  -19.3122  -49.5129 C.ar      23 UNK        -0.1150 
     15 C15         5.0206  -21.8313  -49.6467 C.3       23 UNK        -0.0205 
     16 S16         3.7512  -23.0214  -49.1125 S.3       23 UNK        -0.2404 
     17 C17         3.1257  -22.2152  -47.6043 C.3       23 UNK        -0.0398 
     18 CA          1.7629  -22.8055  -47.1610 C.3       11 UNK         0.1400 
     19 N           1.7447  -23.1010  -45.7287 N.am      11 UNK        -0.5000 
     20 C           0.9243  -23.9799  -45.1412 C.2       10 UNK         0.5000 
     21 O           0.0902  -24.6473  -45.7513 O.2       10 UNK        -0.5000 
     22 CA          1.0379  -24.1092  -43.6108 C.3       10 UNK         0.1400 
     23 CB          2.0887  -25.1644  -43.2361 C.3       10 UNK        -0.1800 
     24 N           1.3746  -22.8395  -42.9628 N.am      10 UNK        -0.5000 
     25 C           0.5459  -21.7890  -42.9059 C.2       9 UNK         0.5000 
     26 O          -0.5953  -21.7940  -43.3662 O.2       9 UNK        -0.5000 
     27 CA          1.1019  -20.5001  -42.2765 C.3       9 UNK         0.1400 
     28 CB          0.9752  -20.5475  -40.7474 C.3       9 UNK        -0.1800 
     29 N           2.4867  -20.1831  -42.6406 N.am      9 UNK        -0.5000 
     30 C           2.9449  -20.0311  -43.8900 C.2       8 UNK         0.5000 
     31 O           2.2732  -20.2535  -44.8972 O.2       8 UNK        -0.5000 
     32 CA          4.3612  -19.4532  -44.0357 C.3       8 UNK         0.1400 
     33 CB          5.0457  -19.9049  -45.3377 C.3       8 UNK        -0.1800 
     34 N           4.2510  -17.9991  -44.0411 N.am      8 UNK        -0.5000 
     35 C           4.1517  -17.2369  -42.9449 C.2       7 UNK         0.5000 
     36 O           4.2753  -17.6627  -41.7969 O.2       7 UNK        -0.5000 
     37 CA          3.7688  -15.7666  -43.1748 C.3       7 UNK         0.1400 
     38 CB          4.9730  -14.9610  -43.6851 C.3       7 UNK        -0.1800 
     39 N           2.6746  -15.6555  -44.1428 N.am      7 UNK        -0.5000 
     40 C           1.3696  -15.8882  -43.9391 C.2       6 UNK         0.5000 
     41 O           0.5739  -15.8758  -44.8802 O.2       6 UNK        -0.5000 
     42 CA          0.8188  -16.1122  -42.5197 C.3       6 UNK         0.1400 
     43 CB          0.6366  -14.7648  -41.7938 C.3       6 UNK        -0.1800 
     44 N          -0.4736  -16.7830  -42.6429 N.am      6 UNK        -0.5000 
     45 C          -1.0943  -17.4642  -41.6734 C.2       5 UNK         0.5000 
     46 O          -0.6531  -17.5659  -40.5286 O.2       5 UNK        -0.5000 
     47 CA         -2.4265  -18.1346  -42.0518 C.3       5 UNK         0.1400 
     48 CB         -3.2362  -18.6163  -40.8325 C.3       5 UNK        -0.1800 
     49 N          -3.2347  -17.2256  -42.8617 N.am      5 UNK        -0.5000 
     50 C          -4.0885  -17.6019  -43.8210 C.2       4 UNK         0.5000 
     51 O          -4.2986  -18.7750  -44.1286 O.2       4 UNK        -0.5000 
     52 CA         -4.8371  -16.4822  -44.5729 C.3       4 UNK         0.1400 
     53 CB         -6.2484  -16.2997  -43.9938 C.3       4 UNK        -0.1800 
     54 N          -4.1556  -15.1834  -44.5836 N.am      4 UNK        -0.5000 
     55 C          -2.9758  -14.9490  -45.1713 C.2       3 UNK         0.5000 
     56 O          -2.3153  -15.8264  -45.7317 O.2       3 UNK        -0.5000 
     57 CA         -2.4393  -13.5082  -45.1131 C.3       3 UNK         0.1400 
     58 CB         -2.5167  -12.9052  -43.6968 C.3       3 UNK        -0.1800 
     59 N          -1.0580  -13.5313  -45.5769 N.am      3 UNK        -0.5000 
     60 C          -0.3995  -12.5347  -46.1800 C.2       2 UNK         0.5000 
     61 O          -0.8640  -11.4043  -46.3310 O.2       2 UNK        -0.5000 
     62 CA          1.0005  -12.8567  -46.7355 C.3       2 UNK         0.1400 
     63 CB          2.0914  -12.4761  -45.7212 C.3       2 UNK        -0.1800 
     64 N           1.1143  -14.2773  -47.0690 N.am      2 UNK        -0.5000 
     65 C           1.5885  -14.7799  -48.2123 C.2       1 UNK         0.5000 
     66 O           2.0950  -14.0989  -49.1052 O.2       1 UNK        -0.5000 
     67 C           0.5696  -21.9105  -47.5553 C.2       11 UNK         0.5000 
     68 O          -0.0538  -22.1434  -48.5892 O.2       11 UNK        -0.5000 
     69 N           0.2260  -20.9483  -46.6872 N.am      12 UNK        -0.5000 
     70 CA         -0.9750  -20.1172  -46.7758 C.3       12 UNK         0.1400 
     71 CB         -0.9302  -19.0538  -45.6691 C.3       12 UNK        -0.1800 
     72 C          -2.2740  -20.9423  -46.6902 C.2       12 UNK         0.5000 
     73 O          -3.2176  -20.6748  -47.4373 O.2       12 UNK        -0.5000 
     74 N          -2.2767  -21.9598  -45.8168 N.am      13 UNK        -0.5000 
     75 CA         -3.3491  -22.9449  -45.6948 C.3       13 UNK         0.1400 
     76 CB         -3.1578  -23.7680  -44.4127 C.3       13 UNK        -0.1800 
     77 C          -3.4528  -23.8575  -46.9312 C.2       13 UNK         0.5000 
     78 O          -4.5641  -24.1117  -47.3934 O.2       13 UNK        -0.5000 
     79 N          -2.3085  -24.2949  -47.4798 N.am      14 UNK        -0.5000 
     80 CA         -2.2269  -25.0762  -48.7208 C.3       14 UNK         0.1400 
     81 CB         -0.7942  -25.5923  -48.9206 C.3       14 UNK        -0.1800 
     82 C          -2.7032  -24.2892  -49.9587 C.2       14 UNK         0.5000 
     83 O          -3.3529  -24.8622  -50.8330 O.2       14 UNK        -0.5000 
     84 N          -2.4237  -22.9786  -49.9778 N.am      15 UNK        -0.5000 
     85 CA         -2.9422  -22.0074  -50.9442 C.3       15 UNK         0.1400 
     86 CB         -2.1007  -20.7237  -50.8499 C.3       15 UNK        -0.1800 
     87 C          -4.4364  -21.6754  -50.7438 C.2       15 UNK         0.5000 
     88 O          -4.9994  -20.9455  -51.5618 O.2       15 UNK        -0.5000 
     89 N          -5.0439  -22.1798  -49.6586 N.am      16 UNK        -0.5000 
     90 CA         -6.4332  -21.9938  -49.2356 C.3       16 UNK         0.1400 
     91 CB         -7.3935  -22.6907  -50.2218 C.3       16 UNK        -0.1800 
     92 C          -6.7746  -20.5115  -48.9990 C.2       16 UNK         0.5000 
     93 O          -7.8132  -20.0386  -49.4585 O.2       16 UNK        -0.5000 
     94 N          -5.8577  -19.7833  -48.3419 N.am      17 UNK        -0.5000 
     95 CA         -5.9008  -18.3298  -48.1312 C.3       17 UNK         0.1400 
     96 CB         -7.0565  -17.9419  -47.1847 C.3       17 UNK        -0.1800 
     97 C          -5.9160  -17.5425  -49.4617 C.2       17 UNK         0.5000 
     98 O          -6.5643  -16.5011  -49.5653 O.2       17 UNK        -0.5000 
     99 N          -5.2012  -18.0914  -50.4539 N.am      18 UNK        -0.5000 
    100 CA        -5.0574  -17.6518  -51.8428 C.3       18 UNK         0.1400 
    101 CB        -4.5873  -16.1867  -51.9488 C.3       18 UNK        -0.1800 
    102 C         -6.2807  -17.9540  -52.7313 C.2       18 UNK         0.5000 
    103 O         -6.2745  -17.5590  -53.8978 O.2       18 UNK        -0.5000 
    104 N         -7.2774  -18.7005  -52.2275 N.am      19 UNK        -0.5000 
    105 CA        -8.4186  -19.1737  -53.0208 C.3       19 UNK         0.1400 
    106 CB        -9.5271  -19.6953  -52.0957 C.3       19 UNK        -0.1800 
    107 C         -8.0253  -20.2495  -54.0535 C.2       19 UNK         0.5000 
    108 O         -8.6857  -20.3602  -55.0867 O.2       19 UNK        -0.5000 
    109 N         -6.9414  -20.9896  -53.7795 N.am      20 UNK        -0.5000 
    110 CA        -6.3076  -21.9341  -54.7025 C.3       20 UNK         0.1400 
    111 CB        -6.0064  -23.2433  -53.9515 C.3       20 UNK        -0.1800 
    112 C         -5.0327  -21.3312  -55.3312 C.2       20 UNK         0.5000 
    113 O         -4.2239  -22.0736  -55.8893 O.2       20 UNK        -0.5000 
    114 N         -4.8710  -20.0027  -55.2234 N.am      21 UNK        -0.5000 
    115 CA        -3.7467  -19.1649  -55.6492 C.3       21 UNK         0.1400 
    116 CB        -3.5140  -19.2407  -57.1715 C.3       21 UNK        -0.1800 
    117 C         -2.4595  -19.4308  -54.8499 C.2       21 UNK         0.5000 
    118 O         -2.0150  -18.5540  -54.1095 O.2       21 UNK        -0.5000 
    119 N         -1.8896  -20.6272  -55.0067 N.am      22 UNK        -0.5000 
    120 CA        -0.6479  -21.0769  -54.3767 C.3       22 UNK         0.1400 
    121 C         -0.5622  -22.6230  -54.4492 C.2       22 UNK         0.5000 
    122 N         -0.1968  -23.2881  -53.3614 N.am      22 UNK        -0.7600 
    123 O         -0.8059  -23.2242  -55.4929 O.2       22 UNK        -0.5000 
    124 C124        0.5947  -20.3740  -54.9898 C.3       23 UNK        -0.0398 
    125 S125        2.1069  -20.5786  -53.9928 S.3       23 UNK        -0.2404 
    126 C126        1.8723  -19.2876  -52.7215 C.3       23 UNK        -0.0205 
    127 H127       -2.3836  -17.4632  -47.7915 H         1 UNK         0.0600 
    128 H128       -3.0444  -16.1627  -48.7856 H         1 UNK         0.0600 
    129 H129       -2.6769  -17.7384  -49.5039 H         1 UNK         0.0600 
    130 H130       -0.2471  -16.9905  -47.2861 H         1 UNK         0.3000 
    131 H131        1.6601  -16.5005  -49.4524 H         1 UNK         0.0600 
    132 H132        1.9989  -17.2291  -46.5223 H         1 UNK         0.0800 
    133 H133        2.2753  -18.2269  -47.9002 H         1 UNK         0.0800 
    134 H134        4.1582  -15.9476  -49.7806 H         1 UNK         0.0800 
    135 H135        5.6811  -16.6648  -49.3298 H         1 UNK         0.0800 
    136 H136        2.8685  -17.1822  -51.3364 H         1 UNK         0.1150 
    137 H137        3.1938  -21.4479  -51.6061 H         1 UNK         0.1150 
    138 H138        5.4947  -19.3087  -48.7000 H         1 UNK         0.1150 
    139 H139        5.5908  -22.2681  -50.4675 H         1 UNK         0.0800 
    140 H140        5.7269  -21.6701  -48.8306 H         1 UNK         0.0800 
    141 H141        3.0761  -21.1334  -47.7432 H         1 UNK         0.0800 
    142 H142        3.8839  -22.3762  -46.8376 H         1 UNK         0.0800 
    143 H143        1.6158  -23.7598  -47.6712 H         1 UNK         0.0600 
    144 H144        2.3388  -22.5300  -45.1449 H         1 UNK         0.3000 
    145 H145        0.0690  -24.4419  -43.2321 H         1 UNK         0.0600 
    146 H146        2.1283  -25.3157  -42.1572 H         1 UNK         0.0600 
    147 H147        1.8524  -26.1280  -43.6897 H         1 UNK         0.0600 
    148 H148        3.0861  -24.8788  -43.5727 H         1 UNK         0.0600 
    149 H149        2.2975  -22.7545  -42.5624 H         1 UNK         0.3000 
    150 H150        0.4872  -19.6782  -42.6436 H         1 UNK         0.0600 
    151 H151       -0.0573  -20.7307  -40.4463 H         1 UNK         0.0600 
    152 H152        1.2788  -19.6022  -40.2971 H         1 UNK         0.0600 
    153 H153        1.5905  -21.3376  -40.3154 H         1 UNK         0.0600 
    154 H154        3.1010  -19.9342  -41.8771 H         1 UNK         0.3000 
    155 H155        4.9734  -19.7832  -43.1937 H         1 UNK         0.0600 
    156 H156        6.0397  -19.4673  -45.4301 H         1 UNK         0.0600 
    157 H157        4.4757  -19.6184  -46.2225 H         1 UNK         0.0600 
    158 H158        5.1669  -20.9880  -45.3561 H         1 UNK         0.0600 
    159 H159        4.1094  -17.5709  -44.9445 H         1 UNK         0.3000 
    160 H160        3.4702  -15.3403  -42.2172 H         1 UNK         0.0600 
    161 H161        5.3276  -15.3246  -44.6506 H         1 UNK         0.0600 
    162 H162        5.8074  -15.0202  -42.9850 H         1 UNK         0.0600 
    163 H163        4.7194  -13.9068  -43.7990 H         1 UNK         0.0600 
    164 H164        2.9693  -15.4448  -45.0837 H         1 UNK         0.3000 
    165 H165        1.4925  -16.7584  -41.9559 H         1 UNK         0.0600 
    166 H166        0.0261  -14.0771  -42.3772 H         1 UNK         0.0600 
    167 H167        0.1608  -14.8926  -40.8216 H         1 UNK         0.0600 
    168 H168        1.5901  -14.2688  -41.6175 H         1 UNK         0.0600 
    169 H169       -0.8629  -16.7550  -43.5790 H         1 UNK         0.3000 
    170 H170       -2.1632  -19.0109  -42.6478 H         1 UNK         0.0600 
    171 H171       -2.6611  -19.3232  -40.2332 H         1 UNK         0.0600 
    172 H172       -3.5177  -17.7847  -40.1857 H         1 UNK         0.0600 
    173 H173       -4.1494  -19.1254  -41.1409 H         1 UNK         0.0600 
    174 H174       -3.1160  -16.2395  -42.6780 H         1 UNK         0.3000 
    175 H175       -4.9300  -16.8062  -45.6096 H         1 UNK         0.0600 
    176 H176       -6.8296  -15.5914  -44.5844 H         1 UNK         0.0600 
    177 H177       -6.7961  -17.2431  -43.9903 H         1 UNK         0.0600 
    178 H178       -6.2168  -15.9359  -42.9661 H         1 UNK         0.0600 
    179 H179       -4.6413  -14.4185  -44.1380 H         1 UNK         0.3000 
    180 H180       -3.0364  -12.9051  -45.7998 H         1 UNK         0.0600 
    181 H181       -2.1075  -13.5812  -42.9470 H         1 UNK         0.0600 
    182 H182       -3.5486  -12.6934  -43.4160 H         1 UNK         0.0600 
    183 H183       -1.9712  -11.9636  -43.6330 H         1 UNK         0.0600 
    184 H184       -0.6357  -14.4516  -45.5105 H         1 UNK         0.3000 
    185 H185        1.1352  -12.2518  -47.6345 H         1 UNK         0.0600 
    186 H186        3.0844  -12.7262  -46.0951 H         1 UNK         0.0600 
    187 H187        2.0782  -11.4038  -45.5230 H         1 UNK         0.0600 
    188 H188        1.9523  -12.9842  -44.7671 H         1 UNK         0.0600 
    189 H189        0.7473  -14.9263  -46.3786 H         1 UNK         0.3000 
    190 H190        0.8383  -20.7814  -45.8918 H         1 UNK         0.3000 
    191 H191       -0.9614  -19.6139  -47.7441 H         1 UNK         0.0600 
    192 H192       -0.0467  -18.4232  -45.7573 H         1 UNK         0.0600 
    193 H193       -1.8063  -18.4083  -45.7111 H         1 UNK         0.0600 
    194 H194       -0.9137  -19.5066  -44.6795 H         1 UNK         0.0600 
    195 H195       -1.4930  -22.0578  -45.1804 H         1 UNK         0.3000 
    196 H196       -4.2915  -22.4000  -45.6052 H         1 UNK         0.0600 
    197 H197       -3.9711  -24.4831  -44.2838 H         1 UNK         0.0600 
    198 H198       -3.1461  -23.1259  -43.5316 H         1 UNK         0.0600 
    199 H199       -2.2254  -24.3314  -44.4274 H         1 UNK         0.0600 
    200 H200       -1.4329  -24.1026  -47.0055 H         1 UNK         0.3000 
    201 H201       -2.8830  -25.9418  -48.6086 H         1 UNK         0.0600 
    202 H202       -0.4621  -26.1801  -48.0648 H         1 UNK         0.0600 
    203 H203       -0.0862  -24.7767  -49.0636 H         1 UNK         0.0600 
    204 H204       -0.7321  -26.2345  -49.7999 H         1 UNK         0.0600 
    205 H205       -1.8016  -22.6123  -49.2623 H         1 UNK         0.3000 
    206 H206       -2.8303  -22.4231  -51.9476 H         1 UNK         0.0600 
    207 H207       -1.0389  -20.9338  -50.9770 H         1 UNK         0.0600 
    208 H208       -2.3875  -20.0063  -51.6196 H         1 UNK         0.0600 
    209 H209       -2.2233  -20.2328  -49.8850 H         1 UNK         0.0600 
    210 H210       -4.4915  -22.7582  -49.0380 H         1 UNK         0.3000 
    211 H211       -6.5368  -22.4870  -48.2686 H         1 UNK         0.0600 
    212 H212       -7.3712  -22.2275  -51.2076 H         1 UNK         0.0600 
    213 H213       -8.4224  -22.6477  -49.8632 H         1 UNK         0.0600 
    214 H214       -7.1356  -23.7429  -50.3426 H         1 UNK         0.0600 
    215 H215       -5.0079  -20.2442  -48.0220 H         1 UNK         0.3000 
    216 H216       -4.9644  -18.0703  -47.6364 H         1 UNK         0.0600 
    217 H217       -6.9994  -18.4970  -46.2484 H         1 UNK         0.0600 
    218 H218       -8.0322  -18.1355  -47.6305 H         1 UNK         0.0600 
    219 H219       -7.0212  -16.8806  -46.9375 H         1 UNK         0.0600 
    220 H220       -4.7801  -18.9900  -50.2628 H         1 UNK         0.3000 
    221 H221       -4.2538  -18.2675  -52.2492 H         1 UNK         0.0600 
    222 H222       -5.3662  -15.4842  -51.6527 H         1 UNK         0.0600 
    223 H223       -4.3061  -15.9433  -52.9740 H         1 UNK         0.0600 
    224 H224       -3.7117  -16.0055  -51.3257 H         1 UNK         0.0600 
    225 H225       -7.2315  -19.0145  -51.2650 H         1 UNK         0.3000 
    226 H226       -8.8200  -18.3199  -53.5708 H         1 UNK         0.0600 
    227 H227       -9.7906  -18.9592  -51.3360 H         1 UNK         0.0600 
    228 H228      -10.4319  -19.9170  -52.6627 H         1 UNK         0.0600 
    229 H229       -9.2313  -20.6134  -51.5885 H         1 UNK         0.0600 
    230 H230       -6.4391  -20.8280  -52.9103 H         1 UNK         0.3000 
    231 H231       -6.9851  -22.1713  -55.5248 H         1 UNK         0.0600 
    232 H232       -6.8998  -23.6347  -53.4649 H         1 UNK         0.0600 
    233 H233       -5.2411  -23.1079  -53.1882 H         1 UNK         0.0600 
    234 H234       -5.6483  -24.0128  -54.6363 H         1 UNK         0.0600 
    235 H235       -5.6052  -19.4924  -54.7496 H         1 UNK         0.3000 
    236 H236       -4.0435  -18.1392  -55.4251 H         1 UNK         0.0600 
    237 H237       -2.7276  -18.5495  -57.4767 H         1 UNK         0.0600 
    238 H238       -3.2140  -20.2362  -57.4989 H         1 UNK         0.0600 
    239 H239       -4.4160  -18.9677  -57.7192 H         1 UNK         0.0600 
    240 H240       -2.3703  -21.3238  -55.5702 H         1 UNK         0.3000 
    241 H241       -0.7145  -20.7986  -53.3258 H         1 UNK         0.0600 
    242 H242       -0.1298  -24.2925  -53.4082 H         1 UNK         0.3800 
    243 H243        0.0502  -22.8156  -52.5069 H         1 UNK         0.3800 
    244 H244        0.7857  -20.7469  -55.9974 H         1 UNK         0.0800 
    245 H245        0.4177  -19.3038  -55.1012 H         1 UNK         0.0800 
    246 H246        0.8912  -19.4038  -52.2600 H         1 UNK         0.0800 
    247 H247        1.8708  -18.3149  -53.2160 H         1 UNK         0.0800 
@<TRIPOS>BOND
     1    1    2 1    
     2    1  127 1    
     3    1  128 1    
     4    1  129 1    
     5    2    3 2    
     6    2    4 am   BACKBONE|DICT|INTERRES
     7    4    5 1    
     8    4  130 1    
     9    5    6 1    
    10    5   65 1    
    11    5  131 1    
    12    6    7 1    
    13    6  132 1    
    14    6  133 1    
    15    7    8 1    
    16    8    9 1    
    17    8  134 1    
    18    8  135 1    
    19    9   10 ar   
    20    9   14 ar   
    21   10   11 ar   
    22   10  136 1    
    23   11   12 ar   
    24   11  126 1    
    25   12   13 ar   
    26   12  137 1    
    27   13   14 ar   
    28   13   15 1    
    29   14  138 1    
    30   15   16 1    
    31   15  139 1    
    32   15  140 1    
    33   16   17 1    
    34   17   18 1    
    35   17  141 1    
    36   17  142 1    
    37   18   19 1    
    38   18   67 1    
    39   18  143 1    
    40   19   20 am   BACKBONE|DICT|INTERRES
    41   19  144 1    
    42   20   21 2    
    43   20   22 1    
    44   22   23 1    
    45   22   24 1    
    46   22  145 1    
    47   23  146 1    
    48   23  147 1    
    49   23  148 1    
    50   24   25 am   BACKBONE|DICT|INTERRES
    51   24  149 1    
    52   25   26 2    
    53   25   27 1    
    54   27   28 1    
    55   27   29 1    
    56   27  150 1    
    57   28  151 1    
    58   28  152 1    
    59   28  153 1    
    60   29   30 am   BACKBONE|DICT|INTERRES
    61   29  154 1    
    62   30   31 2    
    63   30   32 1    
    64   32   33 1    
    65   32   34 1    
    66   32  155 1    
    67   33  156 1    
    68   33  157 1    
    69   33  158 1    
    70   34   35 am   BACKBONE|DICT|INTERRES
    71   34  159 1    
    72   35   36 2    
    73   35   37 1    
    74   37   38 1    
    75   37   39 1    
    76   37  160 1    
    77   38  161 1    
    78   38  162 1    
    79   38  163 1    
    80   39   40 am   BACKBONE|DICT|INTERRES
    81   39  164 1    
    82   40   41 2    
    83   40   42 1    
    84   42   43 1    
    85   42   44 1    
    86   42  165 1    
    87   43  166 1    
    88   43  167 1    
    89   43  168 1    
    90   44   45 am   BACKBONE|DICT|INTERRES
    91   44  169 1    
    92   45   46 2    
    93   45   47 1    
    94   47   48 1    
    95   47   49 1    
    96   47  170 1    
    97   48  171 1    
    98   48  172 1    
    99   48  173 1    
   100   49   50 am   BACKBONE|DICT|INTERRES
   101   49  174 1    
   102   50   51 2    
   103   50   52 1    
   104   52   53 1    
   105   52   54 1    
   106   52  175 1    
   107   53  176 1    
   108   53  177 1    
   109   53  178 1    
   110   54   55 am   BACKBONE|DICT|INTERRES
   111   54  179 1    
   112   55   56 2    
   113   55   57 1    
   114   57   58 1    
   115   57   59 1    
   116   57  180 1    
   117   58  181 1    
   118   58  182 1    
   119   58  183 1    
   120   59   60 am   BACKBONE|DICT|INTERRES
   121   59  184 1    
   122   60   61 2    
   123   60   62 1    
   124   62   63 1    
   125   62   64 1    
   126   62  185 1    
   127   63  186 1    
   128   63  187 1    
   129   63  188 1    
   130   64   65 am   BACKBONE|DICT|INTERRES
   131   64  189 1    
   132   65   66 2    
   133   67   68 2    
   134   67   69 am   BACKBONE|DICT|INTERRES
   135   69   70 1    
   136   69  190 1    
   137   70   71 1    
   138   70   72 1    
   139   70  191 1    
   140   71  192 1    
   141   71  193 1    
   142   71  194 1    
   143   72   73 2    
   144   72   74 am   BACKBONE|DICT|INTERRES
   145   74   75 1    
   146   74  195 1    
   147   75   76 1    
   148   75   77 1    
   149   75  196 1    
   150   76  197 1    
   151   76  198 1    
   152   76  199 1    
   153   77   78 2    
   154   77   79 am   BACKBONE|DICT|INTERRES
   155   79   80 1    
   156   79  200 1    
   157   80   81 1    
   158   80   82 1    
   159   80  201 1    
   160   81  202 1    
   161   81  203 1    
   162   81  204 1    
   163   82   83 2    
   164   82   84 am   BACKBONE|DICT|INTERRES
   165   84   85 1    
   166   84  205 1    
   167   85   86 1    
   168   85   87 1    
   169   85  206 1    
   170   86  207 1    
   171   86  208 1    
   172   86  209 1    
   173   87   88 2    
   174   87   89 am   BACKBONE|DICT|INTERRES
   175   89   90 1    
   176   89  210 1    
   177   90   91 1    
   178   90   92 1    
   179   90  211 1    
   180   91  212 1    
   181   91  213 1    
   182   91  214 1    
   183   92   93 2    
   184   92   94 am   BACKBONE|DICT|INTERRES
   185   94   95 1    
   186   94  215 1    
   187   95   96 1    
   188   95   97 1    
   189   95  216 1    
   190   96  217 1    
   191   96  218 1    
   192   96  219 1    
   193   97   98 2    
   194   97   99 am   BACKBONE|DICT|INTERRES
   195   99  100 1    
   196   99  220 1    
   197  100  101 1    
   198  100  102 1    
   199  100  221 1    
   200  101  222 1    
   201  101  223 1    
   202  101  224 1    
   203  102  103 2    
   204  102  104 am   BACKBONE|DICT|INTERRES
   205  104  105 1    
   206  104  225 1    
   207  105  106 1    
   208  105  107 1    
   209  105  226 1    
   210  106  227 1    
   211  106  228 1    
   212  106  229 1    
   213  107  108 2    
   214  107  109 am   BACKBONE|DICT|INTERRES
   215  109  110 1    
   216  109  230 1    
   217  110  111 1    
   218  110  112 1    
   219  110  231 1    
   220  111  232 1    
   221  111  233 1    
   222  111  234 1    
   223  112  113 2    
   224  112  114 am   BACKBONE|DICT|INTERRES
   225  114  115 1    
   226  114  235 1    
   227  115  116 1    
   228  115  117 1    
   229  115  236 1    
   230  116  237 1    
   231  116  238 1    
   232  116  239 1    
   233  117  118 2    
   234  117  119 am   BACKBONE|DICT|INTERRES
   235  119  120 1    
   236  119  240 1    
   237  120  121 1    
   238  120  124 1    
   239  120  241 1    
   240  121  122 am   BACKBONE|DICT|INTERRES
   241  121  123 2    
   242  122  242 1    
   243  122  243 1    
   244  124  125 1    
   245  124  244 1    
   246  124  245 1    
   247  125  126 1    
   248  126  246 1    
   249  126  247 1    
@<TRIPOS>SUBSTRUCTURE
     1 UNK         1 GROUP             0       ****    0 ROOT    
