@<TRIPOS>MOLECULE
3R540
247   249    1
SMALL
USER_CHARGES


@<TRIPOS>ATOM
      1 CA          4.5626  -14.6685  -46.5617 C.3       0 UNK        -0.1800 
      2 C           3.2366  -14.4210  -47.2635 C.2       0 UNK         0.5000 
      3 O           2.2555  -14.0696  -46.6082 O.2       0 UNK        -0.5000 
      4 N           3.1960  -14.6073  -48.5901 N.am      1 UNK        -0.5000 
      5 CA          1.9964  -14.4677  -49.4300 C.3       1 UNK         0.1400 
      6 C6          2.2349  -14.9340  -50.8876 C.3       23 UNK        -0.0398 
      7 S7          2.8705  -16.6423  -51.0241 S.3       23 UNK        -0.2404 
      8 C8          1.5012  -17.5220  -51.8461 C.3       23 UNK        -0.0205 
      9 C9          0.7612  -18.4265  -50.8751 C.ar      23 UNK        -0.0193 
     10 C10        -0.2197  -17.9008  -50.0287 C.ar      23 UNK        -0.1150 
     11 C11        -0.8957  -18.7292  -49.1273 C.ar      23 UNK        -0.0193 
     12 C12        -0.5747  -20.0875  -49.0775 C.ar      23 UNK        -0.1150 
     13 C13         0.3874  -20.6320  -49.9333 C.ar      23 UNK        -0.0193 
     14 C14         1.0547  -19.7937  -50.8290 C.ar      23 UNK        -0.1150 
     15 C15         0.6616  -22.1323  -49.9198 C.3       23 UNK        -0.0205 
     16 S16         2.2352  -22.5954  -49.1176 S.3       23 UNK        -0.2404 
     17 C17         2.0133  -21.9233  -47.4390 C.3       23 UNK        -0.0398 
     18 CA          1.9593  -22.9577  -46.2803 C.3       11 UNK         0.1400 
     19 N           2.3339  -22.2929  -45.0302 N.am      11 UNK        -0.5000 
     20 C           3.4002  -22.5354  -44.2659 C.2       10 UNK         0.5000 
     21 O           4.2013  -23.4459  -44.4773 O.2       10 UNK        -0.5000 
     22 CA          3.6185  -21.5888  -43.0672 C.3       10 UNK         0.1400 
     23 CB          4.6044  -20.4726  -43.4451 C.3       10 UNK        -0.1800 
     24 N           2.3920  -20.9761  -42.5406 N.am      10 UNK        -0.5000 
     25 C           1.4688  -21.6346  -41.8247 C.2       9 UNK         0.5000 
     26 O           1.5043  -22.8498  -41.6330 O.2       9 UNK        -0.5000 
     27 CA          0.3258  -20.8045  -41.2112 C.3       9 UNK         0.1400 
     28 CB          0.8384  -19.9443  -40.0452 C.3       9 UNK        -0.1800 
     29 N          -0.3005  -19.9412  -42.2085 N.am      9 UNK        -0.5000 
     30 C          -1.3934  -20.2595  -42.9177 C.2       8 UNK         0.5000 
     31 O          -2.0633  -21.2735  -42.7242 O.2       8 UNK        -0.5000 
     32 CA         -1.8027  -19.3017  -44.0591 C.3       8 UNK         0.1400 
     33 CB         -2.9489  -18.3822  -43.6150 C.3       8 UNK        -0.1800 
     34 N          -0.6974  -18.4922  -44.5827 N.am      8 UNK        -0.5000 
     35 C           0.4043  -19.0088  -45.1396 C.2       7 UNK         0.5000 
     36 O           0.5559  -20.2137  -45.3005 O.2       7 UNK        -0.5000 
     37 CA          1.5618  -18.0609  -45.4961 C.3       7 UNK         0.1400 
     38 CB          1.4827  -17.5933  -46.9509 C.3       7 UNK        -0.1800 
     39 N           1.6590  -16.9120  -44.5980 N.am      7 UNK        -0.5000 
     40 C           2.0013  -17.0078  -43.3053 C.2       6 UNK         0.5000 
     41 O           2.2770  -18.0725  -42.7494 O.2       6 UNK        -0.5000 
     42 CA          1.9723  -15.7031  -42.4928 C.3       6 UNK         0.1400 
     43 CB          3.1384  -14.7824  -42.8836 C.3       6 UNK        -0.1800 
     44 N           0.7060  -14.9939  -42.6707 N.am      6 UNK        -0.5000 
     45 C          -0.4761  -15.4276  -42.2092 C.2       5 UNK         0.5000 
     46 O          -0.6115  -16.4341  -41.5136 O.2       5 UNK        -0.5000 
     47 CA         -1.7202  -14.6143  -42.6157 C.3       5 UNK         0.1400 
     48 CB         -2.0253  -13.5365  -41.5653 C.3       5 UNK        -0.1800 
     49 N          -1.5955  -13.9787  -43.9287 N.am      5 UNK        -0.5000 
     50 C          -1.4654  -14.6199  -45.0965 C.2       4 UNK         0.5000 
     51 O          -1.4338  -15.8439  -45.2004 O.2       4 UNK        -0.5000 
     52 CA         -1.2816  -13.7585  -46.3550 C.3       4 UNK         0.1400 
     53 CB         -2.6170  -13.1774  -46.8530 C.3       4 UNK        -0.1800 
     54 N          -0.2517  -12.7277  -46.2020 N.am      4 UNK        -0.5000 
     55 C          -0.2461  -11.6142  -45.4553 C.2       3 UNK         0.5000 
     56 O          -1.1739  -11.2659  -44.7244 O.2       3 UNK        -0.5000 
     57 CA          1.0332  -10.7607  -45.5220 C.3       3 UNK         0.1400 
     58 CB          2.0168  -11.1838  -44.4198 C.3       3 UNK        -0.1800 
     59 N           1.6919  -10.8758  -46.8243 N.am      3 UNK        -0.5000 
     60 C           1.2993  -10.2234  -47.9276 C.2       2 UNK         0.5000 
     61 O           0.4153   -9.3660  -47.9393 O.2       2 UNK        -0.5000 
     62 CA          1.9996  -10.6093  -49.2439 C.3       2 UNK         0.1400 
     63 CB          3.2773   -9.7793  -49.4404 C.3       2 UNK        -0.1800 
     64 N           2.3352  -12.0334  -49.3116 N.am      2 UNK        -0.5000 
     65 C           1.4410  -13.0265  -49.4349 C.2       1 UNK         0.5000 
     66 O           0.2280  -12.8462  -49.5348 O.2       1 UNK        -0.5000 
     67 C           0.5644  -23.6110  -46.1144 C.2       11 UNK         0.5000 
     68 O          -0.1268  -23.8520  -47.1044 O.2       11 UNK        -0.5000 
     69 N           0.1615  -23.8841  -44.8609 N.am      12 UNK        -0.5000 
     70 CA         -1.1733  -24.3259  -44.4329 C.3       12 UNK         0.1400 
     71 CB         -1.1500  -24.5944  -42.9207 C.3       12 UNK        -0.1800 
     72 C          -1.7473  -25.5540  -45.1658 C.2       12 UNK         0.5000 
     73 O          -2.9665  -25.6624  -45.2956 O.2       12 UNK        -0.5000 
     74 N          -0.8681  -26.4464  -45.6397 N.am      13 UNK        -0.5000 
     75 CA         -1.2228  -27.6391  -46.4103 C.3       13 UNK         0.1400 
     76 CB          0.0126  -28.5467  -46.5143 C.3       13 UNK        -0.1800 
     77 C          -1.7810  -27.3297  -47.8150 C.2       13 UNK         0.5000 
     78 O          -2.5353  -28.1437  -48.3494 O.2       13 UNK        -0.5000 
     79 N          -1.3991  -26.1800  -48.3871 N.am      14 UNK        -0.5000 
     80 CA         -1.8021  -25.7337  -49.7220 C.3       14 UNK         0.1400 
     81 CB         -0.5342  -25.5198  -50.5657 C.3       14 UNK        -0.1800 
     82 C          -2.6620  -24.4572  -49.6912 C.2       14 UNK         0.5000 
     83 O          -3.2693  -24.1300  -50.7119 O.2       14 UNK        -0.5000 
     84 N          -2.6899  -23.7531  -48.5496 N.am      15 UNK        -0.5000 
     85 CA         -3.3850  -22.4833  -48.3328 C.3       15 UNK         0.1400 
     86 CB         -3.2038  -22.0449  -46.8714 C.3       15 UNK        -0.1800 
     87 C          -4.8752  -22.5093  -48.7119 C.2       15 UNK         0.5000 
     88 O          -5.5608  -23.5056  -48.4702 O.2       15 UNK        -0.5000 
     89 N          -5.3279  -21.4042  -49.3187 N.am      16 UNK        -0.5000 
     90 CA         -6.6483  -21.1428  -49.9017 C.3       16 UNK         0.1400 
     91 CB         -7.7605  -21.1977  -48.8387 C.3       16 UNK        -0.1800 
     92 C          -6.9967  -22.0163  -51.1250 C.2       16 UNK         0.5000 
     93 O          -7.4456  -21.4728  -52.1335 O.2       16 UNK        -0.5000 
     94 N          -6.7877  -23.3330  -51.0203 N.am      17 UNK        -0.5000 
     95 CA         -7.0785  -24.3390  -52.0383 C.3       17 UNK         0.1400 
     96 CB         -7.0981  -25.7268  -51.3694 C.3       17 UNK        -0.1800 
     97 C          -6.0974  -24.2559  -53.2234 C.2       17 UNK         0.5000 
     98 O          -6.3614  -23.5358  -54.1874 O.2       17 UNK        -0.5000 
     99 N          -4.9759  -24.9839  -53.1341 N.am      18 UNK        -0.5000 
    100 CA        -3.9243  -25.0413  -54.1548 C.3       18 UNK         0.1400 
    101 CB        -2.9283  -26.1515  -53.7893 C.3       18 UNK        -0.1800 
    102 C         -3.2004  -23.6965  -54.3598 C.2       18 UNK         0.5000 
    103 O         -2.7221  -23.4225  -55.4607 O.2       18 UNK        -0.5000 
    104 N         -3.1743  -22.8686  -53.3077 N.am      19 UNK        -0.5000 
    105 CA        -2.6729  -21.4957  -53.3147 C.3       19 UNK         0.1400 
    106 CB        -2.5207  -21.0297  -51.8612 C.3       19 UNK        -0.1800 
    107 C         -3.5574  -20.5039  -54.1004 C.2       19 UNK         0.5000 
    108 O         -3.1156  -19.3766  -54.3189 O.2       19 UNK        -0.5000 
    109 N         -4.7776  -20.9162  -54.4868 N.am      20 UNK        -0.5000 
    110 CA        -5.7713  -20.1633  -55.2616 C.3       20 UNK         0.1400 
    111 CB        -5.2731  -19.9292  -56.7025 C.3       20 UNK        -0.1800 
    112 C         -6.1864  -18.8628  -54.5485 C.2       20 UNK         0.5000 
    113 O         -5.8659  -17.7628  -55.0052 O.2       20 UNK        -0.5000 
    114 N         -6.8346  -19.0302  -53.3869 N.am      21 UNK        -0.5000 
    115 CA        -7.2688  -17.9841  -52.4514 C.3       21 UNK         0.1400 
    116 CB        -8.3528  -17.0919  -53.0916 C.3       21 UNK        -0.1800 
    117 C         -6.0995  -17.1669  -51.8572 C.2       21 UNK         0.5000 
    118 O         -6.3113  -16.0411  -51.4047 O.2       21 UNK        -0.5000 
    119 N         -4.8905  -17.7481  -51.8822 N.am      22 UNK        -0.5000 
    120 CA        -3.6079  -17.1192  -51.5212 C.3       22 UNK         0.1400 
    121 C         -3.1635  -15.9790  -52.4904 C.2       22 UNK         0.5000 
    122 N         -3.7089  -15.8846  -53.6988 N.am      22 UNK        -0.7600 
    123 O         -2.2862  -15.1854  -52.1620 O.2       22 UNK        -0.5000 
    124 C124       -3.5274  -16.7208  -50.0195 C.3       23 UNK        -0.0398 
    125 S125       -3.6103  -18.1753  -48.9149 S.3       23 UNK        -0.2404 
    126 C126       -1.9446  -18.1640  -48.1793 C.3       23 UNK        -0.0205 
    127 H127        4.8523  -13.7889  -45.9869 H         1 UNK         0.0600 
    128 H128        5.3604  -14.8922  -47.2701 H         1 UNK         0.0600 
    129 H129        4.4684  -15.5103  -45.8758 H         1 UNK         0.0600 
    130 H130        4.0266  -14.9213  -49.0719 H         1 UNK         0.3000 
    131 H131        1.2241  -15.1063  -48.9958 H         1 UNK         0.0600 
    132 H132        1.3141  -14.8386  -51.4653 H         1 UNK         0.0800 
    133 H133        2.9591  -14.2809  -51.3782 H         1 UNK         0.0800 
    134 H134        0.8016  -16.8286  -52.3141 H         1 UNK         0.0800 
    135 H135        1.9163  -18.1155  -52.6621 H         1 UNK         0.0800 
    136 H136       -0.4408  -16.8443  -50.0656 H         1 UNK         0.1150 
    137 H137       -1.0701  -20.7240  -48.3620 H         1 UNK         0.1150 
    138 H138        1.8027  -20.2084  -51.4899 H         1 UNK         0.1150 
    139 H139       -0.1558  -22.6525  -49.4224 H         1 UNK         0.0800 
    140 H140        0.6706  -22.5012  -50.9463 H         1 UNK         0.0800 
    141 H141        1.1327  -21.2885  -47.4183 H         1 UNK         0.0800 
    142 H142        2.8537  -21.2450  -47.2849 H         1 UNK         0.0800 
    143 H143        2.6633  -23.7635  -46.4952 H         1 UNK         0.0600 
    144 H144        1.7259  -21.5123  -44.7893 H         1 UNK         0.3000 
    145 H145        4.0707  -22.1787  -42.2672 H         1 UNK         0.0600 
    146 H146        4.8262  -19.8354  -42.5888 H         1 UNK         0.0600 
    147 H147        4.2095  -19.8389  -44.2392 H         1 UNK         0.0600 
    148 H148        5.5506  -20.8872  -43.7955 H         1 UNK         0.0600 
    149 H149        2.3122  -19.9672  -42.6395 H         1 UNK         0.3000 
    150 H150       -0.4121  -21.5008  -40.8069 H         1 UNK         0.0600 
    151 H151        1.3069  -20.5639  -39.2795 H         1 UNK         0.0600 
    152 H152        0.0207  -19.4022  -39.5699 H         1 UNK         0.0600 
    153 H153        1.5764  -19.2109  -40.3715 H         1 UNK         0.0600 
    154 H154        0.1882  -19.0855  -42.4365 H         1 UNK         0.3000 
    155 H155       -2.1683  -19.9209  -44.8803 H         1 UNK         0.0600 
    156 H156       -3.8079  -18.9646  -43.2795 H         1 UNK         0.0600 
    157 H157       -3.2875  -17.7473  -44.4338 H         1 UNK         0.0600 
    158 H158       -2.6477  -17.7388  -42.7891 H         1 UNK         0.0600 
    159 H159       -0.8120  -17.4823  -44.5570 H         1 UNK         0.3000 
    160 H160        2.4821  -18.6390  -45.3956 H         1 UNK         0.0600 
    161 H161        0.6471  -16.9136  -47.1180 H         1 UNK         0.0600 
    162 H162        1.3729  -18.4453  -47.6209 H         1 UNK         0.0600 
    163 H163        2.3995  -17.0897  -47.2484 H         1 UNK         0.0600 
    164 H164        1.4224  -16.0084  -44.9823 H         1 UNK         0.3000 
    165 H165        2.0792  -15.9613  -41.4370 H         1 UNK         0.0600 
    166 H166        3.1584  -13.8868  -42.2623 H         1 UNK         0.0600 
    167 H167        4.0956  -15.2891  -42.7545 H         1 UNK         0.0600 
    168 H168        3.0735  -14.4652  -43.9242 H         1 UNK         0.0600 
    169 H169        0.7217  -14.1588  -43.2361 H         1 UNK         0.3000 
    170 H170       -2.5670  -15.3016  -42.6577 H         1 UNK         0.0600 
    171 H171       -1.2248  -12.7981  -41.5025 H         1 UNK         0.0600 
    172 H172       -2.9502  -13.0089  -41.7993 H         1 UNK         0.0600 
    173 H173       -2.1451  -13.9780  -40.5750 H         1 UNK         0.0600 
    174 H174       -1.5922  -12.9627  -43.9550 H         1 UNK         0.3000 
    175 H175       -0.9085  -14.4238  -47.1356 H         1 UNK         0.0600 
    176 H176       -3.0770  -12.5146  -46.1198 H         1 UNK         0.0600 
    177 H177       -2.4775  -12.6137  -47.7756 H         1 UNK         0.0600 
    178 H178       -3.3305  -13.9750  -47.0638 H         1 UNK         0.0600 
    179 H179        0.6232  -12.9595  -46.6605 H         1 UNK         0.3000 
    180 H180        0.7531   -9.7193  -45.3499 H         1 UNK         0.0600 
    181 H181        2.9005  -10.5456  -44.4154 H         1 UNK         0.0600 
    182 H182        2.3494  -12.2137  -44.5489 H         1 UNK         0.0600 
    183 H183        1.5566  -11.1078  -43.4337 H         1 UNK         0.0600 
    184 H184        2.4121  -11.5786  -46.9076 H         1 UNK         0.3000 
    185 H185        1.3150  -10.3810  -50.0637 H         1 UNK         0.0600 
    186 H186        3.7414   -9.9917  -50.4036 H         1 UNK         0.0600 
    187 H187        3.0561   -8.7114  -49.4161 H         1 UNK         0.0600 
    188 H188        4.0133   -9.9797  -48.6607 H         1 UNK         0.0600 
    189 H189        3.3126  -12.2751  -49.2359 H         1 UNK         0.3000 
    190 H190        0.8068  -23.6626  -44.1154 H         1 UNK         0.3000 
    191 H191       -1.8563  -23.4950  -44.6159 H         1 UNK         0.0600 
    192 H192       -0.9158  -23.6894  -42.3627 H         1 UNK         0.0600 
    193 H193       -0.4118  -25.3527  -42.6573 H         1 UNK         0.0600 
    194 H194       -2.1216  -24.9419  -42.5665 H         1 UNK         0.0600 
    195 H195        0.1151  -26.2753  -45.4889 H         1 UNK         0.3000 
    196 H196       -1.9974  -28.1786  -45.8612 H         1 UNK         0.0600 
    197 H197        0.3721  -28.8394  -45.5276 H         1 UNK         0.0600 
    198 H198        0.8315  -28.0525  -47.0386 H         1 UNK         0.0600 
    199 H199       -0.2202  -29.4629  -47.0586 H         1 UNK         0.0600 
    200 H200       -0.7924  -25.5512  -47.8694 H         1 UNK         0.3000 
    201 H201       -2.4092  -26.4929  -50.2186 H         1 UNK         0.0600 
    202 H202       -0.0748  -26.4746  -50.8211 H         1 UNK         0.0600 
    203 H203        0.2108  -24.9328  -50.0298 H         1 UNK         0.0600 
    204 H204       -0.7501  -25.0025  -51.5013 H         1 UNK         0.0600 
    205 H205       -2.1178  -24.0787  -47.7825 H         1 UNK         0.3000 
    206 H206       -2.8990  -21.7528  -48.9778 H         1 UNK         0.0600 
    207 H207       -3.6558  -22.7603  -46.1832 H         1 UNK         0.0600 
    208 H208       -2.1499  -21.9473  -46.6107 H         1 UNK         0.0600 
    209 H209       -3.6716  -21.0758  -46.6928 H         1 UNK         0.0600 
    210 H210       -4.6733  -20.6424  -49.4321 H         1 UNK         0.3000 
    211 H211       -6.5980  -20.1141  -50.2592 H         1 UNK         0.0600 
    212 H212       -7.8902  -22.2007  -48.4317 H         1 UNK         0.0600 
    213 H213       -8.7180  -20.8940  -49.2636 H         1 UNK         0.0600 
    214 H214       -7.5450  -20.5244  -48.0090 H         1 UNK         0.0600 
    215 H215       -6.3833  -23.6655  -50.1484 H         1 UNK         0.3000 
    216 H216       -8.0774  -24.1469  -52.4355 H         1 UNK         0.0600 
    217 H217       -7.2496  -26.5175  -52.1055 H         1 UNK         0.0600 
    218 H218       -7.9134  -25.7977  -50.6492 H         1 UNK         0.0600 
    219 H219       -6.1710  -25.9391  -50.8352 H         1 UNK         0.0600 
    220 H220       -4.8026  -25.4967  -52.2818 H         1 UNK         0.3000 
    221 H221       -4.3941  -25.3047  -55.1046 H         1 UNK         0.0600 
    222 H222       -3.4183  -27.1247  -53.7557 H         1 UNK         0.0600 
    223 H223       -2.1258  -26.2172  -54.5252 H         1 UNK         0.0600 
    224 H224       -2.4702  -25.9743  -52.8173 H         1 UNK         0.0600 
    225 H225       -3.5105  -23.2262  -52.4177 H         1 UNK         0.3000 
    226 H226       -1.6852  -21.4986  -53.7801 H         1 UNK         0.0600 
    227 H227       -1.9320  -21.7398  -51.2825 H         1 UNK         0.0600 
    228 H228       -2.0068  -20.0698  -51.8109 H         1 UNK         0.0600 
    229 H229       -3.4877  -20.9156  -51.3734 H         1 UNK         0.0600 
    230 H230       -5.0624  -21.8574  -54.2397 H         1 UNK         0.3000 
    231 H231       -6.6618  -20.7913  -55.3195 H         1 UNK         0.0600 
    232 H232       -6.0381  -19.4348  -57.3022 H         1 UNK         0.0600 
    233 H233       -5.0341  -20.8729  -57.1930 H         1 UNK         0.0600 
    234 H234       -4.3811  -19.3025  -56.7310 H         1 UNK         0.0600 
    235 H235       -7.0400  -19.9820  -53.0843 H         1 UNK         0.3000 
    236 H236       -7.7327  -18.5017  -51.6115 H         1 UNK         0.0600 
    237 H237       -7.9487  -16.4734  -53.8935 H         1 UNK         0.0600 
    238 H238       -9.1631  -17.6918  -53.5057 H         1 UNK         0.0600 
    239 H239       -8.7936  -16.4205  -52.3538 H         1 UNK         0.0600 
    240 H240       -4.8188  -18.6517  -52.3238 H         1 UNK         0.3000 
    241 H241       -2.8549  -17.8900  -51.6822 H         1 UNK         0.0600 
    242 H242       -4.4022  -16.5531  -54.0142 H         1 UNK         0.3800 
    243 H243       -3.4041  -15.1535  -54.3210 H         1 UNK         0.3800 
    244 H244       -4.3329  -16.0369  -49.7527 H         1 UNK         0.0800 
    245 H245       -2.6108  -16.1708  -49.8092 H         1 UNK         0.0800 
    246 H246       -1.9696  -18.7574  -47.2645 H         1 UNK         0.0800 
    247 H247       -1.6792  -17.1527  -47.8678 H         1 UNK         0.0800 
@<TRIPOS>BOND
     1    1    2 1    
     2    1  127 1    
     3    1  128 1    
     4    1  129 1    
     5    2    3 2    
     6    2    4 am   BACKBONE|DICT|INTERRES
     7    4    5 1    
     8    4  130 1    
     9    5    6 1    
    10    5   65 1    
    11    5  131 1    
    12    6    7 1    
    13    6  132 1    
    14    6  133 1    
    15    7    8 1    
    16    8    9 1    
    17    8  134 1    
    18    8  135 1    
    19    9   10 ar   
    20    9   14 ar   
    21   10   11 ar   
    22   10  136 1    
    23   11   12 ar   
    24   11  126 1    
    25   12   13 ar   
    26   12  137 1    
    27   13   14 ar   
    28   13   15 1    
    29   14  138 1    
    30   15   16 1    
    31   15  139 1    
    32   15  140 1    
    33   16   17 1    
    34   17   18 1    
    35   17  141 1    
    36   17  142 1    
    37   18   19 1    
    38   18   67 1    
    39   18  143 1    
    40   19   20 am   BACKBONE|DICT|INTERRES
    41   19  144 1    
    42   20   21 2    
    43   20   22 1    
    44   22   23 1    
    45   22   24 1    
    46   22  145 1    
    47   23  146 1    
    48   23  147 1    
    49   23  148 1    
    50   24   25 am   BACKBONE|DICT|INTERRES
    51   24  149 1    
    52   25   26 2    
    53   25   27 1    
    54   27   28 1    
    55   27   29 1    
    56   27  150 1    
    57   28  151 1    
    58   28  152 1    
    59   28  153 1    
    60   29   30 am   BACKBONE|DICT|INTERRES
    61   29  154 1    
    62   30   31 2    
    63   30   32 1    
    64   32   33 1    
    65   32   34 1    
    66   32  155 1    
    67   33  156 1    
    68   33  157 1    
    69   33  158 1    
    70   34   35 am   BACKBONE|DICT|INTERRES
    71   34  159 1    
    72   35   36 2    
    73   35   37 1    
    74   37   38 1    
    75   37   39 1    
    76   37  160 1    
    77   38  161 1    
    78   38  162 1    
    79   38  163 1    
    80   39   40 am   BACKBONE|DICT|INTERRES
    81   39  164 1    
    82   40   41 2    
    83   40   42 1    
    84   42   43 1    
    85   42   44 1    
    86   42  165 1    
    87   43  166 1    
    88   43  167 1    
    89   43  168 1    
    90   44   45 am   BACKBONE|DICT|INTERRES
    91   44  169 1    
    92   45   46 2    
    93   45   47 1    
    94   47   48 1    
    95   47   49 1    
    96   47  170 1    
    97   48  171 1    
    98   48  172 1    
    99   48  173 1    
   100   49   50 am   BACKBONE|DICT|INTERRES
   101   49  174 1    
   102   50   51 2    
   103   50   52 1    
   104   52   53 1    
   105   52   54 1    
   106   52  175 1    
   107   53  176 1    
   108   53  177 1    
   109   53  178 1    
   110   54   55 am   BACKBONE|DICT|INTERRES
   111   54  179 1    
   112   55   56 2    
   113   55   57 1    
   114   57   58 1    
   115   57   59 1    
   116   57  180 1    
   117   58  181 1    
   118   58  182 1    
   119   58  183 1    
   120   59   60 am   BACKBONE|DICT|INTERRES
   121   59  184 1    
   122   60   61 2    
   123   60   62 1    
   124   62   63 1    
   125   62   64 1    
   126   62  185 1    
   127   63  186 1    
   128   63  187 1    
   129   63  188 1    
   130   64   65 am   BACKBONE|DICT|INTERRES
   131   64  189 1    
   132   65   66 2    
   133   67   68 2    
   134   67   69 am   BACKBONE|DICT|INTERRES
   135   69   70 1    
   136   69  190 1    
   137   70   71 1    
   138   70   72 1    
   139   70  191 1    
   140   71  192 1    
   141   71  193 1    
   142   71  194 1    
   143   72   73 2    
   144   72   74 am   BACKBONE|DICT|INTERRES
   145   74   75 1    
   146   74  195 1    
   147   75   76 1    
   148   75   77 1    
   149   75  196 1    
   150   76  197 1    
   151   76  198 1    
   152   76  199 1    
   153   77   78 2    
   154   77   79 am   BACKBONE|DICT|INTERRES
   155   79   80 1    
   156   79  200 1    
   157   80   81 1    
   158   80   82 1    
   159   80  201 1    
   160   81  202 1    
   161   81  203 1    
   162   81  204 1    
   163   82   83 2    
   164   82   84 am   BACKBONE|DICT|INTERRES
   165   84   85 1    
   166   84  205 1    
   167   85   86 1    
   168   85   87 1    
   169   85  206 1    
   170   86  207 1    
   171   86  208 1    
   172   86  209 1    
   173   87   88 2    
   174   87   89 am   BACKBONE|DICT|INTERRES
   175   89   90 1    
   176   89  210 1    
   177   90   91 1    
   178   90   92 1    
   179   90  211 1    
   180   91  212 1    
   181   91  213 1    
   182   91  214 1    
   183   92   93 2    
   184   92   94 am   BACKBONE|DICT|INTERRES
   185   94   95 1    
   186   94  215 1    
   187   95   96 1    
   188   95   97 1    
   189   95  216 1    
   190   96  217 1    
   191   96  218 1    
   192   96  219 1    
   193   97   98 2    
   194   97   99 am   BACKBONE|DICT|INTERRES
   195   99  100 1    
   196   99  220 1    
   197  100  101 1    
   198  100  102 1    
   199  100  221 1    
   200  101  222 1    
   201  101  223 1    
   202  101  224 1    
   203  102  103 2    
   204  102  104 am   BACKBONE|DICT|INTERRES
   205  104  105 1    
   206  104  225 1    
   207  105  106 1    
   208  105  107 1    
   209  105  226 1    
   210  106  227 1    
   211  106  228 1    
   212  106  229 1    
   213  107  108 2    
   214  107  109 am   BACKBONE|DICT|INTERRES
   215  109  110 1    
   216  109  230 1    
   217  110  111 1    
   218  110  112 1    
   219  110  231 1    
   220  111  232 1    
   221  111  233 1    
   222  111  234 1    
   223  112  113 2    
   224  112  114 am   BACKBONE|DICT|INTERRES
   225  114  115 1    
   226  114  235 1    
   227  115  116 1    
   228  115  117 1    
   229  115  236 1    
   230  116  237 1    
   231  116  238 1    
   232  116  239 1    
   233  117  118 2    
   234  117  119 am   BACKBONE|DICT|INTERRES
   235  119  120 1    
   236  119  240 1    
   237  120  121 1    
   238  120  124 1    
   239  120  241 1    
   240  121  122 am   BACKBONE|DICT|INTERRES
   241  121  123 2    
   242  122  242 1    
   243  122  243 1    
   244  124  125 1    
   245  124  244 1    
   246  124  245 1    
   247  125  126 1    
   248  126  246 1    
   249  126  247 1    
@<TRIPOS>SUBSTRUCTURE
     1 UNK         1 GROUP             0       ****    0 ROOT    
