@<TRIPOS>MOLECULE
3R540
247   249    1
SMALL
USER_CHARGES


@<TRIPOS>ATOM
      1 CA          2.9229  -16.0449  -51.7988 C.3       0 UNK        -0.1800 
      2 C           2.8418  -15.6451  -50.3324 C.2       0 UNK         0.5000 
      3 O           3.8519  -15.6820  -49.6294 O.2       0 UNK        -0.5000 
      4 N           1.6440  -15.2692  -49.8711 N.am      1 UNK        -0.5000 
      5 CA          1.3579  -14.8102  -48.5114 C.3       1 UNK         0.1400 
      6 C6         -0.1644  -14.7671  -48.1883 C.3       23 UNK        -0.0398 
      7 S7         -1.2399  -14.1556  -49.5418 S.3       23 UNK        -0.2404 
      8 C8         -2.1683  -15.6538  -50.0186 C.3       23 UNK        -0.0205 
      9 C9         -1.3020  -16.6539  -50.7716 C.ar      23 UNK        -0.0193 
     10 C10        -1.2480  -16.6406  -52.1670 C.ar      23 UNK        -0.1150 
     11 C11        -0.4576  -17.5614  -52.8623 C.ar      23 UNK        -0.0193 
     12 C12         0.3298  -18.4635  -52.1324 C.ar      23 UNK        -0.1150 
     13 C13         0.2858  -18.4974  -50.7357 C.ar      23 UNK        -0.0193 
     14 C14        -0.5592  -17.6032  -50.0693 C.ar      23 UNK        -0.1150 
     15 C15         1.1742  -19.5078  -50.0040 C.3       23 UNK        -0.0205 
     16 S16         1.2302  -19.3659  -48.1824 S.3       23 UNK        -0.2404 
     17 C17        -0.3968  -20.0493  -47.7084 C.3       23 UNK        -0.0398 
     18 CA         -0.2713  -21.4687  -47.1158 C.3       11 UNK         0.1400 
     19 N           0.4588  -21.4836  -45.8429 N.am      11 UNK        -0.5000 
     20 C           0.8991  -22.5901  -45.2283 C.2       10 UNK         0.5000 
     21 O           0.6929  -23.7297  -45.6465 O.2       10 UNK        -0.5000 
     22 CA          1.6490  -22.3958  -43.9003 C.3       10 UNK         0.1400 
     23 CB          3.0409  -21.7871  -44.1288 C.3       10 UNK        -0.1800 
     24 N           0.8855  -21.5714  -42.9653 N.am      10 UNK        -0.5000 
     25 C          -0.2644  -21.9573  -42.3942 C.2       9 UNK         0.5000 
     26 O          -0.7527  -23.0786  -42.5359 O.2       9 UNK        -0.5000 
     27 CA         -1.0107  -20.9150  -41.5409 C.3       9 UNK         0.1400 
     28 CB         -0.4913  -20.9317  -40.0957 C.3       9 UNK        -0.1800 
     29 N          -0.9269  -19.5551  -42.0776 N.am      9 UNK        -0.5000 
     30 C          -1.4308  -19.1677  -43.2585 C.2       8 UNK         0.5000 
     31 O          -2.0376  -19.9170  -44.0223 O.2       8 UNK        -0.5000 
     32 CA         -1.1612  -17.7140  -43.6890 C.3       8 UNK         0.1400 
     33 CB         -2.0898  -16.7351  -42.9556 C.3       8 UNK        -0.1800 
     34 N           0.2312  -17.3171  -43.4847 N.am      8 UNK        -0.5000 
     35 C           1.2821  -17.9130  -44.0656 C.2       7 UNK         0.5000 
     36 O           1.1877  -18.8417  -44.8664 O.2       7 UNK        -0.5000 
     37 CA          2.6728  -17.4284  -43.6282 C.3       7 UNK         0.1400 
     38 CB          3.0422  -16.1066  -44.3208 C.3       7 UNK        -0.1800 
     39 N           2.7522  -17.2751  -42.1752 N.am      7 UNK        -0.5000 
     40 C           2.7226  -18.2985  -41.3083 C.2       6 UNK         0.5000 
     41 O           2.6686  -19.4808  -41.6462 O.2       6 UNK        -0.5000 
     42 CA          2.7143  -17.9369  -39.8120 C.3       6 UNK         0.1400 
     43 CB          4.1429  -17.6844  -39.3076 C.3       6 UNK        -0.1800 
     44 N           1.8827  -16.7687  -39.5189 N.am      6 UNK        -0.5000 
     45 C           0.5488  -16.7357  -39.6501 C.2       5 UNK         0.5000 
     46 O          -0.1275  -17.6982  -40.0088 O.2       5 UNK        -0.5000 
     47 CA         -0.1383  -15.3836  -39.3845 C.3       5 UNK         0.1400 
     48 CB         -0.4402  -15.2148  -37.8881 C.3       5 UNK        -0.1800 
     49 N           0.6420  -14.2366  -39.8583 N.am      5 UNK        -0.5000 
     50 C           0.9690  -14.0231  -41.1389 C.2       4 UNK         0.5000 
     51 O           0.6742  -14.7921  -42.0584 O.2       4 UNK        -0.5000 
     52 CA          1.8191  -12.7769  -41.4327 C.3       4 UNK         0.1400 
     53 CB          3.3139  -13.1290  -41.3705 C.3       4 UNK        -0.1800 
     54 N           1.5151  -12.2627  -42.7639 N.am      4 UNK        -0.5000 
     55 C           0.4547  -11.5074  -43.0764 C.2       3 UNK         0.5000 
     56 O          -0.3237  -11.0537  -42.2360 O.2       3 UNK        -0.5000 
     57 CA          0.1912  -11.2474  -44.5764 C.3       3 UNK         0.1400 
     58 CB         -0.1152   -9.7648  -44.8733 C.3       3 UNK        -0.1800 
     59 N           1.2321  -11.7822  -45.4680 N.am      3 UNK        -0.5000 
     60 C           2.4838  -11.3350  -45.6606 C.2       2 UNK         0.5000 
     61 O           2.9400  -10.3223  -45.1306 O.2       2 UNK        -0.5000 
     62 CA          3.4024  -12.1954  -46.5553 C.3       2 UNK         0.1400 
     63 CB          4.6482  -12.6453  -45.7725 C.3       2 UNK        -0.1800 
     64 N           2.7316  -13.3927  -47.0714 N.am      2 UNK        -0.5000 
     65 C           2.0423  -13.4589  -48.2172 C.2       1 UNK         0.5000 
     66 O           1.9125  -12.5137  -48.9978 O.2       1 UNK        -0.5000 
     67 C          -1.6496  -22.1558  -47.0323 C.2       11 UNK         0.5000 
     68 O          -2.0944  -22.7198  -48.0336 O.2       11 UNK        -0.5000 
     69 N          -2.2840  -22.1547  -45.8507 N.am      12 UNK        -0.5000 
     70 CA         -3.5146  -22.8977  -45.5629 C.3       12 UNK         0.1400 
     71 CB         -3.9896  -22.5951  -44.1347 C.3       12 UNK        -0.1800 
     72 C          -3.3808  -24.4173  -45.7820 C.2       12 UNK         0.5000 
     73 O          -4.3519  -25.0522  -46.1932 O.2       12 UNK        -0.5000 
     74 N          -2.1804  -24.9594  -45.5404 N.am      13 UNK        -0.5000 
     75 CA         -1.8361  -26.3516  -45.8083 C.3       13 UNK         0.1400 
     76 CB         -0.8947  -26.8605  -44.7045 C.3       13 UNK        -0.1800 
     77 C          -1.1878  -26.5056  -47.1943 C.2       13 UNK         0.5000 
     78 O          -1.6170  -27.3556  -47.9744 O.2       13 UNK        -0.5000 
     79 N          -0.1575  -25.6941  -47.4707 N.am      14 UNK        -0.5000 
     80 CA          0.7275  -25.8388  -48.6285 C.3       14 UNK         0.1400 
     81 CB          1.9971  -25.0049  -48.3957 C.3       14 UNK        -0.1800 
     82 C           0.0876  -25.4663  -49.9771 C.2       14 UNK         0.5000 
     83 O           0.4481  -26.0615  -50.9934 O.2       14 UNK        -0.5000 
     84 N          -0.8270  -24.4899  -49.9704 N.am      15 UNK        -0.5000 
     85 CA         -1.4791  -23.9476  -51.1644 C.3       15 UNK         0.1400 
     86 CB         -1.0292  -22.4870  -51.3477 C.3       15 UNK        -0.1800 
     87 C          -3.0115  -24.0438  -51.0813 C.2       15 UNK         0.5000 
     88 O          -3.6927  -23.4357  -51.9075 O.2       15 UNK        -0.5000 
     89 N          -3.5363  -24.7534  -50.0692 N.am      16 UNK        -0.5000 
     90 CA         -4.9618  -24.8805  -49.7341 C.3       16 UNK         0.1400 
     91 CB         -5.6896  -25.7392  -50.7891 C.3       16 UNK        -0.1800 
     92 C          -5.6413  -23.5111  -49.5018 C.2       16 UNK         0.5000 
     93 O          -6.7787  -23.3008  -49.9258 O.2       16 UNK        -0.5000 
     94 N          -4.8928  -22.5882  -48.8778 N.am      17 UNK        -0.5000 
     95 CA         -5.2270  -21.1819  -48.6220 C.3       17 UNK         0.1400 
     96 CB         -6.4892  -21.0531  -47.7423 C.3       17 UNK        -0.1800 
     97 C          -5.3031  -20.3182  -49.8995 C.2       17 UNK         0.5000 
     98 O          -5.8627  -19.2221  -49.8515 O.2       17 UNK        -0.5000 
     99 N          -4.7248  -20.8130  -51.0064 N.am      18 UNK        -0.5000 
    100 CA        -4.6666  -20.1921  -52.3323 C.3       18 UNK         0.1400 
    101 CB        -3.7982  -18.9194  -52.2983 C.3       18 UNK        -0.1800 
    102 C         -6.0638  -19.9602  -52.9414 C.2       18 UNK         0.5000 
    103 O         -6.3112  -18.9110  -53.5386 O.2       18 UNK        -0.5000 
    104 N         -6.9558  -20.9468  -52.7632 N.am      19 UNK        -0.5000 
    105 CA        -8.3211  -20.9710  -53.2893 C.3       19 UNK         0.1400 
    106 CB        -9.0207  -22.2516  -52.8070 C.3       19 UNK        -0.1800 
    107 C         -8.3291  -20.8707  -54.8265 C.2       19 UNK         0.5000 
    108 O         -7.8211  -21.7714  -55.4963 O.2       19 UNK        -0.5000 
    109 N         -8.8462  -19.7468  -55.3407 N.am      20 UNK        -0.5000 
    110 CA        -8.7862  -19.2579  -56.7254 C.3       20 UNK         0.1400 
    111 CB        -9.3848  -20.2582  -57.7341 C.3       20 UNK        -0.1800 
    112 C         -7.3739  -18.7956  -57.1400 C.2       20 UNK         0.5000 
    113 O         -7.2242  -17.6649  -57.6053 O.2       20 UNK        -0.5000 
    114 N         -6.3664  -19.6496  -56.9360 N.am      21 UNK        -0.5000 
    115 CA        -4.9462  -19.3788  -57.1312 C.3       21 UNK         0.1400 
    116 CB        -4.6010  -19.3842  -58.6326 C.3       21 UNK        -0.1800 
    117 C         -4.1355  -20.4459  -56.3815 C.2       21 UNK         0.5000 
    118 O         -4.6551  -21.5316  -56.1141 O.2       21 UNK        -0.5000 
    119 N         -2.8710  -20.1345  -56.0765 N.am      22 UNK        -0.5000 
    120 CA        -1.9147  -21.0756  -55.4667 C.3       22 UNK         0.1400 
    121 C         -1.1787  -22.0065  -56.4765 C.2       22 UNK         0.5000 
    122 N         -1.3625  -21.8543  -57.7827 N.am      22 UNK        -0.7600 
    123 O         -0.4411  -22.8983  -56.0665 O.2       22 UNK        -0.5000 
    124 C124       -0.9380  -20.3649  -54.4981 C.3       23 UNK        -0.0398 
    125 S125        0.0951  -19.0516  -55.2432 S.3       23 UNK        -0.2404 
    126 C126       -0.4966  -17.5415  -54.3934 C.3       23 UNK        -0.0205 
    127 H127        3.7092  -15.4812  -52.3007 H         1 UNK         0.0600 
    128 H128        1.9847  -15.8558  -52.3210 H         1 UNK         0.0600 
    129 H129        3.1525  -17.1068  -51.8855 H         1 UNK         0.0600 
    130 H130        0.8503  -15.2551  -50.4967 H         1 UNK         0.3000 
    131 H131        1.7987  -15.5517  -47.8407 H         1 UNK         0.0600 
    132 H132       -0.4971  -15.7590  -47.8896 H         1 UNK         0.0800 
    133 H133       -0.3586  -14.1529  -47.3073 H         1 UNK         0.0800 
    134 H134       -3.0121  -15.3570  -50.6433 H         1 UNK         0.0800 
    135 H135       -2.6020  -16.1188  -49.1319 H         1 UNK         0.0800 
    136 H136       -1.8407  -15.9215  -52.7151 H         1 UNK         0.1150 
    137 H137        0.9784  -19.1571  -52.6468 H         1 UNK         0.1150 
    138 H138       -0.6281  -17.6175  -48.9950 H         1 UNK         0.1150 
    139 H139        0.8677  -20.5186  -50.2707 H         1 UNK         0.0800 
    140 H140        2.1949  -19.3913  -50.3708 H         1 UNK         0.0800 
    141 H141       -1.0480  -20.0519  -48.5847 H         1 UNK         0.0800 
    142 H142       -0.8595  -19.3746  -46.9857 H         1 UNK         0.0800 
    143 H143        0.3116  -22.0641  -47.8214 H         1 UNK         0.0600 
    144 H144        0.6800  -20.5743  -45.4420 H         1 UNK         0.3000 
    145 H145        1.7861  -23.3810  -43.4494 H         1 UNK         0.0600 
    146 H146        3.5978  -21.7197  -43.1941 H         1 UNK         0.0600 
    147 H147        3.6269  -22.4016  -44.8133 H         1 UNK         0.0600 
    148 H148        2.9843  -20.7855  -44.5546 H         1 UNK         0.0600 
    149 H149        1.2511  -20.6481  -42.7635 H         1 UNK         0.3000 
    150 H150       -2.0650  -21.1989  -41.5257 H         1 UNK         0.0600 
    151 H151       -0.5498  -21.9340  -39.6695 H         1 UNK         0.0600 
    152 H152       -1.0808  -20.2730  -39.4578 H         1 UNK         0.0600 
    153 H153        0.5491  -20.6097  -40.0395 H         1 UNK         0.0600 
    154 H154       -0.4768  -18.8630  -41.4844 H         1 UNK         0.3000 
    155 H155       -1.3697  -17.6418  -44.7585 H         1 UNK         0.0600 
    156 H156       -1.9226  -16.7499  -41.8788 H         1 UNK         0.0600 
    157 H157       -3.1368  -16.9867  -43.1292 H         1 UNK         0.0600 
    158 H158       -1.9375  -15.7128  -43.3024 H         1 UNK         0.0600 
    159 H159        0.3971  -16.5364  -42.8556 H         1 UNK         0.3000 
    160 H160        3.4011  -18.1839  -43.9312 H         1 UNK         0.0600 
    161 H161        2.3438  -15.3066  -44.0752 H         1 UNK         0.0600 
    162 H162        3.0371  -16.2276  -45.4046 H         1 UNK         0.0600 
    163 H163        4.0423  -15.7795  -44.0360 H         1 UNK         0.0600 
    164 H164        2.7403  -16.3338  -41.8137 H         1 UNK         0.3000 
    165 H165        2.3052  -18.7899  -39.2662 H         1 UNK         0.0600 
    166 H166        4.1552  -17.5052  -38.2323 H         1 UNK         0.0600 
    167 H167        4.7821  -18.5474  -39.4993 H         1 UNK         0.0600 
    168 H168        4.5985  -16.8228  -39.7973 H         1 UNK         0.0600 
    169 H169        2.3581  -15.9312  -39.2173 H         1 UNK         0.3000 
    170 H170       -1.0873  -15.3856  -39.9245 H         1 UNK         0.0600 
    171 H171       -1.0367  -16.0482  -37.5142 H         1 UNK         0.0600 
    172 H172        0.4733  -15.1722  -37.2938 H         1 UNK         0.0600 
    173 H173       -1.0065  -14.3023  -37.7004 H         1 UNK         0.0600 
    174 H174        0.9299  -13.5677  -39.1585 H         1 UNK         0.3000 
    175 H175        1.6038  -12.0072  -40.6885 H         1 UNK         0.0600 
    176 H176        3.5802  -13.8995  -42.0951 H         1 UNK         0.0600 
    177 H177        3.9318  -12.2538  -41.5729 H         1 UNK         0.0600 
    178 H178        3.5897  -13.4978  -40.3818 H         1 UNK         0.0600 
    179 H179        2.0755  -12.6200  -43.5208 H         1 UNK         0.3000 
    180 H180       -0.7108  -11.8132  -44.8141 H         1 UNK         0.0600 
    181 H181        0.6968   -9.1084  -44.5604 H         1 UNK         0.0600 
    182 H182       -1.0124   -9.4401  -44.3451 H         1 UNK         0.0600 
    183 H183       -0.2901   -9.6024  -45.9369 H         1 UNK         0.0600 
    184 H184        0.9775  -12.6272  -45.9560 H         1 UNK         0.3000 
    185 H185        3.7295  -11.5692  -47.3880 H         1 UNK         0.0600 
    186 H186        5.2216  -11.7875  -45.4184 H         1 UNK         0.0600 
    187 H187        4.3844  -13.2450  -44.9005 H         1 UNK         0.0600 
    188 H188        5.3139  -13.2392  -46.3992 H         1 UNK         0.0600 
    189 H189        2.8214  -14.2248  -46.5074 H         1 UNK         0.3000 
    190 H190       -1.9075  -21.5931  -45.0931 H         1 UNK         0.3000 
    191 H191       -4.2834  -22.5385  -46.2440 H         1 UNK         0.0600 
    192 H192       -3.2485  -22.8884  -43.3922 H         1 UNK         0.0600 
    193 H193       -4.9111  -23.1326  -43.9077 H         1 UNK         0.0600 
    194 H194       -4.1966  -21.5331  -44.0040 H         1 UNK         0.0600 
    195 H195       -1.4271  -24.3573  -45.2324 H         1 UNK         0.3000 
    196 H196       -2.7354  -26.9711  -45.7870 H         1 UNK         0.0600 
    197 H197       -0.6108  -27.8987  -44.8810 H         1 UNK         0.0600 
    198 H198       -1.3774  -26.8169  -43.7281 H         1 UNK         0.0600 
    199 H199        0.0227  -26.2734  -44.6474 H         1 UNK         0.0600 
    200 H200        0.1311  -25.0112  -46.7721 H         1 UNK         0.3000 
    201 H201        1.0242  -26.8881  -48.6895 H         1 UNK         0.0600 
    202 H202        2.5053  -25.3069  -47.4797 H         1 UNK         0.0600 
    203 H203        1.7721  -23.9410  -48.3173 H         1 UNK         0.0600 
    204 H204        2.7046  -25.1308  -49.2163 H         1 UNK         0.0600 
    205 H205       -1.0843  -24.0501  -49.0926 H         1 UNK         0.3000 
    206 H206       -1.1893  -24.5064  -52.0562 H         1 UNK         0.0600 
    207 H207        0.0480  -22.4274  -51.5016 H         1 UNK         0.0600 
    208 H208       -1.5053  -22.0342  -52.2165 H         1 UNK         0.0600 
    209 H209       -1.2834  -21.8732  -50.4834 H         1 UNK         0.0600 
    210 H210       -2.8943  -25.2211  -49.4452 H         1 UNK         0.3000 
    211 H211       -5.0119  -25.4134  -48.7843 H         1 UNK         0.0600 
    212 H212       -5.7281  -25.2435  -51.7596 H         1 UNK         0.0600 
    213 H213       -6.7170  -25.9436  -50.4857 H         1 UNK         0.0600 
    214 H214       -5.1947  -26.7010  -50.9232 H         1 UNK         0.0600 
    215 H215       -3.9450  -22.8505  -48.6204 H         1 UNK         0.3000 
    216 H216       -4.3903  -20.7805  -48.0488 H         1 UNK         0.0600 
    217 H217       -6.6129  -20.0297  -47.3866 H         1 UNK         0.0600 
    218 H218       -6.4329  -21.6947  -46.8634 H         1 UNK         0.0600 
    219 H219       -7.3942  -21.3157  -48.2905 H         1 UNK         0.0600 
    220 H220       -4.3360  -21.7485  -50.9648 H         1 UNK         0.3000 
    221 H221       -4.1679  -20.9103  -52.9846 H         1 UNK         0.0600 
    222 H222       -4.2746  -18.1140  -51.7388 H         1 UNK         0.0600 
    223 H223       -2.8331  -19.1193  -51.8336 H         1 UNK         0.0600 
    224 H224       -3.6077  -18.5484  -53.3058 H         1 UNK         0.0600 
    225 H225       -6.6623  -21.7662  -52.2500 H         1 UNK         0.3000 
    226 H226       -8.8540  -20.1147  -52.8712 H         1 UNK         0.0600 
    227 H227       -9.0607  -22.2929  -51.7181 H         1 UNK         0.0600 
    228 H228      -10.0469  -22.2973  -53.1733 H         1 UNK         0.0600 
    229 H229       -8.5061  -23.1481  -53.1556 H         1 UNK         0.0600 
    230 H230       -9.1964  -19.0646  -54.6821 H         1 UNK         0.3000 
    231 H231       -9.4213  -18.3706  -56.7437 H         1 UNK         0.0600 
    232 H232      -10.3888  -20.5630  -57.4391 H         1 UNK         0.0600 
    233 H233       -8.7767  -21.1570  -57.8368 H         1 UNK         0.0600 
    234 H234       -9.4593  -19.8070  -58.7241 H         1 UNK         0.0600 
    235 H235       -6.5699  -20.5552  -56.5176 H         1 UNK         0.3000 
    236 H236       -4.7121  -18.4029  -56.7009 H         1 UNK         0.0600 
    237 H237       -3.5394  -19.1937  -58.7931 H         1 UNK         0.0600 
    238 H238       -4.8377  -20.3441  -59.0934 H         1 UNK         0.0600 
    239 H239       -5.1486  -18.6115  -59.1721 H         1 UNK         0.0600 
    240 H240       -2.4947  -19.2361  -56.3434 H         1 UNK         0.3000 
    241 H241       -2.4869  -21.7649  -54.8420 H         1 UNK         0.0600 
    242 H242       -0.8854  -22.4685  -58.4240 H         1 UNK         0.3800 
    243 H243       -1.9664  -21.1317  -58.1375 H         1 UNK         0.3800 
    244 H244       -1.5140  -19.9477  -53.6747 H         1 UNK         0.0800 
    245 H245       -0.2659  -21.0902  -54.0369 H         1 UNK         0.0800 
    246 H246       -1.5192  -17.3519  -54.7230 H         1 UNK         0.0800 
    247 H247        0.1002  -16.6972  -54.7403 H         1 UNK         0.0800 
@<TRIPOS>BOND
     1    1    2 1    
     2    1  127 1    
     3    1  128 1    
     4    1  129 1    
     5    2    3 2    
     6    2    4 am   BACKBONE|DICT|INTERRES
     7    4    5 1    
     8    4  130 1    
     9    5    6 1    
    10    5   65 1    
    11    5  131 1    
    12    6    7 1    
    13    6  132 1    
    14    6  133 1    
    15    7    8 1    
    16    8    9 1    
    17    8  134 1    
    18    8  135 1    
    19    9   10 ar   
    20    9   14 ar   
    21   10   11 ar   
    22   10  136 1    
    23   11   12 ar   
    24   11  126 1    
    25   12   13 ar   
    26   12  137 1    
    27   13   14 ar   
    28   13   15 1    
    29   14  138 1    
    30   15   16 1    
    31   15  139 1    
    32   15  140 1    
    33   16   17 1    
    34   17   18 1    
    35   17  141 1    
    36   17  142 1    
    37   18   19 1    
    38   18   67 1    
    39   18  143 1    
    40   19   20 am   BACKBONE|DICT|INTERRES
    41   19  144 1    
    42   20   21 2    
    43   20   22 1    
    44   22   23 1    
    45   22   24 1    
    46   22  145 1    
    47   23  146 1    
    48   23  147 1    
    49   23  148 1    
    50   24   25 am   BACKBONE|DICT|INTERRES
    51   24  149 1    
    52   25   26 2    
    53   25   27 1    
    54   27   28 1    
    55   27   29 1    
    56   27  150 1    
    57   28  151 1    
    58   28  152 1    
    59   28  153 1    
    60   29   30 am   BACKBONE|DICT|INTERRES
    61   29  154 1    
    62   30   31 2    
    63   30   32 1    
    64   32   33 1    
    65   32   34 1    
    66   32  155 1    
    67   33  156 1    
    68   33  157 1    
    69   33  158 1    
    70   34   35 am   BACKBONE|DICT|INTERRES
    71   34  159 1    
    72   35   36 2    
    73   35   37 1    
    74   37   38 1    
    75   37   39 1    
    76   37  160 1    
    77   38  161 1    
    78   38  162 1    
    79   38  163 1    
    80   39   40 am   BACKBONE|DICT|INTERRES
    81   39  164 1    
    82   40   41 2    
    83   40   42 1    
    84   42   43 1    
    85   42   44 1    
    86   42  165 1    
    87   43  166 1    
    88   43  167 1    
    89   43  168 1    
    90   44   45 am   BACKBONE|DICT|INTERRES
    91   44  169 1    
    92   45   46 2    
    93   45   47 1    
    94   47   48 1    
    95   47   49 1    
    96   47  170 1    
    97   48  171 1    
    98   48  172 1    
    99   48  173 1    
   100   49   50 am   BACKBONE|DICT|INTERRES
   101   49  174 1    
   102   50   51 2    
   103   50   52 1    
   104   52   53 1    
   105   52   54 1    
   106   52  175 1    
   107   53  176 1    
   108   53  177 1    
   109   53  178 1    
   110   54   55 am   BACKBONE|DICT|INTERRES
   111   54  179 1    
   112   55   56 2    
   113   55   57 1    
   114   57   58 1    
   115   57   59 1    
   116   57  180 1    
   117   58  181 1    
   118   58  182 1    
   119   58  183 1    
   120   59   60 am   BACKBONE|DICT|INTERRES
   121   59  184 1    
   122   60   61 2    
   123   60   62 1    
   124   62   63 1    
   125   62   64 1    
   126   62  185 1    
   127   63  186 1    
   128   63  187 1    
   129   63  188 1    
   130   64   65 am   BACKBONE|DICT|INTERRES
   131   64  189 1    
   132   65   66 2    
   133   67   68 2    
   134   67   69 am   BACKBONE|DICT|INTERRES
   135   69   70 1    
   136   69  190 1    
   137   70   71 1    
   138   70   72 1    
   139   70  191 1    
   140   71  192 1    
   141   71  193 1    
   142   71  194 1    
   143   72   73 2    
   144   72   74 am   BACKBONE|DICT|INTERRES
   145   74   75 1    
   146   74  195 1    
   147   75   76 1    
   148   75   77 1    
   149   75  196 1    
   150   76  197 1    
   151   76  198 1    
   152   76  199 1    
   153   77   78 2    
   154   77   79 am   BACKBONE|DICT|INTERRES
   155   79   80 1    
   156   79  200 1    
   157   80   81 1    
   158   80   82 1    
   159   80  201 1    
   160   81  202 1    
   161   81  203 1    
   162   81  204 1    
   163   82   83 2    
   164   82   84 am   BACKBONE|DICT|INTERRES
   165   84   85 1    
   166   84  205 1    
   167   85   86 1    
   168   85   87 1    
   169   85  206 1    
   170   86  207 1    
   171   86  208 1    
   172   86  209 1    
   173   87   88 2    
   174   87   89 am   BACKBONE|DICT|INTERRES
   175   89   90 1    
   176   89  210 1    
   177   90   91 1    
   178   90   92 1    
   179   90  211 1    
   180   91  212 1    
   181   91  213 1    
   182   91  214 1    
   183   92   93 2    
   184   92   94 am   BACKBONE|DICT|INTERRES
   185   94   95 1    
   186   94  215 1    
   187   95   96 1    
   188   95   97 1    
   189   95  216 1    
   190   96  217 1    
   191   96  218 1    
   192   96  219 1    
   193   97   98 2    
   194   97   99 am   BACKBONE|DICT|INTERRES
   195   99  100 1    
   196   99  220 1    
   197  100  101 1    
   198  100  102 1    
   199  100  221 1    
   200  101  222 1    
   201  101  223 1    
   202  101  224 1    
   203  102  103 2    
   204  102  104 am   BACKBONE|DICT|INTERRES
   205  104  105 1    
   206  104  225 1    
   207  105  106 1    
   208  105  107 1    
   209  105  226 1    
   210  106  227 1    
   211  106  228 1    
   212  106  229 1    
   213  107  108 2    
   214  107  109 am   BACKBONE|DICT|INTERRES
   215  109  110 1    
   216  109  230 1    
   217  110  111 1    
   218  110  112 1    
   219  110  231 1    
   220  111  232 1    
   221  111  233 1    
   222  111  234 1    
   223  112  113 2    
   224  112  114 am   BACKBONE|DICT|INTERRES
   225  114  115 1    
   226  114  235 1    
   227  115  116 1    
   228  115  117 1    
   229  115  236 1    
   230  116  237 1    
   231  116  238 1    
   232  116  239 1    
   233  117  118 2    
   234  117  119 am   BACKBONE|DICT|INTERRES
   235  119  120 1    
   236  119  240 1    
   237  120  121 1    
   238  120  124 1    
   239  120  241 1    
   240  121  122 am   BACKBONE|DICT|INTERRES
   241  121  123 2    
   242  122  242 1    
   243  122  243 1    
   244  124  125 1    
   245  124  244 1    
   246  124  245 1    
   247  125  126 1    
   248  126  246 1    
   249  126  247 1    
@<TRIPOS>SUBSTRUCTURE
     1 UNK         1 GROUP             0       ****    0 ROOT    
