@<TRIPOS>MOLECULE
3R540
247   249    1
SMALL
USER_CHARGES


@<TRIPOS>ATOM
      1 CA         -0.4709  -10.5066  -48.0507 C.3       0 UNK        -0.1800 
      2 C          -0.0293  -11.4689  -46.9587 C.2       0 UNK         0.5000 
      3 O           0.7434  -11.0863  -46.0798 O.2       0 UNK        -0.5000 
      4 N          -0.5276  -12.7122  -46.9933 N.am      1 UNK        -0.5000 
      5 CA         -0.1807  -13.7838  -46.0498 C.3       1 UNK         0.1400 
      6 C6         -0.7999  -15.1426  -46.4447 C.3       23 UNK        -0.0398 
      7 S7         -0.1587  -15.7671  -48.0293 S.3       23 UNK        -0.2404 
      8 C8         -0.8948  -17.4264  -48.0052 C.3       23 UNK        -0.0205 
      9 C9         -0.3591  -18.3008  -49.1253 C.ar      23 UNK        -0.0193 
     10 C10        -0.8311  -18.1424  -50.4304 C.ar      23 UNK        -0.1150 
     11 C11        -0.3785  -18.9784  -51.4555 C.ar      23 UNK        -0.0193 
     12 C12         0.5553  -19.9781  -51.1620 C.ar      23 UNK        -0.1150 
     13 C13         1.0451  -20.1411  -49.8613 C.ar      23 UNK        -0.0193 
     14 C14         0.5897  -19.2890  -48.8515 C.ar      23 UNK        -0.1150 
     15 C15         2.0892  -21.2121  -49.5624 C.3       23 UNK        -0.0205 
     16 S16         1.4349  -22.5847  -48.5524 S.3       23 UNK        -0.2404 
     17 C17         2.0173  -22.1125  -46.8851 C.3       23 UNK        -0.0398 
     18 CA          1.2521  -22.7712  -45.7037 C.3       11 UNK         0.1400 
     19 N           1.8117  -22.3747  -44.4134 N.am      11 UNK        -0.5000 
     20 C           2.8006  -23.0308  -43.7955 C.2       10 UNK         0.5000 
     21 O           3.2951  -24.0725  -44.2296 O.2       10 UNK        -0.5000 
     22 CA          3.3681  -22.4335  -42.4955 C.3       10 UNK         0.1400 
     23 CB          4.8064  -21.9406  -42.7260 C.3       10 UNK        -0.1800 
     24 N           2.5756  -21.3288  -41.9507 N.am      10 UNK        -0.5000 
     25 C           1.5800  -21.4801  -41.0680 C.2       9 UNK         0.5000 
     26 O           1.1382  -22.5749  -40.7173 O.2       9 UNK        -0.5000 
     27 CA          0.9957  -20.1945  -40.4534 C.3       9 UNK         0.1400 
     28 CB          1.9534  -19.6108  -39.4028 C.3       9 UNK        -0.1800 
     29 N           0.6875  -19.1678  -41.4468 N.am      9 UNK        -0.5000 
     30 C          -0.3216  -19.2442  -42.3239 C.2       8 UNK         0.5000 
     31 O          -1.0906  -20.2008  -42.3950 O.2       8 UNK        -0.5000 
     32 CA         -0.4949  -18.0581  -43.2897 C.3       8 UNK         0.1400 
     33 CB         -1.2988  -16.9243  -42.6346 C.3       8 UNK        -0.1800 
     34 N           0.7938  -17.5468  -43.7547 N.am      8 UNK        -0.5000 
     35 C           1.5502  -18.1691  -44.6689 C.2       7 UNK         0.5000 
     36 O           1.1854  -19.1745  -45.2777 O.2       7 UNK        -0.5000 
     37 CA          2.9537  -17.5938  -44.9326 C.3       7 UNK         0.1400 
     38 CB          2.9141  -16.5686  -46.0727 C.3       7 UNK        -0.1800 
     39 N           3.5555  -16.9784  -43.7480 N.am      7 UNK        -0.5000 
     40 C           3.9526  -17.6618  -42.6656 C.2       6 UNK         0.5000 
     41 O           3.8449  -18.8808  -42.5522 O.2       6 UNK        -0.5000 
     42 CA          4.5152  -16.8421  -41.4922 C.3       6 UNK         0.1400 
     43 CB          6.0018  -16.5285  -41.7136 C.3       6 UNK        -0.1800 
     44 N           3.7857  -15.5954  -41.2635 N.am      6 UNK        -0.5000 
     45 C           2.4877  -15.4987  -40.9519 C.2       5 UNK         0.5000 
     46 O           1.7431  -16.4729  -40.8404 O.2       5 UNK        -0.5000 
     47 CA          1.9134  -14.0821  -40.7758 C.3       5 UNK         0.1400 
     48 CB          2.2656  -13.4941  -39.3973 C.3       5 UNK        -0.1800 
     49 N           2.2612  -13.1636  -41.8656 N.am      5 UNK        -0.5000 
     50 C           3.4478  -12.6383  -42.2040 C.2       4 UNK         0.5000 
     51 O           4.5016  -12.8697  -41.6101 O.2       4 UNK        -0.5000 
     52 CA          3.4584  -11.7126  -43.4350 C.3       4 UNK         0.1400 
     53 CB          3.6662  -12.5363  -44.7152 C.3       4 UNK        -0.1800 
     54 N           2.2310  -10.9246  -43.5635 N.am      4 UNK        -0.5000 
     55 C           1.8597   -9.9478  -42.7226 C.2       3 UNK         0.5000 
     56 O           2.5466   -9.5565  -41.7782 O.2       3 UNK        -0.5000 
     57 CA          0.4763   -9.3210  -42.9641 C.3       3 UNK         0.1400 
     58 CB          0.5448   -8.2336  -44.0478 C.3       3 UNK        -0.1800 
     59 N          -0.5080  -10.3340  -43.3449 N.am      3 UNK        -0.5000 
     60 C          -1.1337  -11.1427  -42.4774 C.2       2 UNK         0.5000 
     61 O          -0.9926  -11.0762  -41.2563 O.2       2 UNK        -0.5000 
     62 CA         -2.0658  -12.2167  -43.0713 C.3       2 UNK         0.1400 
     63 CB         -3.5014  -11.6822  -43.1840 C.3       2 UNK        -0.1800 
     64 N          -1.6265  -12.6910  -44.3844 N.am      2 UNK        -0.5000 
     65 C          -0.5410  -13.4496  -44.5889 C.2       1 UNK         0.5000 
     66 O           0.1831  -13.8623  -43.6842 O.2       1 UNK        -0.5000 
     67 C          -0.2663  -22.5318  -45.6857 C.2       11 UNK         0.5000 
     68 O          -1.0144  -23.4931  -45.5055 O.2       11 UNK        -0.5000 
     69 N          -0.6800  -21.2677  -45.8561 N.am      12 UNK        -0.5000 
     70 CA         -2.0321  -20.7975  -46.1870 C.3       12 UNK         0.1400 
     71 CB         -3.0953  -21.2796  -45.1799 C.3       12 UNK        -0.1800 
     72 C          -2.4421  -21.1563  -47.6301 C.2       12 UNK         0.5000 
     73 O          -2.0326  -22.1843  -48.1713 O.2       12 UNK        -0.5000 
     74 N          -3.2798  -20.2987  -48.2277 N.am      13 UNK        -0.5000 
     75 CA         -3.6973  -20.3757  -49.6318 C.3       13 UNK         0.1400 
     76 CB         -4.6051  -19.1757  -49.9430 C.3       13 UNK        -0.1800 
     77 C          -4.3926  -21.6940  -50.0195 C.2       13 UNK         0.5000 
     78 O          -4.2081  -22.1783  -51.1346 O.2       13 UNK        -0.5000 
     79 N          -5.1524  -22.2685  -49.0781 N.am      14 UNK        -0.5000 
     80 CA         -5.8689  -23.5328  -49.2420 C.3       14 UNK         0.1400 
     81 CB         -6.8099  -23.7290  -48.0443 C.3       14 UNK        -0.1800 
     82 C          -4.9517  -24.7598  -49.4172 C.2       14 UNK         0.5000 
     83 O          -5.3833  -25.7420  -50.0209 O.2       14 UNK        -0.5000 
     84 N          -3.7154  -24.6935  -48.9001 N.am      15 UNK        -0.5000 
     85 CA         -2.7239  -25.7642  -49.0239 C.3       15 UNK         0.1400 
     86 CB         -1.6771  -25.6254  -47.9108 C.3       15 UNK        -0.1800 
     87 C          -2.0377  -25.7775  -50.4005 C.2       15 UNK         0.5000 
     88 O          -1.5518  -26.8275  -50.8246 O.2       15 UNK        -0.5000 
     89 N          -2.0212  -24.6293  -51.0894 N.am      16 UNK        -0.5000 
     90 CA         -1.4335  -24.4416  -52.4141 C.3       16 UNK         0.1400 
     91 CB         -1.0221  -22.9674  -52.5525 C.3       16 UNK        -0.1800 
     92 C          -2.3996  -24.9228  -53.5169 C.2       16 UNK         0.5000 
     93 O          -2.8433  -24.1334  -54.3534 O.2       16 UNK        -0.5000 
     94 N          -2.7312  -26.2204  -53.4655 N.am      17 UNK        -0.5000 
     95 CA         -3.7226  -26.9620  -54.2541 C.3       17 UNK         0.1400 
     96 CB         -3.4611  -26.8592  -55.7704 C.3       17 UNK        -0.1800 
     97 C          -5.1711  -26.5839  -53.8925 C.2       17 UNK         0.5000 
     98 O          -5.9434  -27.4540  -53.4888 O.2       17 UNK        -0.5000 
     99 N          -5.4979  -25.2966  -54.0177 N.am      18 UNK        -0.5000 
    100 CA        -6.7590  -24.6663  -53.6530 C.3       18 UNK         0.1400 
    101 CB        -7.8762  -25.0663  -54.6347 C.3       18 UNK        -0.1800 
    102 C         -6.5287  -23.1537  -53.6979 C.2       18 UNK         0.5000 
    103 O         -5.7698  -22.6905  -54.5512 O.2       18 UNK        -0.5000 
    104 N         -7.2127  -22.3995  -52.8289 N.am      19 UNK        -0.5000 
    105 CA        -7.0436  -20.9472  -52.6879 C.3       19 UNK         0.1400 
    106 CB        -7.8233  -20.4678  -51.4540 C.3       19 UNK        -0.1800 
    107 C         -7.4386  -20.1329  -53.9362 C.2       19 UNK         0.5000 
    108 O         -6.9307  -19.0274  -54.1244 O.2       19 UNK        -0.5000 
    109 N         -8.3169  -20.6997  -54.7747 N.am      20 UNK        -0.5000 
    110 CA        -8.7156  -20.1403  -56.0665 C.3       20 UNK         0.1400 
    111 CB        -9.9906  -20.8533  -56.5428 C.3       20 UNK        -0.1800 
    112 C         -7.6112  -20.2415  -57.1389 C.2       20 UNK         0.5000 
    113 O         -7.6022  -19.4320  -58.0672 O.2       20 UNK        -0.5000 
    114 N         -6.7138  -21.2271  -57.0021 N.am      21 UNK        -0.5000 
    115 CA        -5.5772  -21.4494  -57.8940 C.3       21 UNK         0.1400 
    116 CB        -5.3917  -22.9614  -58.1110 C.3       21 UNK        -0.1800 
    117 C         -4.3044  -20.8200  -57.3077 C.2       21 UNK         0.5000 
    118 O         -3.6265  -20.0566  -57.9961 O.2       21 UNK        -0.5000 
    119 N         -4.0276  -21.1442  -56.0395 N.am      22 UNK        -0.5000 
    120 CA        -2.8586  -20.7426  -55.2513 C.3       22 UNK         0.1400 
    121 C         -1.5081  -21.1685  -55.9001 C.2       22 UNK         0.5000 
    122 N         -1.3196  -22.4593  -56.1392 N.am      22 UNK        -0.7600 
    123 O         -0.6400  -20.3529  -56.2003 O.2       22 UNK        -0.5000 
    124 C124       -2.9268  -19.2576  -54.7873 C.3       23 UNK        -0.0398 
    125 S125       -2.6767  -19.1182  -52.9884 S.3       23 UNK        -0.2404 
    126 C126       -0.8908  -18.7961  -52.8781 C.3       23 UNK        -0.0205 
    127 H127        0.3945  -10.1612  -48.6161 H         1 UNK         0.0600 
    128 H128       -0.9596   -9.6382  -47.6090 H         1 UNK         0.0600 
    129 H129       -1.1683  -10.9745  -48.7458 H         1 UNK         0.0600 
    130 H130       -1.1463  -12.9769  -47.7469 H         1 UNK         0.3000 
    131 H131        0.9046  -13.8857  -46.0833 H         1 UNK         0.0600 
    132 H132       -1.8875  -15.0716  -46.5047 H         1 UNK         0.0800 
    133 H133       -0.5802  -15.8936  -45.6840 H         1 UNK         0.0800 
    134 H134       -0.6932  -17.8933  -47.0405 H         1 UNK         0.0800 
    135 H135       -1.9792  -17.3431  -48.0911 H         1 UNK         0.0800 
    136 H136       -1.5605  -17.3746  -50.6475 H         1 UNK         0.1150 
    137 H137        0.9109  -20.6242  -51.9519 H         1 UNK         0.1150 
    138 H138        0.9663  -19.3974  -47.8474 H         1 UNK         0.1150 
    139 H139        2.4694  -21.6326  -50.4945 H         1 UNK         0.0800 
    140 H140        2.9496  -20.7567  -49.0701 H         1 UNK         0.0800 
    141 H141        2.0070  -21.0299  -46.7903 H         1 UNK         0.0800 
    142 H142        3.0695  -22.3936  -46.8260 H         1 UNK         0.0800 
    143 H143        1.3667  -23.8514  -45.8210 H         1 UNK         0.0600 
    144 H144        1.4317  -21.5396  -43.9893 H         1 UNK         0.3000 
    145 H145        3.4105  -23.2406  -41.7610 H         1 UNK         0.0600 
    146 H146        5.2291  -21.5126  -41.8168 H         1 UNK         0.0600 
    147 H147        5.4576  -22.7604  -43.0315 H         1 UNK         0.0600 
    148 H148        4.8505  -21.1806  -43.5070 H         1 UNK         0.0600 
    149 H149        2.9037  -20.3907  -42.1754 H         1 UNK         0.3000 
    150 H150        0.0667  -20.4624  -39.9454 H         1 UNK         0.0600 
    151 H151        2.1806  -20.3454  -38.6294 H         1 UNK         0.0600 
    152 H152        1.5151  -18.7430  -38.9094 H         1 UNK         0.0600 
    153 H153        2.8986  -19.2986  -39.8478 H         1 UNK         0.0600 
    154 H154        1.2391  -18.3167  -41.4099 H         1 UNK         0.3000 
    155 H155       -1.0636  -18.4129  -44.1516 H         1 UNK         0.0600 
    156 H156       -1.5091  -16.1268  -43.3461 H         1 UNK         0.0600 
    157 H157       -0.7698  -16.4857  -41.7885 H         1 UNK         0.0600 
    158 H158       -2.2586  -17.2895  -42.2671 H         1 UNK         0.0600 
    159 H159        1.1686  -16.7443  -43.2695 H         1 UNK         0.3000 
    160 H160        3.5914  -18.4236  -45.2450 H         1 UNK         0.0600 
    161 H161        2.3150  -15.6990  -45.8067 H         1 UNK         0.0600 
    162 H162        2.4833  -17.0046  -46.9753 H         1 UNK         0.0600 
    163 H163        3.9155  -16.2212  -46.3270 H         1 UNK         0.0600 
    164 H164        3.6687  -15.9760  -43.7549 H         1 UNK         0.3000 
    165 H165        4.4244  -17.4497  -40.5899 H         1 UNK         0.0600 
    166 H166        6.4309  -16.0250  -40.8470 H         1 UNK         0.0600 
    167 H167        6.5746  -17.4429  -41.8743 H         1 UNK         0.0600 
    168 H168        6.1538  -15.8869  -42.5825 H         1 UNK         0.0600 
    169 H169        4.3084  -14.7272  -41.3446 H         1 UNK         0.3000 
    170 H170        0.8273  -14.1806  -40.8184 H         1 UNK         0.0600 
    171 H171        1.9017  -14.1394  -38.5969 H         1 UNK         0.0600 
    172 H172        3.3413  -13.3824  -39.2601 H         1 UNK         0.0600 
    173 H173        1.8064  -12.5149  -39.2604 H         1 UNK         0.0600 
    174 H174        1.4903  -12.9895  -42.5025 H         1 UNK         0.3000 
    175 H175        4.2974  -11.0219  -43.3291 H         1 UNK         0.0600 
    176 H176        2.8628  -13.2578  -44.8631 H         1 UNK         0.0600 
    177 H177        3.7058  -11.8948  -45.5958 H         1 UNK         0.0600 
    178 H178        4.6036  -13.0925  -44.6745 H         1 UNK         0.0600 
    179 H179        1.6356  -11.1289  -44.3611 H         1 UNK         0.3000 
    180 H180        0.1549   -8.8464  -42.0343 H         1 UNK         0.0600 
    181 H181       -0.4272   -7.7626  -44.1948 H         1 UNK         0.0600 
    182 H182        0.8717   -8.6339  -45.0077 H         1 UNK         0.0600 
    183 H183        1.2470   -7.4483  -43.7654 H         1 UNK         0.0600 
    184 H184       -0.6341  -10.4893  -44.3354 H         1 UNK         0.3000 
    185 H185       -2.0709  -13.0665  -42.3850 H         1 UNK         0.0600 
    186 H186       -3.5650  -10.8394  -43.8735 H         1 UNK         0.0600 
    187 H187       -4.1840  -12.4563  -43.5348 H         1 UNK         0.0600 
    188 H188       -3.8683  -11.3419  -42.2147 H         1 UNK         0.0600 
    189 H189       -2.1637  -12.3881  -45.1840 H         1 UNK         0.3000 
    190 H190        0.0352  -20.5463  -45.8909 H         1 UNK         0.3000 
    191 H191       -1.9814  -19.7109  -46.1180 H         1 UNK         0.0600 
    192 H192       -3.3115  -22.3427  -45.2881 H         1 UNK         0.0600 
    193 H193       -4.0354  -20.7467  -45.3250 H         1 UNK         0.0600 
    194 H194       -2.7812  -21.1054  -44.1524 H         1 UNK         0.0600 
    195 H195       -3.6090  -19.4960  -47.7123 H         1 UNK         0.3000 
    196 H196       -2.7960  -20.2998  -50.2420 H         1 UNK         0.0600 
    197 H197       -5.4979  -19.1713  -49.3167 H         1 UNK         0.0600 
    198 H198       -4.0785  -18.2338  -49.7889 H         1 UNK         0.0600 
    199 H199       -4.9355  -19.1908  -50.9817 H         1 UNK         0.0600 
    200 H200       -5.2321  -21.8118  -48.1817 H         1 UNK         0.3000 
    201 H201       -6.4786  -23.4547  -50.1441 H         1 UNK         0.0600 
    202 H202       -6.2582  -23.7865  -47.1052 H         1 UNK         0.0600 
    203 H203       -7.3842  -24.6510  -48.1448 H         1 UNK         0.0600 
    204 H204       -7.5251  -22.9099  -47.9656 H         1 UNK         0.0600 
    205 H205       -3.4003  -23.8354  -48.4612 H         1 UNK         0.3000 
    206 H206       -3.2256  -26.7255  -48.8935 H         1 UNK         0.0600 
    207 H207       -2.1442  -25.6245  -46.9260 H         1 UNK         0.0600 
    208 H208       -0.9688  -26.4543  -47.9347 H         1 UNK         0.0600 
    209 H209       -1.1029  -24.7039  -48.0124 H         1 UNK         0.0600 
    210 H210       -2.4985  -23.8276  -50.6987 H         1 UNK         0.3000 
    211 H211       -0.5253  -25.0430  -52.4908 H         1 UNK         0.0600 
    212 H212       -1.8809  -22.2985  -52.5030 H         1 UNK         0.0600 
    213 H213       -0.5084  -22.7887  -53.4963 H         1 UNK         0.0600 
    214 H214       -0.3372  -22.6838  -51.7537 H         1 UNK         0.0600 
    215 H215       -2.3255  -26.7454  -52.6969 H         1 UNK         0.3000 
    216 H216       -3.5915  -28.0088  -53.9756 H         1 UNK         0.0600 
    217 H217       -4.1313  -27.5197  -56.3216 H         1 UNK         0.0600 
    218 H218       -3.6195  -25.8505  -56.1525 H         1 UNK         0.0600 
    219 H219       -2.4406  -27.1536  -56.0148 H         1 UNK         0.0600 
    220 H220       -4.7777  -24.6442  -54.3218 H         1 UNK         0.3000 
    221 H221       -7.0242  -24.9629  -52.6362 H         1 UNK         0.0600 
    222 H222       -8.0747  -26.1373  -54.6013 H         1 UNK         0.0600 
    223 H223       -7.6178  -24.8066  -55.6624 H         1 UNK         0.0600 
    224 H224       -8.8108  -24.5593  -54.3921 H         1 UNK         0.0600 
    225 H225       -7.8542  -22.8422  -52.1876 H         1 UNK         0.3000 
    226 H226       -5.9828  -20.7553  -52.5189 H         1 UNK         0.0600 
    227 H227       -8.8928  -20.6547  -51.5570 H         1 UNK         0.0600 
    228 H228       -7.4796  -20.9683  -50.5488 H         1 UNK         0.0600 
    229 H229       -7.6901  -19.3962  -51.2999 H         1 UNK         0.0600 
    230 H230       -8.6942  -21.6037  -54.5328 H         1 UNK         0.3000 
    231 H231       -8.9470  -19.0820  -55.9282 H         1 UNK         0.0600 
    232 H232       -9.8248  -21.9218  -56.6865 H         1 UNK         0.0600 
    233 H233      -10.3351  -20.4439  -57.4934 H         1 UNK         0.0600 
    234 H234      -10.8023  -20.7320  -55.8253 H         1 UNK         0.0600 
    235 H235       -6.7463  -21.8025  -56.1697 H         1 UNK         0.3000 
    236 H236       -5.7643  -20.9927  -58.8682 H         1 UNK         0.0600 
    237 H237       -4.5406  -23.1595  -58.7636 H         1 UNK         0.0600 
    238 H238       -5.2162  -23.4919  -57.1740 H         1 UNK         0.0600 
    239 H239       -6.2716  -23.4004  -58.5812 H         1 UNK         0.0600 
    240 H240       -4.6563  -21.7834  -55.5552 H         1 UNK         0.3000 
    241 H241       -2.9453  -21.3710  -54.3649 H         1 UNK         0.0600 
    242 H242       -0.4645  -22.7687  -56.5716 H         1 UNK         0.3800 
    243 H243       -1.9917  -23.1378  -55.7930 H         1 UNK         0.3800 
    244 H244       -3.9159  -18.8431  -54.9885 H         1 UNK         0.0800 
    245 H245       -2.2330  -18.6079  -55.3223 H         1 UNK         0.0800 
    246 H246       -0.3615  -19.4633  -53.5595 H         1 UNK         0.0800 
    247 H247       -0.6840  -17.7788  -53.2128 H         1 UNK         0.0800 
@<TRIPOS>BOND
     1    1    2 1    
     2    1  127 1    
     3    1  128 1    
     4    1  129 1    
     5    2    3 2    
     6    2    4 am   BACKBONE|DICT|INTERRES
     7    4    5 1    
     8    4  130 1    
     9    5    6 1    
    10    5   65 1    
    11    5  131 1    
    12    6    7 1    
    13    6  132 1    
    14    6  133 1    
    15    7    8 1    
    16    8    9 1    
    17    8  134 1    
    18    8  135 1    
    19    9   10 ar   
    20    9   14 ar   
    21   10   11 ar   
    22   10  136 1    
    23   11   12 ar   
    24   11  126 1    
    25   12   13 ar   
    26   12  137 1    
    27   13   14 ar   
    28   13   15 1    
    29   14  138 1    
    30   15   16 1    
    31   15  139 1    
    32   15  140 1    
    33   16   17 1    
    34   17   18 1    
    35   17  141 1    
    36   17  142 1    
    37   18   19 1    
    38   18   67 1    
    39   18  143 1    
    40   19   20 am   BACKBONE|DICT|INTERRES
    41   19  144 1    
    42   20   21 2    
    43   20   22 1    
    44   22   23 1    
    45   22   24 1    
    46   22  145 1    
    47   23  146 1    
    48   23  147 1    
    49   23  148 1    
    50   24   25 am   BACKBONE|DICT|INTERRES
    51   24  149 1    
    52   25   26 2    
    53   25   27 1    
    54   27   28 1    
    55   27   29 1    
    56   27  150 1    
    57   28  151 1    
    58   28  152 1    
    59   28  153 1    
    60   29   30 am   BACKBONE|DICT|INTERRES
    61   29  154 1    
    62   30   31 2    
    63   30   32 1    
    64   32   33 1    
    65   32   34 1    
    66   32  155 1    
    67   33  156 1    
    68   33  157 1    
    69   33  158 1    
    70   34   35 am   BACKBONE|DICT|INTERRES
    71   34  159 1    
    72   35   36 2    
    73   35   37 1    
    74   37   38 1    
    75   37   39 1    
    76   37  160 1    
    77   38  161 1    
    78   38  162 1    
    79   38  163 1    
    80   39   40 am   BACKBONE|DICT|INTERRES
    81   39  164 1    
    82   40   41 2    
    83   40   42 1    
    84   42   43 1    
    85   42   44 1    
    86   42  165 1    
    87   43  166 1    
    88   43  167 1    
    89   43  168 1    
    90   44   45 am   BACKBONE|DICT|INTERRES
    91   44  169 1    
    92   45   46 2    
    93   45   47 1    
    94   47   48 1    
    95   47   49 1    
    96   47  170 1    
    97   48  171 1    
    98   48  172 1    
    99   48  173 1    
   100   49   50 am   BACKBONE|DICT|INTERRES
   101   49  174 1    
   102   50   51 2    
   103   50   52 1    
   104   52   53 1    
   105   52   54 1    
   106   52  175 1    
   107   53  176 1    
   108   53  177 1    
   109   53  178 1    
   110   54   55 am   BACKBONE|DICT|INTERRES
   111   54  179 1    
   112   55   56 2    
   113   55   57 1    
   114   57   58 1    
   115   57   59 1    
   116   57  180 1    
   117   58  181 1    
   118   58  182 1    
   119   58  183 1    
   120   59   60 am   BACKBONE|DICT|INTERRES
   121   59  184 1    
   122   60   61 2    
   123   60   62 1    
   124   62   63 1    
   125   62   64 1    
   126   62  185 1    
   127   63  186 1    
   128   63  187 1    
   129   63  188 1    
   130   64   65 am   BACKBONE|DICT|INTERRES
   131   64  189 1    
   132   65   66 2    
   133   67   68 2    
   134   67   69 am   BACKBONE|DICT|INTERRES
   135   69   70 1    
   136   69  190 1    
   137   70   71 1    
   138   70   72 1    
   139   70  191 1    
   140   71  192 1    
   141   71  193 1    
   142   71  194 1    
   143   72   73 2    
   144   72   74 am   BACKBONE|DICT|INTERRES
   145   74   75 1    
   146   74  195 1    
   147   75   76 1    
   148   75   77 1    
   149   75  196 1    
   150   76  197 1    
   151   76  198 1    
   152   76  199 1    
   153   77   78 2    
   154   77   79 am   BACKBONE|DICT|INTERRES
   155   79   80 1    
   156   79  200 1    
   157   80   81 1    
   158   80   82 1    
   159   80  201 1    
   160   81  202 1    
   161   81  203 1    
   162   81  204 1    
   163   82   83 2    
   164   82   84 am   BACKBONE|DICT|INTERRES
   165   84   85 1    
   166   84  205 1    
   167   85   86 1    
   168   85   87 1    
   169   85  206 1    
   170   86  207 1    
   171   86  208 1    
   172   86  209 1    
   173   87   88 2    
   174   87   89 am   BACKBONE|DICT|INTERRES
   175   89   90 1    
   176   89  210 1    
   177   90   91 1    
   178   90   92 1    
   179   90  211 1    
   180   91  212 1    
   181   91  213 1    
   182   91  214 1    
   183   92   93 2    
   184   92   94 am   BACKBONE|DICT|INTERRES
   185   94   95 1    
   186   94  215 1    
   187   95   96 1    
   188   95   97 1    
   189   95  216 1    
   190   96  217 1    
   191   96  218 1    
   192   96  219 1    
   193   97   98 2    
   194   97   99 am   BACKBONE|DICT|INTERRES
   195   99  100 1    
   196   99  220 1    
   197  100  101 1    
   198  100  102 1    
   199  100  221 1    
   200  101  222 1    
   201  101  223 1    
   202  101  224 1    
   203  102  103 2    
   204  102  104 am   BACKBONE|DICT|INTERRES
   205  104  105 1    
   206  104  225 1    
   207  105  106 1    
   208  105  107 1    
   209  105  226 1    
   210  106  227 1    
   211  106  228 1    
   212  106  229 1    
   213  107  108 2    
   214  107  109 am   BACKBONE|DICT|INTERRES
   215  109  110 1    
   216  109  230 1    
   217  110  111 1    
   218  110  112 1    
   219  110  231 1    
   220  111  232 1    
   221  111  233 1    
   222  111  234 1    
   223  112  113 2    
   224  112  114 am   BACKBONE|DICT|INTERRES
   225  114  115 1    
   226  114  235 1    
   227  115  116 1    
   228  115  117 1    
   229  115  236 1    
   230  116  237 1    
   231  116  238 1    
   232  116  239 1    
   233  117  118 2    
   234  117  119 am   BACKBONE|DICT|INTERRES
   235  119  120 1    
   236  119  240 1    
   237  120  121 1    
   238  120  124 1    
   239  120  241 1    
   240  121  122 am   BACKBONE|DICT|INTERRES
   241  121  123 2    
   242  122  242 1    
   243  122  243 1    
   244  124  125 1    
   245  124  244 1    
   246  124  245 1    
   247  125  126 1    
   248  126  246 1    
   249  126  247 1    
@<TRIPOS>SUBSTRUCTURE
     1 UNK         1 GROUP             0       ****    0 ROOT    
