@<TRIPOS>MOLECULE
3R540
247   249    1
SMALL
USER_CHARGES


@<TRIPOS>ATOM
      1 CA         -1.0073  -13.3362  -49.4419 C.3       0 UNK        -0.1800 
      2 C           0.2213  -12.4683  -49.2060 C.2       0 UNK         0.5000 
      3 O           0.3792  -11.4394  -49.8637 O.2       0 UNK        -0.5000 
      4 N           1.0918  -12.8805  -48.2773 N.am      1 UNK        -0.5000 
      5 CA          2.2961  -12.1452  -47.8816 C.3       1 UNK         0.1400 
      6 C6          3.3449  -13.0596  -47.2018 C.3       23 UNK        -0.0398 
      7 S7          3.9214  -14.4018  -48.2976 S.3       23 UNK        -0.2404 
      8 C8          3.1972  -15.8677  -47.4967 C.3       23 UNK        -0.0205 
      9 C9          2.6395  -16.8469  -48.5181 C.ar      23 UNK        -0.0193 
     10 C10         1.4838  -16.5272  -49.2371 C.ar      23 UNK        -0.1150 
     11 C11         0.9169  -17.4345  -50.1360 C.ar      23 UNK        -0.0193 
     12 C12         1.5510  -18.6681  -50.3336 C.ar      23 UNK        -0.1150 
     13 C13         2.7034  -19.0070  -49.6182 C.ar      23 UNK        -0.0193 
     14 C14         3.2449  -18.0902  -48.7129 C.ar      23 UNK        -0.1150 
     15 C15         3.3461  -20.3776  -49.7980 C.3       23 UNK        -0.0205 
     16 S16         2.1793  -21.7518  -49.5093 S.3       23 UNK        -0.2404 
     17 C17         1.4609  -21.2724  -47.9017 C.3       23 UNK        -0.0398 
     18 CA          0.6685  -22.4020  -47.2075 C.3       11 UNK         0.1400 
     19 N           0.3946  -22.0662  -45.8090 N.am      11 UNK        -0.5000 
     20 C          -0.1129  -22.9085  -44.8998 C.2       10 UNK         0.5000 
     21 O          -0.3809  -24.0862  -45.1332 O.2       10 UNK        -0.5000 
     22 CA         -0.4107  -22.3262  -43.5069 C.3       10 UNK         0.1400 
     23 CB          0.8774  -22.2018  -42.6798 C.3       10 UNK        -0.1800 
     24 N          -1.0847  -21.0286  -43.5710 N.am      10 UNK        -0.5000 
     25 C          -2.3014  -20.8340  -44.1003 C.2       9 UNK         0.5000 
     26 O          -2.9997  -21.7371  -44.5605 O.2       9 UNK        -0.5000 
     27 CA         -2.8069  -19.3820  -44.1699 C.3       9 UNK         0.1400 
     28 CB         -3.3271  -18.9158  -42.8021 C.3       9 UNK        -0.1800 
     29 N          -1.7893  -18.4491  -44.6535 N.am      9 UNK        -0.5000 
     30 C          -1.2115  -18.5090  -45.8617 C.2       8 UNK         0.5000 
     31 O          -1.4885  -19.3489  -46.7155 O.2       8 UNK        -0.5000 
     32 CA         -0.0933  -17.4938  -46.1438 C.3       8 UNK         0.1400 
     33 CB         -0.6777  -16.1073  -46.4565 C.3       8 UNK        -0.1800 
     34 N           0.8655  -17.4044  -45.0422 N.am      8 UNK        -0.5000 
     35 C           1.6265  -18.4277  -44.6240 C.2       7 UNK         0.5000 
     36 O           1.6437  -19.5359  -45.1577 O.2       7 UNK        -0.5000 
     37 CA          2.4652  -18.1919  -43.3589 C.3       7 UNK         0.1400 
     38 CB          3.7812  -17.4783  -43.7022 C.3       7 UNK        -0.1800 
     39 N           1.7220  -17.4293  -42.3553 N.am      7 UNK        -0.5000 
     40 C           0.6630  -17.9069  -41.6834 C.2       6 UNK         0.5000 
     41 O           0.2366  -19.0549  -41.8062 O.2       6 UNK        -0.5000 
     42 CA         -0.0715  -16.9223  -40.7550 C.3       6 UNK         0.1400 
     43 CB          0.6094  -16.8628  -39.3798 C.3       6 UNK        -0.1800 
     44 N          -0.1485  -15.5739  -41.3184 N.am      6 UNK        -0.5000 
     45 C          -0.8346  -15.2507  -42.4243 C.2       5 UNK         0.5000 
     46 O          -1.5282  -16.0500  -43.0515 O.2       5 UNK        -0.5000 
     47 CA         -0.6796  -13.8085  -42.9425 C.3       5 UNK         0.1400 
     48 CB         -1.7753  -12.9027  -42.3630 C.3       5 UNK        -0.1800 
     49 N           0.6320  -13.2342  -42.6371 N.am      5 UNK        -0.5000 
     50 C           1.7962  -13.6616  -43.1405 C.2       4 UNK         0.5000 
     51 O           1.8775  -14.5857  -43.9532 O.2       4 UNK        -0.5000 
     52 CA          3.0678  -12.9552  -42.6193 C.3       4 UNK         0.1400 
     53 CB          4.3517  -13.4412  -43.3139 C.3       4 UNK        -0.1800 
     54 N           2.9975  -11.4978  -42.7339 N.am      4 UNK        -0.5000 
     55 C           2.3139  -10.6609  -41.9451 C.2       3 UNK         0.5000 
     56 O           1.6184  -11.0424  -41.0026 O.2       3 UNK        -0.5000 
     57 CA          2.3857   -9.1538  -42.2720 C.3       3 UNK         0.1400 
     58 CB          3.6593   -8.5170  -41.6839 C.3       3 UNK        -0.1800 
     59 N           2.2256   -8.8283  -43.6980 N.am      3 UNK        -0.5000 
     60 C           3.0350   -9.1250  -44.7234 C.2       2 UNK         0.5000 
     61 O           4.1130   -9.7142  -44.6099 O.2       2 UNK        -0.5000 
     62 CA          2.5383   -8.7323  -46.1260 C.3       2 UNK         0.1400 
     63 CB          3.3494   -7.5524  -46.6825 C.3       2 UNK        -0.1800 
     64 N           2.6447   -9.8684  -47.0415 N.am      2 UNK        -0.5000 
     65 C           1.9165  -10.9878  -46.9386 C.2       1 UNK         0.5000 
     66 O           1.0068  -11.1391  -46.1184 O.2       1 UNK        -0.5000 
     67 C          -0.6230  -22.7685  -47.9713 C.2       11 UNK         0.5000 
     68 O          -0.6474  -23.7838  -48.6666 O.2       11 UNK        -0.5000 
     69 N          -1.6872  -21.9748  -47.7866 N.am      12 UNK        -0.5000 
     70 CA         -3.0134  -22.2100  -48.3575 C.3       12 UNK         0.1400 
     71 CB         -3.9211  -21.0116  -48.0404 C.3       12 UNK        -0.1800 
     72 C          -3.6432  -23.5289  -47.8727 C.2       12 UNK         0.5000 
     73 O          -4.1702  -24.2867  -48.6887 O.2       12 UNK        -0.5000 
     74 N          -3.5360  -23.8019  -46.5645 N.am      13 UNK        -0.5000 
     75 CA         -3.9831  -25.0460  -45.9373 C.3       13 UNK         0.1400 
     76 CB         -3.9114  -24.9069  -44.4093 C.3       13 UNK        -0.1800 
     77 C          -3.1899  -26.2784  -46.4100 C.2       13 UNK         0.5000 
     78 O          -3.7858  -27.3380  -46.6041 O.2       13 UNK        -0.5000 
     79 N          -1.8726  -26.1184  -46.6025 N.am      14 UNK        -0.5000 
     80 CA         -0.9828  -27.1483  -47.1402 C.3       14 UNK         0.1400 
     81 CB          0.4812  -26.7311  -46.9327 C.3       14 UNK        -0.1800 
     82 C          -1.2604  -27.4562  -48.6231 C.2       14 UNK         0.5000 
     83 O          -1.2145  -28.6236  -49.0137 O.2       14 UNK        -0.5000 
     84 N          -1.5564  -26.4147  -49.4149 N.am      15 UNK        -0.5000 
     85 CA         -1.9630  -26.5224  -50.8164 C.3       15 UNK         0.1400 
     86 CB         -1.9871  -25.1275  -51.4622 C.3       15 UNK        -0.1800 
     87 C          -3.3229  -27.2257  -50.9704 C.2       15 UNK         0.5000 
     88 O          -3.4362  -28.1508  -51.7761 O.2       15 UNK        -0.5000 
     89 N          -4.3086  -26.7892  -50.1710 N.am      16 UNK        -0.5000 
     90 CA         -5.6751  -27.3036  -50.0112 C.3       16 UNK         0.1400 
     91 CB         -5.6692  -28.7541  -49.4927 C.3       16 UNK        -0.1800 
     92 C          -6.5718  -27.1610  -51.2570 C.2       16 UNK         0.5000 
     93 O          -7.6734  -26.6212  -51.1501 O.2       16 UNK        -0.5000 
     94 N          -6.0934  -27.6357  -52.4127 N.am      17 UNK        -0.5000 
     95 CA         -6.7167  -27.4699  -53.7223 C.3       17 UNK         0.1400 
     96 CB         -6.0351  -28.4082  -54.7298 C.3       17 UNK        -0.1800 
     97 C          -6.5988  -26.0020  -54.1602 C.2       17 UNK         0.5000 
     98 O          -5.4813  -25.4884  -54.2550 O.2       17 UNK        -0.5000 
     99 N          -7.7489  -25.3411  -54.3482 N.am      18 UNK        -0.5000 
    100 CA        -7.9545  -23.9075  -54.6094 C.3       18 UNK         0.1400 
    101 CB        -7.2721  -23.4593  -55.9149 C.3       18 UNK        -0.1800 
    102 C         -7.5686  -22.9907  -53.4287 C.2       18 UNK         0.5000 
    103 O         -8.3260  -22.0732  -53.1104 O.2       18 UNK        -0.5000 
    104 N         -6.4223  -23.2689  -52.7921 N.am      19 UNK        -0.5000 
    105 CA        -5.8536  -22.6892  -51.5702 C.3       19 UNK         0.1400 
    106 CB        -6.8064  -22.8892  -50.3760 C.3       19 UNK        -0.1800 
    107 C         -5.4109  -21.2203  -51.7111 C.2       19 UNK         0.5000 
    108 O         -4.2602  -20.9024  -51.4170 O.2       19 UNK        -0.5000 
    109 N         -6.3151  -20.3577  -52.1861 N.am      20 UNK        -0.5000 
    110 CA        -6.1060  -18.9230  -52.3959 C.3       20 UNK         0.1400 
    111 CB        -7.4752  -18.2255  -52.3614 C.3       20 UNK        -0.1800 
    112 C         -5.3591  -18.5912  -53.7048 C.2       20 UNK         0.5000 
    113 O         -5.0678  -17.4197  -53.9527 O.2       20 UNK        -0.5000 
    114 N         -5.0618  -19.6132  -54.5216 N.am      21 UNK        -0.5000 
    115 CA        -4.4216  -19.5211  -55.8389 C.3       21 UNK         0.1400 
    116 CB        -4.3500  -20.9275  -56.4527 C.3       21 UNK        -0.1800 
    117 C         -3.0298  -18.8552  -55.8518 C.2       21 UNK         0.5000 
    118 O         -2.6021  -18.3808  -56.9052 O.2       21 UNK        -0.5000 
    119 N         -2.3588  -18.8115  -54.6943 N.am      22 UNK        -0.5000 
    120 CA        -1.1216  -18.0487  -54.4737 C.3       22 UNK         0.1400 
    121 C         -1.2991  -16.4989  -54.4595 C.2       22 UNK         0.5000 
    122 N         -2.5110  -15.9615  -54.3675 N.am      22 UNK        -0.7600 
    123 O         -0.3144  -15.7703  -54.5446 O.2       22 UNK        -0.5000 
    124 C124       -0.3587  -18.5563  -53.2242 C.3       23 UNK        -0.0398 
    125 S125       -1.2980  -18.3884  -51.6626 S.3       23 UNK        -0.2404 
    126 C126       -0.3804  -17.0347  -50.8452 C.3       23 UNK        -0.0205 
    127 H127       -0.9689  -13.7779  -50.4377 H         1 UNK         0.0600 
    128 H128       -1.0811  -14.1423  -48.7132 H         1 UNK         0.0600 
    129 H129       -1.9125  -12.7334  -49.3697 H         1 UNK         0.0600 
    130 H130        0.8867  -13.7004  -47.7291 H         1 UNK         0.3000 
    131 H131        2.7507  -11.7212  -48.7800 H         1 UNK         0.0600 
    132 H132        2.9483  -13.4744  -46.2742 H         1 UNK         0.0800 
    133 H133        4.2235  -12.4781  -46.9162 H         1 UNK         0.0800 
    134 H134        3.9598  -16.3425  -46.8776 H         1 UNK         0.0800 
    135 H135        2.3967  -15.5826  -46.8157 H         1 UNK         0.0800 
    136 H136        1.0109  -15.5701  -49.0801 H         1 UNK         0.1150 
    137 H137        1.1424  -19.3946  -51.0190 H         1 UNK         0.1150 
    138 H138        4.1292  -18.3498  -48.1481 H         1 UNK         0.1150 
    139 H139        3.7418  -20.4545  -50.8114 H         1 UNK         0.0800 
    140 H140        4.1963  -20.4966  -49.1246 H         1 UNK         0.0800 
    141 H141        0.8343  -20.3880  -48.0312 H         1 UNK         0.0800 
    142 H142        2.2897  -20.9652  -47.2628 H         1 UNK         0.0800 
    143 H143        1.3010  -23.2922  -47.1954 H         1 UNK         0.0600 
    144 H144        0.6196  -21.1164  -45.5244 H         1 UNK         0.3000 
    145 H145       -1.0772  -23.0219  -42.9931 H         1 UNK         0.0600 
    146 H146        0.6616  -21.8738  -41.6628 H         1 UNK         0.0600 
    147 H147        1.3915  -23.1612  -42.6102 H         1 UNK         0.0600 
    148 H148        1.5725  -21.4867  -43.1206 H         1 UNK         0.0600 
    149 H149       -0.5880  -20.2374  -43.1728 H         1 UNK         0.3000 
    150 H150       -3.6394  -19.3552  -44.8757 H         1 UNK         0.0600 
    151 H151       -4.1056  -19.5840  -42.4319 H         1 UNK         0.0600 
    152 H152       -3.7581  -17.9164  -42.8647 H         1 UNK         0.0600 
    153 H153       -2.5330  -18.8902  -42.0556 H         1 UNK         0.0600 
    154 H154       -1.5318  -17.6919  -44.0260 H         1 UNK         0.3000 
    155 H155        0.4485  -17.8474  -47.0216 H         1 UNK         0.0600 
    156 H156       -1.3003  -15.7338  -45.6447 H         1 UNK         0.0600 
    157 H157       -1.3026  -16.1507  -47.3491 H         1 UNK         0.0600 
    158 H158        0.1035  -15.3717  -46.6376 H         1 UNK         0.0600 
    159 H159        0.9296  -16.5208  -44.5523 H         1 UNK         0.3000 
    160 H160        2.7109  -19.1659  -42.9305 H         1 UNK         0.0600 
    161 H161        4.3741  -17.2856  -42.8081 H         1 UNK         0.0600 
    162 H162        3.6092  -16.5278  -44.2060 H         1 UNK         0.0600 
    163 H163        4.3884  -18.0909  -44.3697 H         1 UNK         0.0600 
    164 H164        1.9801  -16.4612  -42.2369 H         1 UNK         0.3000 
    165 H165       -1.0901  -17.2909  -40.6170 H         1 UNK         0.0600 
    166 H166        0.0536  -16.2251  -38.6921 H         1 UNK         0.0600 
    167 H167        0.6641  -17.8547  -38.9291 H         1 UNK         0.0600 
    168 H168        1.6271  -16.4766  -39.4485 H         1 UNK         0.0600 
    169 H169        0.3869  -14.8530  -40.8578 H         1 UNK         0.3000 
    170 H170       -0.7920  -13.8319  -44.0284 H         1 UNK         0.0600 
    171 H171       -2.7673  -13.2941  -42.5925 H         1 UNK         0.0600 
    172 H172       -1.6968  -12.8186  -41.2784 H         1 UNK         0.0600 
    173 H173       -1.7176  -11.8982  -42.7827 H         1 UNK         0.0600 
    174 H174        0.6613  -12.4665  -41.9735 H         1 UNK         0.3000 
    175 H175        3.1542  -13.2102  -41.5612 H         1 UNK         0.0600 
    176 H176        4.3464  -13.2140  -44.3792 H         1 UNK         0.0600 
    177 H177        5.2340  -12.9711  -42.8794 H         1 UNK         0.0600 
    178 H178        4.4769  -14.5183  -43.2037 H         1 UNK         0.0600 
    179 H179        3.5233  -11.0754  -43.4949 H         1 UNK         0.3000 
    180 H180        1.5341   -8.6902  -41.7716 H         1 UNK         0.0600 
    181 H181        4.5673   -8.9452  -42.1090 H         1 UNK         0.0600 
    182 H182        3.7051   -8.6689  -40.6048 H         1 UNK         0.0600 
    183 H183        3.6803   -7.4418  -41.8615 H         1 UNK         0.0600 
    184 H184        1.3502   -8.3746  -43.9206 H         1 UNK         0.3000 
    185 H185        1.4892   -8.4339  -46.0688 H         1 UNK         0.0600 
    186 H186        3.2731   -6.6839  -46.0269 H         1 UNK         0.0600 
    187 H187        4.4077   -7.7992  -46.7779 H         1 UNK         0.0600 
    188 H188        2.9847   -7.2506  -47.6646 H         1 UNK         0.0600 
    189 H189        3.3928   -9.8257  -47.7183 H         1 UNK         0.3000 
    190 H190       -1.5829  -21.1284  -47.2310 H         1 UNK         0.3000 
    191 H191       -2.9000  -22.2759  -49.4413 H         1 UNK         0.0600 
    192 H192       -4.0252  -20.8560  -46.9667 H         1 UNK         0.0600 
    193 H193       -4.9202  -21.1476  -48.4499 H         1 UNK         0.0600 
    194 H194       -3.5210  -20.0949  -48.4744 H         1 UNK         0.0600 
    195 H195       -3.1261  -23.1051  -45.9486 H         1 UNK         0.3000 
    196 H196       -5.0279  -25.2006  -46.2145 H         1 UNK         0.0600 
    197 H197       -2.8936  -24.7110  -44.0704 H         1 UNK         0.0600 
    198 H198       -4.2533  -25.8178  -43.9166 H         1 UNK         0.0600 
    199 H199       -4.5428  -24.0905  -44.0584 H         1 UNK         0.0600 
    200 H200       -1.4437  -25.2336  -46.3492 H         1 UNK         0.3000 
    201 H201       -1.1529  -28.0666  -46.5744 H         1 UNK         0.0600 
    202 H202        0.7039  -26.5892  -45.8750 H         1 UNK         0.0600 
    203 H203        0.7139  -25.8008  -47.4509 H         1 UNK         0.0600 
    204 H204        1.1621  -27.4956  -47.3086 H         1 UNK         0.0600 
    205 H205       -1.4897  -25.4764  -49.0297 H         1 UNK         0.3000 
    206 H206       -1.2151  -27.1231  -51.3382 H         1 UNK         0.0600 
    207 H207       -0.9998  -24.6660  -51.4364 H         1 UNK         0.0600 
    208 H208       -2.2935  -25.1856  -52.5075 H         1 UNK         0.0600 
    209 H209       -2.6794  -24.4561  -50.9544 H         1 UNK         0.0600 
    210 H210       -4.1042  -25.9804  -49.5884 H         1 UNK         0.3000 
    211 H211       -6.1231  -26.6838  -49.2327 H         1 UNK         0.0600 
    212 H212       -5.2355  -29.4462  -50.2149 H         1 UNK         0.0600 
    213 H213       -6.6834  -29.0957  -49.2825 H         1 UNK         0.0600 
    214 H214       -5.0996  -28.8378  -48.5671 H         1 UNK         0.0600 
    215 H215       -5.1448  -28.0037  -52.3996 H         1 UNK         0.3000 
    216 H216       -7.7699  -27.7484  -53.6477 H         1 UNK         0.0600 
    217 H217       -6.4796  -28.3058  -55.7205 H         1 UNK         0.0600 
    218 H218       -6.1417  -29.4511  -54.4306 H         1 UNK         0.0600 
    219 H219       -4.9693  -28.1946  -54.8230 H         1 UNK         0.0600 
    220 H220       -8.6040  -25.8584  -54.1960 H         1 UNK         0.3000 
    221 H221       -9.0300  -23.7896  -54.7515 H         1 UNK         0.0600 
    222 H222       -6.1855  -23.5182  -55.8518 H         1 UNK         0.0600 
    223 H223       -7.5920  -24.0730  -56.7569 H         1 UNK         0.0600 
    224 H224       -7.5303  -22.4262  -56.1500 H         1 UNK         0.0600 
    225 H225       -5.8785  -24.0282  -53.1969 H         1 UNK         0.3000 
    226 H226       -4.9529  -23.2698  -51.3634 H         1 UNK         0.0600 
    227 H227       -7.0742  -23.9397  -50.2622 H         1 UNK         0.0600 
    228 H228       -6.3403  -22.5785  -49.4430 H         1 UNK         0.0600 
    229 H229       -7.7288  -22.3185  -50.4845 H         1 UNK         0.0600 
    230 H230       -7.2220  -20.7360  -52.4508 H         1 UNK         0.3000 
    231 H231       -5.5028  -18.5328  -51.5734 H         1 UNK         0.0600 
    232 H232       -7.3705  -17.1452  -52.4709 H         1 UNK         0.0600 
    233 H233       -7.9852  -18.4058  -51.4149 H         1 UNK         0.0600 
    234 H234       -8.1243  -18.5769  -53.1645 H         1 UNK         0.0600 
    235 H235       -5.3325  -20.5367  -54.2196 H         1 UNK         0.3000 
    236 H236       -5.0681  -18.9079  -56.4698 H         1 UNK         0.0600 
    237 H237       -3.8554  -20.9093  -57.4248 H         1 UNK         0.0600 
    238 H238       -3.7970  -21.6184  -55.8151 H         1 UNK         0.0600 
    239 H239       -5.3473  -21.3354  -56.6106 H         1 UNK         0.0600 
    240 H240       -2.7846  -19.2117  -53.8708 H         1 UNK         0.3000 
    241 H241       -0.4753  -18.2516  -55.3298 H         1 UNK         0.0600 
    242 H242       -2.6072  -14.9589  -54.3669 H         1 UNK         0.3800 
    243 H243       -3.3389  -16.5423  -54.2748 H         1 UNK         0.3800 
    244 H244       -0.1182  -19.6123  -53.3527 H         1 UNK         0.0800 
    245 H245        0.6044  -18.0502  -53.1369 H         1 UNK         0.0800 
    246 H246       -0.1641  -16.2498  -51.5712 H         1 UNK         0.0800 
    247 H247       -1.0528  -16.5914  -50.1093 H         1 UNK         0.0800 
@<TRIPOS>BOND
     1    1    2 1    
     2    1  127 1    
     3    1  128 1    
     4    1  129 1    
     5    2    3 2    
     6    2    4 am   BACKBONE|DICT|INTERRES
     7    4    5 1    
     8    4  130 1    
     9    5    6 1    
    10    5   65 1    
    11    5  131 1    
    12    6    7 1    
    13    6  132 1    
    14    6  133 1    
    15    7    8 1    
    16    8    9 1    
    17    8  134 1    
    18    8  135 1    
    19    9   10 ar   
    20    9   14 ar   
    21   10   11 ar   
    22   10  136 1    
    23   11   12 ar   
    24   11  126 1    
    25   12   13 ar   
    26   12  137 1    
    27   13   14 ar   
    28   13   15 1    
    29   14  138 1    
    30   15   16 1    
    31   15  139 1    
    32   15  140 1    
    33   16   17 1    
    34   17   18 1    
    35   17  141 1    
    36   17  142 1    
    37   18   19 1    
    38   18   67 1    
    39   18  143 1    
    40   19   20 am   BACKBONE|DICT|INTERRES
    41   19  144 1    
    42   20   21 2    
    43   20   22 1    
    44   22   23 1    
    45   22   24 1    
    46   22  145 1    
    47   23  146 1    
    48   23  147 1    
    49   23  148 1    
    50   24   25 am   BACKBONE|DICT|INTERRES
    51   24  149 1    
    52   25   26 2    
    53   25   27 1    
    54   27   28 1    
    55   27   29 1    
    56   27  150 1    
    57   28  151 1    
    58   28  152 1    
    59   28  153 1    
    60   29   30 am   BACKBONE|DICT|INTERRES
    61   29  154 1    
    62   30   31 2    
    63   30   32 1    
    64   32   33 1    
    65   32   34 1    
    66   32  155 1    
    67   33  156 1    
    68   33  157 1    
    69   33  158 1    
    70   34   35 am   BACKBONE|DICT|INTERRES
    71   34  159 1    
    72   35   36 2    
    73   35   37 1    
    74   37   38 1    
    75   37   39 1    
    76   37  160 1    
    77   38  161 1    
    78   38  162 1    
    79   38  163 1    
    80   39   40 am   BACKBONE|DICT|INTERRES
    81   39  164 1    
    82   40   41 2    
    83   40   42 1    
    84   42   43 1    
    85   42   44 1    
    86   42  165 1    
    87   43  166 1    
    88   43  167 1    
    89   43  168 1    
    90   44   45 am   BACKBONE|DICT|INTERRES
    91   44  169 1    
    92   45   46 2    
    93   45   47 1    
    94   47   48 1    
    95   47   49 1    
    96   47  170 1    
    97   48  171 1    
    98   48  172 1    
    99   48  173 1    
   100   49   50 am   BACKBONE|DICT|INTERRES
   101   49  174 1    
   102   50   51 2    
   103   50   52 1    
   104   52   53 1    
   105   52   54 1    
   106   52  175 1    
   107   53  176 1    
   108   53  177 1    
   109   53  178 1    
   110   54   55 am   BACKBONE|DICT|INTERRES
   111   54  179 1    
   112   55   56 2    
   113   55   57 1    
   114   57   58 1    
   115   57   59 1    
   116   57  180 1    
   117   58  181 1    
   118   58  182 1    
   119   58  183 1    
   120   59   60 am   BACKBONE|DICT|INTERRES
   121   59  184 1    
   122   60   61 2    
   123   60   62 1    
   124   62   63 1    
   125   62   64 1    
   126   62  185 1    
   127   63  186 1    
   128   63  187 1    
   129   63  188 1    
   130   64   65 am   BACKBONE|DICT|INTERRES
   131   64  189 1    
   132   65   66 2    
   133   67   68 2    
   134   67   69 am   BACKBONE|DICT|INTERRES
   135   69   70 1    
   136   69  190 1    
   137   70   71 1    
   138   70   72 1    
   139   70  191 1    
   140   71  192 1    
   141   71  193 1    
   142   71  194 1    
   143   72   73 2    
   144   72   74 am   BACKBONE|DICT|INTERRES
   145   74   75 1    
   146   74  195 1    
   147   75   76 1    
   148   75   77 1    
   149   75  196 1    
   150   76  197 1    
   151   76  198 1    
   152   76  199 1    
   153   77   78 2    
   154   77   79 am   BACKBONE|DICT|INTERRES
   155   79   80 1    
   156   79  200 1    
   157   80   81 1    
   158   80   82 1    
   159   80  201 1    
   160   81  202 1    
   161   81  203 1    
   162   81  204 1    
   163   82   83 2    
   164   82   84 am   BACKBONE|DICT|INTERRES
   165   84   85 1    
   166   84  205 1    
   167   85   86 1    
   168   85   87 1    
   169   85  206 1    
   170   86  207 1    
   171   86  208 1    
   172   86  209 1    
   173   87   88 2    
   174   87   89 am   BACKBONE|DICT|INTERRES
   175   89   90 1    
   176   89  210 1    
   177   90   91 1    
   178   90   92 1    
   179   90  211 1    
   180   91  212 1    
   181   91  213 1    
   182   91  214 1    
   183   92   93 2    
   184   92   94 am   BACKBONE|DICT|INTERRES
   185   94   95 1    
   186   94  215 1    
   187   95   96 1    
   188   95   97 1    
   189   95  216 1    
   190   96  217 1    
   191   96  218 1    
   192   96  219 1    
   193   97   98 2    
   194   97   99 am   BACKBONE|DICT|INTERRES
   195   99  100 1    
   196   99  220 1    
   197  100  101 1    
   198  100  102 1    
   199  100  221 1    
   200  101  222 1    
   201  101  223 1    
   202  101  224 1    
   203  102  103 2    
   204  102  104 am   BACKBONE|DICT|INTERRES
   205  104  105 1    
   206  104  225 1    
   207  105  106 1    
   208  105  107 1    
   209  105  226 1    
   210  106  227 1    
   211  106  228 1    
   212  106  229 1    
   213  107  108 2    
   214  107  109 am   BACKBONE|DICT|INTERRES
   215  109  110 1    
   216  109  230 1    
   217  110  111 1    
   218  110  112 1    
   219  110  231 1    
   220  111  232 1    
   221  111  233 1    
   222  111  234 1    
   223  112  113 2    
   224  112  114 am   BACKBONE|DICT|INTERRES
   225  114  115 1    
   226  114  235 1    
   227  115  116 1    
   228  115  117 1    
   229  115  236 1    
   230  116  237 1    
   231  116  238 1    
   232  116  239 1    
   233  117  118 2    
   234  117  119 am   BACKBONE|DICT|INTERRES
   235  119  120 1    
   236  119  240 1    
   237  120  121 1    
   238  120  124 1    
   239  120  241 1    
   240  121  122 am   BACKBONE|DICT|INTERRES
   241  121  123 2    
   242  122  242 1    
   243  122  243 1    
   244  124  125 1    
   245  124  244 1    
   246  124  245 1    
   247  125  126 1    
   248  126  246 1    
   249  126  247 1    
@<TRIPOS>SUBSTRUCTURE
     1 UNK         1 GROUP             0       ****    0 ROOT    
