@<TRIPOS>MOLECULE
3R540
247   249    1
SMALL
USER_CHARGES


@<TRIPOS>ATOM
      1 CA          1.1424  -14.9082  -51.9024 C.3       0 UNK        -0.1800 
      2 C           0.1192  -14.0763  -51.1305 C.2       0 UNK         0.5000 
      3 O          -0.7076  -13.4118  -51.7519 O.2       0 UNK        -0.5000 
      4 N           0.1258  -14.0749  -49.7910 N.am      1 UNK        -0.5000 
      5 CA          1.0567  -14.7877  -48.9097 C.3       1 UNK         0.1400 
      6 C6          0.4762  -14.9687  -47.4873 C.3       23 UNK        -0.0398 
      7 S7         -0.9123  -16.1431  -47.5085 S.3       23 UNK        -0.2404 
      8 C8         -2.3469  -15.0420  -47.3163 C.3       23 UNK        -0.0205 
      9 C9         -3.6021  -15.7454  -47.7974 C.ar      23 UNK        -0.0193 
     10 C10        -4.2189  -15.3449  -48.9830 C.ar      23 UNK        -0.1150 
     11 C11        -5.3169  -16.0471  -49.4849 C.ar      23 UNK        -0.0193 
     12 C12        -5.8006  -17.1582  -48.7845 C.ar      23 UNK        -0.1150 
     13 C13        -5.2057  -17.5532  -47.5803 C.ar      23 UNK        -0.0193 
     14 C14        -4.1211  -16.8264  -47.0821 C.ar      23 UNK        -0.1150 
     15 C15        -5.7379  -18.7566  -46.8137 C.3       23 UNK        -0.0205 
     16 S16        -4.9594  -20.3185  -47.3428 S.3       23 UNK        -0.2404 
     17 C17        -3.3547  -20.2634  -46.4746 C.3       23 UNK        -0.0398 
     18 CA         -2.2574  -21.0840  -47.1973 C.3       11 UNK         0.1400 
     19 N          -0.9853  -20.3604  -47.2893 N.am      11 UNK        -0.5000 
     20 C           0.0336  -20.7416  -48.0728 C.2       10 UNK         0.5000 
     21 O          -0.0063  -21.7260  -48.8069 O.2       10 UNK        -0.5000 
     22 CA          1.3353  -19.9275  -47.9969 C.3       10 UNK         0.1400 
     23 CB          1.3683  -18.8598  -49.0996 C.3       10 UNK        -0.1800 
     24 N           1.5681  -19.3017  -46.6942 N.am      10 UNK        -0.5000 
     25 C           1.7283  -19.9624  -45.5383 C.2       9 UNK         0.5000 
     26 O           1.6139  -21.1863  -45.4399 O.2       9 UNK        -0.5000 
     27 CA          2.0692  -19.1258  -44.2898 C.3       9 UNK         0.1400 
     28 CB          2.2403  -17.6187  -44.5856 C.3       9 UNK        -0.1800 
     29 N           1.0253  -19.3174  -43.2832 N.am      9 UNK        -0.5000 
     30 C           1.0930  -20.1748  -42.2529 C.2       8 UNK         0.5000 
     31 O           2.0961  -20.8408  -41.9939 O.2       8 UNK        -0.5000 
     32 CA         -0.1516  -20.3283  -41.3497 C.3       8 UNK         0.1400 
     33 CB          0.1774  -20.0442  -39.8748 C.3       8 UNK        -0.1800 
     34 N          -1.2572  -19.4603  -41.7512 N.am      8 UNK        -0.5000 
     35 C          -2.2967  -19.8307  -42.5108 C.2       7 UNK         0.5000 
     36 O          -2.4734  -20.9749  -42.9254 O.2       7 UNK        -0.5000 
     37 CA         -3.2924  -18.7215  -42.9096 C.3       7 UNK         0.1400 
     38 CB         -4.4520  -18.6514  -41.9060 C.3       7 UNK        -0.1800 
     39 N          -2.6792  -17.3977  -43.0266 N.am      7 UNK        -0.5000 
     40 C          -1.6567  -17.0858  -43.8341 C.2       6 UNK         0.5000 
     41 O          -1.1471  -17.8856  -44.6202 O.2       6 UNK        -0.5000 
     42 CA         -1.0802  -15.6622  -43.7115 C.3       6 UNK         0.1400 
     43 CB         -2.1300  -14.6183  -43.2745 C.3       6 UNK        -0.1800 
     44 N           0.0975  -15.5735  -42.8428 N.am      6 UNK        -0.5000 
     45 C           0.2268  -15.9825  -41.5687 C.2       5 UNK         0.5000 
     46 O          -0.5967  -16.6867  -40.9835 O.2       5 UNK        -0.5000 
     47 CA          1.4702  -15.4907  -40.7927 C.3       5 UNK         0.1400 
     48 CB          2.4915  -16.6184  -40.5767 C.3       5 UNK        -0.1800 
     49 N           2.1435  -14.3514  -41.4215 N.am      5 UNK        -0.5000 
     50 C           1.6264  -13.1201  -41.5461 C.2       4 UNK         0.5000 
     51 O           0.5493  -12.7834  -41.0535 O.2       4 UNK        -0.5000 
     52 CA          2.4278  -12.0939  -42.3737 C.3       4 UNK         0.1400 
     53 CB          2.9811  -10.9842  -41.4653 C.3       4 UNK        -0.1800 
     54 N           3.5368  -12.6590  -43.1504 N.am      4 UNK        -0.5000 
     55 C           3.4272  -13.4930  -44.1925 C.2       3 UNK         0.5000 
     56 O           2.3605  -13.9689  -44.5935 O.2       3 UNK        -0.5000 
     57 CA          4.7489  -13.8929  -44.8597 C.3       3 UNK         0.1400 
     58 CB          5.3927  -15.0835  -44.1295 C.3       3 UNK        -0.1800 
     59 N           4.5061  -14.2522  -46.2523 N.am      3 UNK        -0.5000 
     60 C           5.3053  -13.9406  -47.2803 C.2       2 UNK         0.5000 
     61 O           6.3614  -13.3187  -47.1557 O.2       2 UNK        -0.5000 
     62 CA          4.8765  -14.4077  -48.6866 C.3       2 UNK         0.1400 
     63 CB          5.7918  -15.5421  -49.1752 C.3       2 UNK        -0.1800 
     64 N           3.4893  -14.8720  -48.7560 N.am      2 UNK        -0.5000 
     65 C           2.4189  -14.0731  -48.8462 C.2       1 UNK         0.5000 
     66 O           2.4763  -12.8419  -48.8620 O.2       1 UNK        -0.5000 
     67 C          -2.0901  -22.4852  -46.5736 C.2       11 UNK         0.5000 
     68 O          -2.7393  -23.4282  -47.0260 O.2       11 UNK        -0.5000 
     69 N          -1.1966  -22.6116  -45.5815 N.am      12 UNK        -0.5000 
     70 CA         -0.8618  -23.8864  -44.9472 C.3       12 UNK         0.1400 
     71 CB         -0.1403  -23.6421  -43.6145 C.3       12 UNK        -0.1800 
     72 C          -0.0209  -24.7786  -45.8729 C.2       12 UNK         0.5000 
     73 O          -0.2738  -25.9811  -45.9437 O.2       12 UNK        -0.5000 
     74 N           0.9270  -24.1690  -46.6003 N.am      13 UNK        -0.5000 
     75 CA          1.7557  -24.8362  -47.6086 C.3       13 UNK         0.1400 
     76 CB          2.8591  -23.8766  -48.0785 C.3       13 UNK        -0.1800 
     77 C           0.9315  -25.3533  -48.8046 C.2       13 UNK         0.5000 
     78 O           1.1817  -26.4565  -49.2906 O.2       13 UNK        -0.5000 
     79 N          -0.0585  -24.5580  -49.2283 N.am      14 UNK        -0.5000 
     80 CA         -1.0232  -24.8839  -50.2772 C.3       14 UNK         0.1400 
     81 CB         -1.7009  -23.5819  -50.7244 C.3       14 UNK        -0.1800 
     82 C          -2.1007  -25.8970  -49.8463 C.2       14 UNK         0.5000 
     83 O          -2.8092  -26.4113  -50.7107 O.2       14 UNK        -0.5000 
     84 N          -2.2447  -26.1285  -48.5330 N.am      15 UNK        -0.5000 
     85 CA         -3.3008  -26.9161  -47.8872 C.3       15 UNK         0.1400 
     86 CB         -3.1681  -28.4130  -48.2366 C.3       15 UNK        -0.1800 
     87 C          -4.7055  -26.3395  -48.1726 C.2       15 UNK         0.5000 
     88 O          -5.6283  -27.0773  -48.5219 O.2       15 UNK        -0.5000 
     89 N          -4.8162  -25.0107  -48.0328 N.am      16 UNK        -0.5000 
     90 CA         -5.9988  -24.1662  -48.2278 C.3       16 UNK         0.1400 
     91 CB         -7.1374  -24.5700  -47.2683 C.3       16 UNK        -0.1800 
     92 C          -6.4758  -24.0346  -49.6907 C.2       16 UNK         0.5000 
     93 O          -7.5638  -23.5028  -49.9197 O.2       16 UNK        -0.5000 
     94 N          -5.6669  -24.4798  -50.6632 N.am      17 UNK        -0.5000 
     95 CA         -5.9188  -24.2908  -52.0909 C.3       17 UNK         0.1400 
     96 CB         -5.0912  -25.3032  -52.8993 C.3       17 UNK        -0.1800 
     97 C          -5.5842  -22.8438  -52.4901 C.2       17 UNK         0.5000 
     98 O          -4.4077  -22.5153  -52.6529 O.2       17 UNK        -0.5000 
     99 N          -6.6169  -22.0004  -52.6246 N.am      18 UNK        -0.5000 
    100 CA        -6.5127  -20.5595  -52.8866 C.3       18 UNK         0.1400 
    101 CB        -7.9207  -19.9590  -53.0067 C.3       18 UNK        -0.1800 
    102 C         -5.6633  -20.1958  -54.1193 C.2       18 UNK         0.5000 
    103 O         -4.9059  -19.2286  -54.0713 O.2       18 UNK        -0.5000 
    104 N         -5.7559  -21.0134  -55.1772 N.am      19 UNK        -0.5000 
    105 CA        -4.9814  -20.8722  -56.4120 C.3       19 UNK         0.1400 
    106 CB        -5.4623  -21.9191  -57.4281 C.3       19 UNK        -0.1800 
    107 C         -3.4565  -20.9798  -56.2074 C.2       19 UNK         0.5000 
    108 O         -2.7067  -20.3125  -56.9205 O.2       19 UNK        -0.5000 
    109 N         -3.0279  -21.7914  -55.2320 N.am      20 UNK        -0.5000 
    110 CA        -1.6260  -21.9482  -54.8488 C.3       20 UNK         0.1400 
    111 CB        -1.3721  -23.4106  -54.4523 C.3       20 UNK        -0.1800 
    112 C         -1.2310  -20.9853  -53.7145 C.2       20 UNK         0.5000 
    113 O         -0.0944  -20.5122  -53.6998 O.2       20 UNK        -0.5000 
    114 N         -2.1643  -20.7076  -52.7927 N.am      21 UNK        -0.5000 
    115 CA        -1.9623  -19.8227  -51.6437 C.3       21 UNK         0.1400 
    116 CB        -3.1481  -19.9599  -50.6773 C.3       21 UNK        -0.1800 
    117 C         -1.7885  -18.3453  -52.0352 C.2       21 UNK         0.5000 
    118 O         -0.9582  -17.6573  -51.4425 O.2       21 UNK        -0.5000 
    119 N         -2.5855  -17.8841  -53.0051 N.am      22 UNK        -0.5000 
    120 CA        -2.7116  -16.4677  -53.3758 C.3       22 UNK         0.1400 
    121 C         -3.0367  -16.2241  -54.8775 C.2       22 UNK         0.5000 
    122 N         -3.0025  -17.2308  -55.7418 N.am      22 UNK        -0.7600 
    123 O         -3.2897  -15.0923  -55.2817 O.2       22 UNK        -0.5000 
    124 C124       -3.6495  -15.7015  -52.4027 C.3       23 UNK        -0.0398 
    125 S125       -5.3194  -16.4379  -52.2426 S.3       23 UNK        -0.2404 
    126 C126       -5.9828  -15.5903  -50.7751 C.3       23 UNK        -0.0205 
    127 H127        2.1489  -14.5156  -51.7599 H         1 UNK         0.0600 
    128 H128        0.9238  -14.8835  -52.9701 H         1 UNK         0.0600 
    129 H129        1.1228  -15.9519  -51.5909 H         1 UNK         0.0600 
    130 H130       -0.5394  -13.4846  -49.3162 H         1 UNK         0.3000 
    131 H131        1.2234  -15.7829  -49.3247 H         1 UNK         0.0600 
    132 H132        0.1676  -14.0145  -47.0562 H         1 UNK         0.0800 
    133 H133        1.2253  -15.3778  -46.8074 H         1 UNK         0.0800 
    134 H134       -2.1862  -14.1236  -47.8821 H         1 UNK         0.0800 
    135 H135       -2.4613  -14.7499  -46.2734 H         1 UNK         0.0800 
    136 H136       -3.8309  -14.4962  -49.5284 H         1 UNK         0.1150 
    137 H137       -6.6421  -17.7130  -49.1751 H         1 UNK         0.1150 
    138 H138       -3.6531  -17.1173  -46.1533 H         1 UNK         0.1150 
    139 H139       -5.5967  -18.6194  -45.7405 H         1 UNK         0.0800 
    140 H140       -6.8150  -18.8366  -46.9674 H         1 UNK         0.0800 
    141 H141       -3.5075  -20.6046  -45.4502 H         1 UNK         0.0800 
    142 H142       -3.0422  -19.2250  -46.3933 H         1 UNK         0.0800 
    143 H143       -2.5755  -21.2548  -48.2257 H         1 UNK         0.0600 
    144 H144       -0.8723  -19.5424  -46.7053 H         1 UNK         0.3000 
    145 H145        2.1616  -20.6182  -48.1747 H         1 UNK         0.0600 
    146 H146        2.2975  -18.2908  -49.0780 H         1 UNK         0.0600 
    147 H147        1.2931  -19.3191  -50.0863 H         1 UNK         0.0600 
    148 H148        0.5372  -18.1616  -49.0087 H         1 UNK         0.0600 
    149 H149        1.6334  -18.2955  -46.6823 H         1 UNK         0.3000 
    150 H150        3.0259  -19.4947  -43.9152 H         1 UNK         0.0600 
    151 H151        3.0508  -17.4459  -45.2946 H         1 UNK         0.0600 
    152 H152        2.4937  -17.0659  -43.6848 H         1 UNK         0.0600 
    153 H153        1.3372  -17.1691  -44.9966 H         1 UNK         0.0600 
    154 H154        0.1423  -18.8597  -43.4820 H         1 UNK         0.3000 
    155 H155       -0.4581  -21.3729  -41.4158 H         1 UNK         0.0600 
    156 H156        0.4124  -18.9944  -39.7080 H         1 UNK         0.0600 
    157 H157        1.0286  -20.6346  -39.5333 H         1 UNK         0.0600 
    158 H158       -0.6670  -20.2972  -39.2335 H         1 UNK         0.0600 
    159 H159       -1.1827  -18.4860  -41.4693 H         1 UNK         0.3000 
    160 H160       -3.7066  -18.9743  -43.8849 H         1 UNK         0.0600 
    161 H161       -4.1062  -18.3648  -40.9119 H         1 UNK         0.0600 
    162 H162       -4.9488  -19.6183  -41.8153 H         1 UNK         0.0600 
    163 H163       -5.2049  -17.9291  -42.2221 H         1 UNK         0.0600 
    164 H164       -3.0018  -16.6948  -42.3775 H         1 UNK         0.3000 
    165 H165       -0.7341  -15.3833  -44.7054 H         1 UNK         0.0600 
    166 H166       -2.4281  -14.7433  -42.2330 H         1 UNK         0.0600 
    167 H167       -1.7350  -13.6077  -43.3799 H         1 UNK         0.0600 
    168 H168       -3.0303  -14.6776  -43.8874 H         1 UNK         0.0600 
    169 H169        0.8652  -15.0398  -43.2321 H         1 UNK         0.3000 
    170 H170        1.1190  -15.1673  -39.8106 H         1 UNK         0.0600 
    171 H171        2.0368  -17.4708  -40.0749 H         1 UNK         0.0600 
    172 H172        2.9156  -16.9782  -41.5121 H         1 UNK         0.0600 
    173 H173        3.3160  -16.2829  -39.9474 H         1 UNK         0.0600 
    174 H174        3.0402  -14.5319  -41.8466 H         1 UNK         0.3000 
    175 H175        1.7277  -11.6404  -43.0784 H         1 UNK         0.0600 
    176 H176        3.7036  -11.3754  -40.7479 H         1 UNK         0.0600 
    177 H177        3.4728  -10.2049  -42.0479 H         1 UNK         0.0600 
    178 H178        2.1819  -10.5053  -40.8979 H         1 UNK         0.0600 
    179 H179        4.4590  -12.3465  -42.8812 H         1 UNK         0.3000 
    180 H180        5.4225  -13.0346  -44.8078 H         1 UNK         0.0600 
    181 H181        6.3439  -15.3560  -44.5869 H         1 UNK         0.0600 
    182 H182        4.7505  -15.9641  -44.1480 H         1 UNK         0.0600 
    183 H183        5.5936  -14.8441  -43.0846 H         1 UNK         0.0600 
    184 H184        3.6193  -14.7008  -46.4296 H         1 UNK         0.3000 
    185 H185        4.9982  -13.5588  -49.3628 H         1 UNK         0.0600 
    186 H186        5.5404  -15.8418  -50.1929 H         1 UNK         0.0600 
    187 H187        6.8365  -15.2282  -49.1809 H         1 UNK         0.0600 
    188 H188        5.7179  -16.4231  -48.5364 H         1 UNK         0.0600 
    189 H189        3.3629  -15.8736  -48.7538 H         1 UNK         0.3000 
    190 H190       -0.6573  -21.8065  -45.2944 H         1 UNK         0.3000 
    191 H191       -1.7915  -24.4169  -44.7300 H         1 UNK         0.0600 
    192 H192        0.1423  -24.5850  -43.1449 H         1 UNK         0.0600 
    193 H193       -0.7889  -23.1176  -42.9151 H         1 UNK         0.0600 
    194 H194        0.7688  -23.0543  -43.7419 H         1 UNK         0.0600 
    195 H195        1.0780  -23.1776  -46.4617 H         1 UNK         0.3000 
    196 H196        2.2316  -25.6966  -47.1337 H         1 UNK         0.0600 
    197 H197        2.4463  -23.0060  -48.5880 H         1 UNK         0.0600 
    198 H198        3.4594  -23.5221  -47.2403 H         1 UNK         0.0600 
    199 H199        3.5343  -24.3733  -48.7763 H         1 UNK         0.0600 
    200 H200       -0.1349  -23.6251  -48.8315 H         1 UNK         0.3000 
    201 H201       -0.4887  -25.3094  -51.1289 H         1 UNK         0.0600 
    202 H202       -2.1952  -23.0825  -49.8912 H         1 UNK         0.0600 
    203 H203       -2.4617  -23.7736  -51.4775 H         1 UNK         0.0600 
    204 H204       -0.9797  -22.8874  -51.1548 H         1 UNK         0.0600 
    205 H205       -1.6180  -25.6455  -47.9035 H         1 UNK         0.3000 
    206 H206       -3.1414  -26.8145  -46.8127 H         1 UNK         0.0600 
    207 H207       -2.1676  -28.7817  -48.0104 H         1 UNK         0.0600 
    208 H208       -3.8730  -29.0111  -47.6583 H         1 UNK         0.0600 
    209 H209       -3.3663  -28.6057  -49.2913 H         1 UNK         0.0600 
    210 H210       -3.9850  -24.5011  -47.7325 H         1 UNK         0.3000 
    211 H211       -5.6800  -23.1644  -47.9398 H         1 UNK         0.0600 
    212 H212       -7.9427  -23.8348  -47.2852 H         1 UNK         0.0600 
    213 H213       -6.7823  -24.6337  -46.2397 H         1 UNK         0.0600 
    214 H214       -7.5720  -25.5333  -47.5356 H         1 UNK         0.0600 
    215 H215       -4.7890  -24.9116  -50.4106 H         1 UNK         0.3000 
    216 H216       -6.9734  -24.4847  -52.2980 H         1 UNK         0.0600 
    217 H217       -4.0198  -25.1627  -52.7571 H         1 UNK         0.0600 
    218 H218       -5.2929  -25.2060  -53.9666 H         1 UNK         0.0600 
    219 H219       -5.3323  -26.3270  -52.6130 H         1 UNK         0.0600 
    220 H220       -7.5452  -22.3504  -52.4339 H         1 UNK         0.3000 
    221 H221       -6.0357  -20.1090  -52.0162 H         1 UNK         0.0600 
    222 H222       -8.4959  -20.1163  -52.0941 H         1 UNK         0.0600 
    223 H223       -8.4769  -20.3975  -53.8360 H         1 UNK         0.0600 
    224 H224       -7.8711  -18.8821  -53.1755 H         1 UNK         0.0600 
    225 H225       -6.3909  -21.7959  -55.1237 H         1 UNK         0.3000 
    226 H226       -5.1873  -19.8799  -56.8190 H         1 UNK         0.0600 
    227 H227       -5.3107  -22.9350  -57.0611 H         1 UNK         0.0600 
    228 H228       -6.5224  -21.7959  -57.6506 H         1 UNK         0.0600 
    229 H229       -4.9210  -21.8262  -58.3705 H         1 UNK         0.0600 
    230 H230       -3.7102  -22.2511  -54.6417 H         1 UNK         0.3000 
    231 H231       -0.9808  -21.7254  -55.7015 H         1 UNK         0.0600 
    232 H232       -2.0791  -23.7528  -53.6987 H         1 UNK         0.0600 
    233 H233       -0.3666  -23.5442  -54.0510 H         1 UNK         0.0600 
    234 H234       -1.4685  -24.0694  -55.3152 H         1 UNK         0.0600 
    235 H235       -3.0557  -21.1920  -52.8412 H         1 UNK         0.3000 
    236 H236       -1.0585  -20.1484  -51.1246 H         1 UNK         0.0600 
    237 H237       -3.3456  -21.0011  -50.4256 H         1 UNK         0.0600 
    238 H238       -2.9527  -19.4211  -49.7491 H         1 UNK         0.0600 
    239 H239       -4.0596  -19.5408  -51.1006 H         1 UNK         0.0600 
    240 H240       -3.2972  -18.4949  -53.3990 H         1 UNK         0.3000 
    241 H241       -1.7218  -16.0195  -53.2697 H         1 UNK         0.0600 
    242 H242       -3.2014  -17.0518  -56.7129 H         1 UNK         0.3800 
    243 H243       -2.7912  -18.1692  -55.4433 H         1 UNK         0.3800 
    244 H244       -3.7451  -14.6532  -52.6898 H         1 UNK         0.0800 
    245 H245       -3.1752  -15.6943  -51.4231 H         1 UNK         0.0800 
    246 H246       -5.8751  -14.5117  -50.8995 H         1 UNK         0.0800 
    247 H247       -7.0552  -15.7819  -50.7176 H         1 UNK         0.0800 
@<TRIPOS>BOND
     1    1    2 1    
     2    1  127 1    
     3    1  128 1    
     4    1  129 1    
     5    2    3 2    
     6    2    4 am   BACKBONE|DICT|INTERRES
     7    4    5 1    
     8    4  130 1    
     9    5    6 1    
    10    5   65 1    
    11    5  131 1    
    12    6    7 1    
    13    6  132 1    
    14    6  133 1    
    15    7    8 1    
    16    8    9 1    
    17    8  134 1    
    18    8  135 1    
    19    9   10 ar   
    20    9   14 ar   
    21   10   11 ar   
    22   10  136 1    
    23   11   12 ar   
    24   11  126 1    
    25   12   13 ar   
    26   12  137 1    
    27   13   14 ar   
    28   13   15 1    
    29   14  138 1    
    30   15   16 1    
    31   15  139 1    
    32   15  140 1    
    33   16   17 1    
    34   17   18 1    
    35   17  141 1    
    36   17  142 1    
    37   18   19 1    
    38   18   67 1    
    39   18  143 1    
    40   19   20 am   BACKBONE|DICT|INTERRES
    41   19  144 1    
    42   20   21 2    
    43   20   22 1    
    44   22   23 1    
    45   22   24 1    
    46   22  145 1    
    47   23  146 1    
    48   23  147 1    
    49   23  148 1    
    50   24   25 am   BACKBONE|DICT|INTERRES
    51   24  149 1    
    52   25   26 2    
    53   25   27 1    
    54   27   28 1    
    55   27   29 1    
    56   27  150 1    
    57   28  151 1    
    58   28  152 1    
    59   28  153 1    
    60   29   30 am   BACKBONE|DICT|INTERRES
    61   29  154 1    
    62   30   31 2    
    63   30   32 1    
    64   32   33 1    
    65   32   34 1    
    66   32  155 1    
    67   33  156 1    
    68   33  157 1    
    69   33  158 1    
    70   34   35 am   BACKBONE|DICT|INTERRES
    71   34  159 1    
    72   35   36 2    
    73   35   37 1    
    74   37   38 1    
    75   37   39 1    
    76   37  160 1    
    77   38  161 1    
    78   38  162 1    
    79   38  163 1    
    80   39   40 am   BACKBONE|DICT|INTERRES
    81   39  164 1    
    82   40   41 2    
    83   40   42 1    
    84   42   43 1    
    85   42   44 1    
    86   42  165 1    
    87   43  166 1    
    88   43  167 1    
    89   43  168 1    
    90   44   45 am   BACKBONE|DICT|INTERRES
    91   44  169 1    
    92   45   46 2    
    93   45   47 1    
    94   47   48 1    
    95   47   49 1    
    96   47  170 1    
    97   48  171 1    
    98   48  172 1    
    99   48  173 1    
   100   49   50 am   BACKBONE|DICT|INTERRES
   101   49  174 1    
   102   50   51 2    
   103   50   52 1    
   104   52   53 1    
   105   52   54 1    
   106   52  175 1    
   107   53  176 1    
   108   53  177 1    
   109   53  178 1    
   110   54   55 am   BACKBONE|DICT|INTERRES
   111   54  179 1    
   112   55   56 2    
   113   55   57 1    
   114   57   58 1    
   115   57   59 1    
   116   57  180 1    
   117   58  181 1    
   118   58  182 1    
   119   58  183 1    
   120   59   60 am   BACKBONE|DICT|INTERRES
   121   59  184 1    
   122   60   61 2    
   123   60   62 1    
   124   62   63 1    
   125   62   64 1    
   126   62  185 1    
   127   63  186 1    
   128   63  187 1    
   129   63  188 1    
   130   64   65 am   BACKBONE|DICT|INTERRES
   131   64  189 1    
   132   65   66 2    
   133   67   68 2    
   134   67   69 am   BACKBONE|DICT|INTERRES
   135   69   70 1    
   136   69  190 1    
   137   70   71 1    
   138   70   72 1    
   139   70  191 1    
   140   71  192 1    
   141   71  193 1    
   142   71  194 1    
   143   72   73 2    
   144   72   74 am   BACKBONE|DICT|INTERRES
   145   74   75 1    
   146   74  195 1    
   147   75   76 1    
   148   75   77 1    
   149   75  196 1    
   150   76  197 1    
   151   76  198 1    
   152   76  199 1    
   153   77   78 2    
   154   77   79 am   BACKBONE|DICT|INTERRES
   155   79   80 1    
   156   79  200 1    
   157   80   81 1    
   158   80   82 1    
   159   80  201 1    
   160   81  202 1    
   161   81  203 1    
   162   81  204 1    
   163   82   83 2    
   164   82   84 am   BACKBONE|DICT|INTERRES
   165   84   85 1    
   166   84  205 1    
   167   85   86 1    
   168   85   87 1    
   169   85  206 1    
   170   86  207 1    
   171   86  208 1    
   172   86  209 1    
   173   87   88 2    
   174   87   89 am   BACKBONE|DICT|INTERRES
   175   89   90 1    
   176   89  210 1    
   177   90   91 1    
   178   90   92 1    
   179   90  211 1    
   180   91  212 1    
   181   91  213 1    
   182   91  214 1    
   183   92   93 2    
   184   92   94 am   BACKBONE|DICT|INTERRES
   185   94   95 1    
   186   94  215 1    
   187   95   96 1    
   188   95   97 1    
   189   95  216 1    
   190   96  217 1    
   191   96  218 1    
   192   96  219 1    
   193   97   98 2    
   194   97   99 am   BACKBONE|DICT|INTERRES
   195   99  100 1    
   196   99  220 1    
   197  100  101 1    
   198  100  102 1    
   199  100  221 1    
   200  101  222 1    
   201  101  223 1    
   202  101  224 1    
   203  102  103 2    
   204  102  104 am   BACKBONE|DICT|INTERRES
   205  104  105 1    
   206  104  225 1    
   207  105  106 1    
   208  105  107 1    
   209  105  226 1    
   210  106  227 1    
   211  106  228 1    
   212  106  229 1    
   213  107  108 2    
   214  107  109 am   BACKBONE|DICT|INTERRES
   215  109  110 1    
   216  109  230 1    
   217  110  111 1    
   218  110  112 1    
   219  110  231 1    
   220  111  232 1    
   221  111  233 1    
   222  111  234 1    
   223  112  113 2    
   224  112  114 am   BACKBONE|DICT|INTERRES
   225  114  115 1    
   226  114  235 1    
   227  115  116 1    
   228  115  117 1    
   229  115  236 1    
   230  116  237 1    
   231  116  238 1    
   232  116  239 1    
   233  117  118 2    
   234  117  119 am   BACKBONE|DICT|INTERRES
   235  119  120 1    
   236  119  240 1    
   237  120  121 1    
   238  120  124 1    
   239  120  241 1    
   240  121  122 am   BACKBONE|DICT|INTERRES
   241  121  123 2    
   242  122  242 1    
   243  122  243 1    
   244  124  125 1    
   245  124  244 1    
   246  124  245 1    
   247  125  126 1    
   248  126  246 1    
   249  126  247 1    
@<TRIPOS>SUBSTRUCTURE
     1 UNK         1 GROUP             0       ****    0 ROOT    
