@<TRIPOS>MOLECULE
3R540
247   249    1
SMALL
USER_CHARGES


@<TRIPOS>ATOM
      1 CA         -4.6675  -12.1136  -41.7092 C.3       0 UNK        -0.1800 
      2 C          -3.4086  -12.0646  -42.5626 C.2       0 UNK         0.5000 
      3 O          -2.6675  -11.0821  -42.5112 O.2       0 UNK        -0.5000 
      4 N          -3.1520  -13.1238  -43.3392 N.am      1 UNK        -0.5000 
      5 CA         -1.9996  -13.2903  -44.2342 C.3       1 UNK         0.1400 
      6 C6         -2.3256  -14.2417  -45.4162 C.3       23 UNK        -0.0398 
      7 S7         -3.0055  -15.8642  -44.9244 S.3       23 UNK        -0.2404 
      8 C8         -3.5705  -16.5104  -46.5311 C.3       23 UNK        -0.0205 
      9 C9         -2.4111  -16.8443  -47.4594 C.ar      23 UNK        -0.0193 
     10 C10        -2.1290  -16.0403  -48.5681 C.ar      23 UNK        -0.1150 
     11 C11        -1.0709  -16.3584  -49.4282 C.ar      23 UNK        -0.0193 
     12 C12        -0.2872  -17.4858  -49.1628 C.ar      23 UNK        -0.1150 
     13 C13        -0.5502  -18.2875  -48.0491 C.ar      23 UNK        -0.0193 
     14 C14        -1.6178  -17.9655  -47.2080 C.ar      23 UNK        -0.1150 
     15 C15         0.3401  -19.4794  -47.7314 C.3       23 UNK        -0.0205 
     16 S16         0.0348  -20.8944  -48.8344 S.3       23 UNK        -0.2404 
     17 C17        -1.6879  -21.3461  -48.4404 C.3       23 UNK        -0.0398 
     18 CA         -1.7824  -22.5781  -47.5109 C.3       11 UNK         0.1400 
     19 N          -1.2832  -22.2994  -46.1610 N.am      11 UNK        -0.5000 
     20 C          -1.1468  -23.2084  -45.1860 C.2       10 UNK         0.5000 
     21 O          -1.3604  -24.4099  -45.3461 O.2       10 UNK        -0.5000 
     22 CA         -0.7741  -22.6906  -43.7827 C.3       10 UNK         0.1400 
     23 CB          0.7298  -22.8718  -43.5317 C.3       10 UNK        -0.1800 
     24 N          -1.1307  -21.2916  -43.5204 N.am      10 UNK        -0.5000 
     25 C          -2.3439  -20.7301  -43.6321 C.2       9 UNK         0.5000 
     26 O          -3.3312  -21.3454  -44.0364 O.2       9 UNK        -0.5000 
     27 CA         -2.4863  -19.2384  -43.2485 C.3       9 UNK         0.1400 
     28 CB         -3.7192  -19.0054  -42.3596 C.3       9 UNK        -0.1800 
     29 N          -1.3132  -18.6626  -42.5805 N.am      9 UNK        -0.5000 
     30 C          -0.1543  -18.3441  -43.1703 C.2       8 UNK         0.5000 
     31 O           0.0742  -18.5282  -44.3664 O.2       8 UNK        -0.5000 
     32 CA          0.9497  -17.8139  -42.2454 C.3       8 UNK         0.1400 
     33 CB          1.4570  -18.9285  -41.3072 C.3       8 UNK        -0.1800 
     34 N           2.0519  -17.3041  -43.0515 N.am      8 UNK        -0.5000 
     35 C           3.0210  -16.4892  -42.6268 C.2       7 UNK         0.5000 
     36 O           3.1027  -16.0822  -41.4671 O.2       7 UNK        -0.5000 
     37 CA          4.0770  -16.0338  -43.6522 C.3       7 UNK         0.1400 
     38 CB          5.2340  -17.0439  -43.7647 C.3       7 UNK        -0.1800 
     39 N           3.5325  -15.6799  -44.9656 N.am      7 UNK        -0.5000 
     40 C           3.0027  -16.4559  -45.9211 C.2       6 UNK         0.5000 
     41 O           2.9228  -17.6817  -45.8499 O.2       6 UNK        -0.5000 
     42 CA          2.4688  -15.7292  -47.1661 C.3       6 UNK         0.1400 
     43 CB          1.0776  -15.1523  -46.8778 C.3       6 UNK        -0.1800 
     44 N           3.3474  -14.6273  -47.5532 N.am      6 UNK        -0.5000 
     45 C           4.1395  -14.6030  -48.6314 C.2       5 UNK         0.5000 
     46 O           4.2012  -15.5123  -49.4595 O.2       5 UNK        -0.5000 
     47 CA          5.0129  -13.3444  -48.8237 C.3       5 UNK         0.1400 
     48 CB          4.3098  -12.3433  -49.7533 C.3       5 UNK        -0.1800 
     49 N           5.3468  -12.6691  -47.5666 N.am      5 UNK        -0.5000 
     50 C           6.1548  -13.1733  -46.6242 C.2       4 UNK         0.5000 
     51 O           6.7767  -14.2279  -46.7562 O.2       4 UNK        -0.5000 
     52 CA          6.2845  -12.3873  -45.3023 C.3       4 UNK         0.1400 
     53 CB          7.5786  -11.5589  -45.3027 C.3       4 UNK        -0.1800 
     54 N           5.1614  -11.5071  -44.9472 N.am      4 UNK        -0.5000 
     55 C           3.8773  -11.8695  -44.8299 C.2       3 UNK         0.5000 
     56 O           3.4317  -12.9518  -45.2121 O.2       3 UNK        -0.5000 
     57 CA          2.9189  -10.8445  -44.1983 C.3       3 UNK         0.1400 
     58 CB          2.2491   -9.9997  -45.2922 C.3       3 UNK        -0.1800 
     59 N           1.8777  -11.4953  -43.3988 N.am      3 UNK        -0.5000 
     60 C           2.0868  -12.2570  -42.3135 C.2       2 UNK         0.5000 
     61 O           3.1980  -12.4328  -41.8118 O.2       2 UNK        -0.5000 
     62 CA          0.8544  -12.9176  -41.6613 C.3       2 UNK         0.1400 
     63 CB          0.5655  -12.2872  -40.2896 C.3       2 UNK        -0.1800 
     64 N          -0.3529  -12.8096  -42.4826 N.am      2 UNK        -0.5000 
     65 C          -0.7042  -13.6503  -43.4627 C.2       1 UNK         0.5000 
     66 O          -0.0534  -14.6538  -43.7505 O.2       1 UNK        -0.5000 
     67 C          -3.2224  -23.1363  -47.5180 C.2       11 UNK         0.5000 
     68 O          -3.5634  -23.8719  -48.4441 O.2       11 UNK        -0.5000 
     69 N          -4.0393  -22.8069  -46.5059 N.am      12 UNK        -0.5000 
     70 CA         -5.3859  -23.3575  -46.3428 C.3       12 UNK         0.1400 
     71 CB         -6.1809  -22.4953  -45.3515 C.3       12 UNK        -0.1800 
     72 C          -5.3582  -24.8285  -45.8907 C.2       12 UNK         0.5000 
     73 O          -6.1708  -25.6233  -46.3627 O.2       12 UNK        -0.5000 
     74 N          -4.4065  -25.1694  -45.0106 N.am      13 UNK        -0.5000 
     75 CA         -4.1844  -26.5278  -44.5126 C.3       13 UNK         0.1400 
     76 CB         -3.3463  -26.4694  -43.2259 C.3       13 UNK        -0.1800 
     77 C          -3.5114  -27.4254  -45.5660 C.2       13 UNK         0.5000 
     78 O          -3.8850  -28.5903  -45.7048 O.2       13 UNK        -0.5000 
     79 N          -2.5495  -26.8569  -46.3058 N.am      14 UNK        -0.5000 
     80 CA         -1.8237  -27.5170  -47.3935 C.3       14 UNK         0.1400 
     81 CB         -0.5433  -26.7167  -47.6807 C.3       14 UNK        -0.1800 
     82 C          -2.6509  -27.6761  -48.6862 C.2       14 UNK         0.5000 
     83 O          -2.2321  -28.4171  -49.5755 O.2       14 UNK        -0.5000 
     84 N          -3.7787  -26.9547  -48.7804 N.am      15 UNK        -0.5000 
     85 CA         -4.6844  -26.8327  -49.9309 C.3       15 UNK         0.1400 
     86 CB         -5.2757  -28.1957  -50.3434 C.3       15 UNK        -0.1800 
     87 C          -4.0744  -26.0640  -51.1232 C.2       15 UNK         0.5000 
     88 O          -4.6443  -26.0670  -52.2148 O.2       15 UNK        -0.5000 
     89 N          -2.9648  -25.3541  -50.8844 N.am      16 UNK        -0.5000 
     90 CA         -2.3314  -24.4370  -51.8293 C.3       16 UNK         0.1400 
     91 CB         -0.9468  -24.0434  -51.2969 C.3       16 UNK        -0.1800 
     92 C          -3.1985  -23.1926  -52.0982 C.2       16 UNK         0.5000 
     93 O          -3.1670  -22.6585  -53.2058 O.2       16 UNK        -0.5000 
     94 N          -3.9974  -22.7804  -51.1026 N.am      17 UNK        -0.5000 
     95 CA         -4.9910  -21.7138  -51.2323 C.3       17 UNK         0.1400 
     96 CB         -5.5025  -21.3100  -49.8420 C.3       17 UNK        -0.1800 
     97 C          -6.1615  -22.1206  -52.1467 C.2       17 UNK         0.5000 
     98 O          -6.6317  -21.2956  -52.9288 O.2       17 UNK        -0.5000 
     99 N          -6.5751  -23.3949  -52.0722 N.am      18 UNK        -0.5000 
    100 CA        -7.5938  -23.9896  -52.9431 C.3       18 UNK         0.1400 
    101 CB        -8.0752  -25.3199  -52.3438 C.3       18 UNK        -0.1800 
    102 C         -7.0851  -24.1818  -54.3848 C.2       18 UNK         0.5000 
    103 O         -7.8545  -24.0101  -55.3304 O.2       18 UNK        -0.5000 
    104 N         -5.7851  -24.4783  -54.5262 N.am      19 UNK        -0.5000 
    105 CA        -5.0590  -24.5165  -55.7993 C.3       19 UNK         0.1400 
    106 CB        -3.7556  -25.3064  -55.6021 C.3       19 UNK        -0.1800 
    107 C         -4.7616  -23.1156  -56.3820 C.2       19 UNK         0.5000 
    108 O         -4.2908  -23.0276  -57.5166 O.2       19 UNK        -0.5000 
    109 N         -5.0386  -22.0582  -55.6040 N.am      20 UNK        -0.5000 
    110 CA        -4.8658  -20.6373  -55.9109 C.3       20 UNK         0.1400 
    111 CB        -5.7637  -20.2109  -57.0913 C.3       20 UNK        -0.1800 
    112 C         -3.3911  -20.2226  -56.0854 C.2       20 UNK         0.5000 
    113 O         -3.0890  -19.3595  -56.9120 O.2       20 UNK        -0.5000 
    114 N         -2.4952  -20.8031  -55.2721 N.am      21 UNK        -0.5000 
    115 CA        -1.0567  -20.5049  -55.2542 C.3       21 UNK         0.1400 
    116 CB        -0.3510  -21.4788  -54.2994 C.3       21 UNK        -0.1800 
    117 C         -0.7273  -19.0470  -54.8687 C.2       21 UNK         0.5000 
    118 O          0.3058  -18.5246  -55.2885 O.2       21 UNK        -0.5000 
    119 N         -1.6253  -18.4152  -54.1022 N.am      22 UNK        -0.5000 
    120 CA        -1.6154  -16.9796  -53.7834 C.3       22 UNK         0.1400 
    121 C         -2.0404  -16.0626  -54.9774 C.2       22 UNK         0.5000 
    122 N         -2.5683  -16.5842  -56.0798 N.am      22 UNK        -0.7600 
    123 O         -1.8617  -14.8495  -54.9241 O.2       22 UNK        -0.5000 
    124 C124       -2.4413  -16.7223  -52.4926 C.3       23 UNK        -0.0398 
    125 S125       -2.1435  -15.1048  -51.6979 S.3       23 UNK        -0.2404 
    126 C126       -0.7262  -15.4571  -50.6078 C.3       23 UNK        -0.0205 
    127 H127       -5.3248  -11.2818  -41.9626 H         1 UNK         0.0600 
    128 H128       -4.4080  -12.0356  -40.6535 H         1 UNK         0.0600 
    129 H129       -5.2208  -13.0415  -41.8563 H         1 UNK         0.0600 
    130 H130       -3.7788  -13.9163  -43.3150 H         1 UNK         0.3000 
    131 H131       -1.7967  -12.3170  -44.6863 H         1 UNK         0.0600 
    132 H132       -3.0596  -13.7580  -46.0618 H         1 UNK         0.0800 
    133 H133       -1.4484  -14.3968  -46.0431 H         1 UNK         0.0800 
    134 H134       -4.2469  -15.7917  -46.9962 H         1 UNK         0.0800 
    135 H135       -4.1585  -17.4128  -46.3579 H         1 UNK         0.0800 
    136 H136       -2.7290  -15.1624  -48.7614 H         1 UNK         0.1150 
    137 H137        0.5441  -17.7313  -49.8086 H         1 UNK         0.1150 
    138 H138       -1.8204  -18.5780  -46.3425 H         1 UNK         0.1150 
    139 H139        0.2151  -19.7929  -46.6950 H         1 UNK         0.0800 
    140 H140        1.3844  -19.1780  -47.8259 H         1 UNK         0.0800 
    141 H141       -2.1703  -21.5455  -49.3978 H         1 UNK         0.0800 
    142 H142       -2.2261  -20.5001  -48.0146 H         1 UNK         0.0800 
    143 H143       -1.1483  -23.3632  -47.9258 H         1 UNK         0.0600 
    144 H144       -1.0842  -21.3357  -45.9408 H         1 UNK         0.3000 
    145 H145       -1.3188  -23.3036  -43.0621 H         1 UNK         0.0600 
    146 H146        1.0322  -23.9076  -43.6923 H         1 UNK         0.0600 
    147 H147        0.9934  -22.6138  -42.5057 H         1 UNK         0.0600 
    148 H148        1.3258  -22.2477  -44.1990 H         1 UNK         0.0600 
    149 H149       -0.3767  -20.6928  -43.2193 H         1 UNK         0.3000 
    150 H150       -2.6452  -18.6967  -44.1808 H         1 UNK         0.0600 
    151 H151       -3.6350  -19.5336  -41.4093 H         1 UNK         0.0600 
    152 H152       -4.6308  -19.3510  -42.8490 H         1 UNK         0.0600 
    153 H153       -3.8546  -17.9448  -42.1460 H         1 UNK         0.0600 
    154 H154       -1.4066  -18.5109  -41.5865 H         1 UNK         0.3000 
    155 H155        0.5324  -16.9929  -41.6585 H         1 UNK         0.0600 
    156 H156        2.2188  -18.5582  -40.6213 H         1 UNK         0.0600 
    157 H157        1.8906  -19.7567  -41.8694 H         1 UNK         0.0600 
    158 H158        0.6505  -19.3332  -40.6949 H         1 UNK         0.0600 
    159 H159        2.0276  -17.5794  -44.0306 H         1 UNK         0.3000 
    160 H160        4.4976  -15.1042  -43.2649 H         1 UNK         0.0600 
    161 H161        6.0004  -16.6890  -44.4540 H         1 UNK         0.0600 
    162 H162        4.8931  -18.0192  -44.1125 H         1 UNK         0.0600 
    163 H163        5.7109  -17.1946  -42.7956 H         1 UNK         0.0600 
    164 H164        3.4782  -14.6734  -45.1165 H         1 UNK         0.3000 
    165 H165        2.3795  -16.4603  -47.9721 H         1 UNK         0.0600 
    166 H166        0.6324  -14.7297  -47.7774 H         1 UNK         0.0600 
    167 H167        0.4037  -15.9239  -46.5036 H         1 UNK         0.0600 
    168 H168        1.1194  -14.3622  -46.1279 H         1 UNK         0.0600 
    169 H169        3.3964  -13.8508  -46.9012 H         1 UNK         0.3000 
    170 H170        5.9440  -13.6583  -49.3003 H         1 UNK         0.0600 
    171 H171        4.9452  -11.4817  -49.9591 H         1 UNK         0.0600 
    172 H172        3.3773  -11.9788  -49.3203 H         1 UNK         0.0600 
    173 H173        4.0682  -12.8040  -50.7122 H         1 UNK         0.0600 
    174 H174        4.8769  -11.7963  -47.3770 H         1 UNK         0.3000 
    175 H175        6.3620  -13.1316  -44.5071 H         1 UNK         0.0600 
    176 H176        8.4446  -12.1820  -45.5307 H         1 UNK         0.0600 
    177 H177        7.5433  -10.7615  -46.0461 H         1 UNK         0.0600 
    178 H178        7.7578  -11.1037  -44.3285 H         1 UNK         0.0600 
    179 H179        5.4209  -10.5795  -44.6434 H         1 UNK         0.3000 
    180 H180        3.4884  -10.1865  -43.5390 H         1 UNK         0.0600 
    181 H181        1.6554  -10.6158  -45.9691 H         1 UNK         0.0600 
    182 H182        2.9930   -9.4752  -45.8932 H         1 UNK         0.0600 
    183 H183        1.5913   -9.2447  -44.8611 H         1 UNK         0.0600 
    184 H184        0.9336  -11.4206  -43.7442 H         1 UNK         0.3000 
    185 H185        1.0921  -13.9724  -41.5079 H         1 UNK         0.0600 
    186 H186       -0.2721  -12.7821  -39.7976 H         1 UNK         0.0600 
    187 H187        1.4279  -12.3759  -39.6277 H         1 UNK         0.0600 
    188 H188        0.3247  -11.2269  -40.3770 H         1 UNK         0.0600 
    189 H189       -0.9659  -12.0198  -42.3008 H         1 UNK         0.3000 
    190 H190       -3.7010  -22.2111  -45.7553 H         1 UNK         0.3000 
    191 H191       -5.8974  -23.3178  -47.3059 H         1 UNK         0.0600 
    192 H192       -6.2192  -21.4553  -45.6761 H         1 UNK         0.0600 
    193 H193       -7.2092  -22.8486  -45.2664 H         1 UNK         0.0600 
    194 H194       -5.7433  -22.5188  -44.3530 H         1 UNK         0.0600 
    195 H195       -3.7532  -24.4619  -44.7071 H         1 UNK         0.3000 
    196 H196       -5.1526  -26.9689  -44.2654 H         1 UNK         0.0600 
    197 H197       -3.1940  -27.4685  -42.8156 H         1 UNK         0.0600 
    198 H198       -3.8432  -25.8757  -42.4586 H         1 UNK         0.0600 
    199 H199       -2.3618  -26.0345  -43.4011 H         1 UNK         0.0600 
    200 H200       -2.2508  -25.9142  -46.0679 H         1 UNK         0.3000 
    201 H201       -1.5364  -28.5168  -47.0615 H         1 UNK         0.0600 
    202 H202        0.0628  -27.2053  -48.4447 H         1 UNK         0.0600 
    203 H203        0.0740  -26.6247  -46.7868 H         1 UNK         0.0600 
    204 H204       -0.7698  -25.7113  -48.0353 H         1 UNK         0.0600 
    205 H205       -4.0060  -26.3596  -47.9956 H         1 UNK         0.3000 
    206 H206       -5.5128  -26.2156  -49.5803 H         1 UNK         0.0600 
    207 H207       -5.6979  -28.7184  -49.4850 H         1 UNK         0.0600 
    208 H208       -6.0780  -28.0683  -51.0710 H         1 UNK         0.0600 
    209 H209       -4.5274  -28.8443  -50.7990 H         1 UNK         0.0600 
    210 H210       -2.6182  -25.3428  -49.9359 H         1 UNK         0.3000 
    211 H211       -2.1952  -24.9634  -52.7752 H         1 UNK         0.0600 
    212 H212       -1.0133  -23.5214  -50.3438 H         1 UNK         0.0600 
    213 H213       -0.4289  -23.3869  -51.9957 H         1 UNK         0.0600 
    214 H214       -0.3172  -24.9216  -51.1525 H         1 UNK         0.0600 
    215 H215       -3.9538  -23.2683  -50.2125 H         1 UNK         0.3000 
    216 H216       -4.5029  -20.8454  -51.6803 H         1 UNK         0.0600 
    217 H217       -6.2323  -20.5027  -49.9147 H         1 UNK         0.0600 
    218 H218       -4.6914  -20.9544  -49.2074 H         1 UNK         0.0600 
    219 H219       -5.9873  -22.1446  -49.3362 H         1 UNK         0.0600 
    220 H220       -6.1131  -24.0164  -51.4264 H         1 UNK         0.3000 
    221 H221       -8.4474  -23.3093  -52.9808 H         1 UNK         0.0600 
    222 H222       -7.2762  -26.0594  -52.2971 H         1 UNK         0.0600 
    223 H223       -8.4644  -25.1812  -51.3351 H         1 UNK         0.0600 
    224 H224       -8.8783  -25.7472  -52.9455 H         1 UNK         0.0600 
    225 H225       -5.2466  -24.6863  -53.6933 H         1 UNK         0.3000 
    226 H226       -5.6730  -25.0501  -56.5276 H         1 UNK         0.0600 
    227 H227       -3.2507  -25.4689  -56.5551 H         1 UNK         0.0600 
    228 H228       -3.0600  -24.7753  -54.9535 H         1 UNK         0.0600 
    229 H229       -3.9459  -26.2862  -55.1634 H         1 UNK         0.0600 
    230 H230       -5.3994  -22.2516  -54.6800 H         1 UNK         0.3000 
    231 H231       -5.2184  -20.0996  -55.0300 H         1 UNK         0.0600 
    232 H232       -5.4334  -20.6495  -58.0332 H         1 UNK         0.0600 
    233 H233       -5.7560  -19.1275  -57.2165 H         1 UNK         0.0600 
    234 H234       -6.7989  -20.5094  -56.9260 H         1 UNK         0.0600 
    235 H235       -2.8174  -21.5022  -54.6050 H         1 UNK         0.3000 
    236 H236       -0.6724  -20.6737  -56.2621 H         1 UNK         0.0600 
    237 H237       -0.6797  -21.3332  -53.2698 H         1 UNK         0.0600 
    238 H238       -0.5481  -22.5156  -54.5732 H         1 UNK         0.0600 
    239 H239        0.7299  -21.3351  -54.3219 H         1 UNK         0.0600 
    240 H240       -2.4402  -18.9334  -53.8112 H         1 UNK         0.3000 
    241 H241       -0.5798  -16.7150  -53.5621 H         1 UNK         0.0600 
    242 H242       -2.8191  -15.9670  -56.8357 H         1 UNK         0.3800 
    243 H243       -2.6870  -17.5844  -56.2016 H         1 UNK         0.3800 
    244 H244       -2.2296  -17.4971  -51.7542 H         1 UNK         0.0800 
    245 H245       -3.5080  -16.8059  -52.7060 H         1 UNK         0.0800 
    246 H246        0.0805  -15.8858  -51.2045 H         1 UNK         0.0800 
    247 H247       -0.3465  -14.5122  -50.2173 H         1 UNK         0.0800 
@<TRIPOS>BOND
     1    1    2 1    
     2    1  127 1    
     3    1  128 1    
     4    1  129 1    
     5    2    3 2    
     6    2    4 am   BACKBONE|DICT|INTERRES
     7    4    5 1    
     8    4  130 1    
     9    5    6 1    
    10    5   65 1    
    11    5  131 1    
    12    6    7 1    
    13    6  132 1    
    14    6  133 1    
    15    7    8 1    
    16    8    9 1    
    17    8  134 1    
    18    8  135 1    
    19    9   10 ar   
    20    9   14 ar   
    21   10   11 ar   
    22   10  136 1    
    23   11   12 ar   
    24   11  126 1    
    25   12   13 ar   
    26   12  137 1    
    27   13   14 ar   
    28   13   15 1    
    29   14  138 1    
    30   15   16 1    
    31   15  139 1    
    32   15  140 1    
    33   16   17 1    
    34   17   18 1    
    35   17  141 1    
    36   17  142 1    
    37   18   19 1    
    38   18   67 1    
    39   18  143 1    
    40   19   20 am   BACKBONE|DICT|INTERRES
    41   19  144 1    
    42   20   21 2    
    43   20   22 1    
    44   22   23 1    
    45   22   24 1    
    46   22  145 1    
    47   23  146 1    
    48   23  147 1    
    49   23  148 1    
    50   24   25 am   BACKBONE|DICT|INTERRES
    51   24  149 1    
    52   25   26 2    
    53   25   27 1    
    54   27   28 1    
    55   27   29 1    
    56   27  150 1    
    57   28  151 1    
    58   28  152 1    
    59   28  153 1    
    60   29   30 am   BACKBONE|DICT|INTERRES
    61   29  154 1    
    62   30   31 2    
    63   30   32 1    
    64   32   33 1    
    65   32   34 1    
    66   32  155 1    
    67   33  156 1    
    68   33  157 1    
    69   33  158 1    
    70   34   35 am   BACKBONE|DICT|INTERRES
    71   34  159 1    
    72   35   36 2    
    73   35   37 1    
    74   37   38 1    
    75   37   39 1    
    76   37  160 1    
    77   38  161 1    
    78   38  162 1    
    79   38  163 1    
    80   39   40 am   BACKBONE|DICT|INTERRES
    81   39  164 1    
    82   40   41 2    
    83   40   42 1    
    84   42   43 1    
    85   42   44 1    
    86   42  165 1    
    87   43  166 1    
    88   43  167 1    
    89   43  168 1    
    90   44   45 am   BACKBONE|DICT|INTERRES
    91   44  169 1    
    92   45   46 2    
    93   45   47 1    
    94   47   48 1    
    95   47   49 1    
    96   47  170 1    
    97   48  171 1    
    98   48  172 1    
    99   48  173 1    
   100   49   50 am   BACKBONE|DICT|INTERRES
   101   49  174 1    
   102   50   51 2    
   103   50   52 1    
   104   52   53 1    
   105   52   54 1    
   106   52  175 1    
   107   53  176 1    
   108   53  177 1    
   109   53  178 1    
   110   54   55 am   BACKBONE|DICT|INTERRES
   111   54  179 1    
   112   55   56 2    
   113   55   57 1    
   114   57   58 1    
   115   57   59 1    
   116   57  180 1    
   117   58  181 1    
   118   58  182 1    
   119   58  183 1    
   120   59   60 am   BACKBONE|DICT|INTERRES
   121   59  184 1    
   122   60   61 2    
   123   60   62 1    
   124   62   63 1    
   125   62   64 1    
   126   62  185 1    
   127   63  186 1    
   128   63  187 1    
   129   63  188 1    
   130   64   65 am   BACKBONE|DICT|INTERRES
   131   64  189 1    
   132   65   66 2    
   133   67   68 2    
   134   67   69 am   BACKBONE|DICT|INTERRES
   135   69   70 1    
   136   69  190 1    
   137   70   71 1    
   138   70   72 1    
   139   70  191 1    
   140   71  192 1    
   141   71  193 1    
   142   71  194 1    
   143   72   73 2    
   144   72   74 am   BACKBONE|DICT|INTERRES
   145   74   75 1    
   146   74  195 1    
   147   75   76 1    
   148   75   77 1    
   149   75  196 1    
   150   76  197 1    
   151   76  198 1    
   152   76  199 1    
   153   77   78 2    
   154   77   79 am   BACKBONE|DICT|INTERRES
   155   79   80 1    
   156   79  200 1    
   157   80   81 1    
   158   80   82 1    
   159   80  201 1    
   160   81  202 1    
   161   81  203 1    
   162   81  204 1    
   163   82   83 2    
   164   82   84 am   BACKBONE|DICT|INTERRES
   165   84   85 1    
   166   84  205 1    
   167   85   86 1    
   168   85   87 1    
   169   85  206 1    
   170   86  207 1    
   171   86  208 1    
   172   86  209 1    
   173   87   88 2    
   174   87   89 am   BACKBONE|DICT|INTERRES
   175   89   90 1    
   176   89  210 1    
   177   90   91 1    
   178   90   92 1    
   179   90  211 1    
   180   91  212 1    
   181   91  213 1    
   182   91  214 1    
   183   92   93 2    
   184   92   94 am   BACKBONE|DICT|INTERRES
   185   94   95 1    
   186   94  215 1    
   187   95   96 1    
   188   95   97 1    
   189   95  216 1    
   190   96  217 1    
   191   96  218 1    
   192   96  219 1    
   193   97   98 2    
   194   97   99 am   BACKBONE|DICT|INTERRES
   195   99  100 1    
   196   99  220 1    
   197  100  101 1    
   198  100  102 1    
   199  100  221 1    
   200  101  222 1    
   201  101  223 1    
   202  101  224 1    
   203  102  103 2    
   204  102  104 am   BACKBONE|DICT|INTERRES
   205  104  105 1    
   206  104  225 1    
   207  105  106 1    
   208  105  107 1    
   209  105  226 1    
   210  106  227 1    
   211  106  228 1    
   212  106  229 1    
   213  107  108 2    
   214  107  109 am   BACKBONE|DICT|INTERRES
   215  109  110 1    
   216  109  230 1    
   217  110  111 1    
   218  110  112 1    
   219  110  231 1    
   220  111  232 1    
   221  111  233 1    
   222  111  234 1    
   223  112  113 2    
   224  112  114 am   BACKBONE|DICT|INTERRES
   225  114  115 1    
   226  114  235 1    
   227  115  116 1    
   228  115  117 1    
   229  115  236 1    
   230  116  237 1    
   231  116  238 1    
   232  116  239 1    
   233  117  118 2    
   234  117  119 am   BACKBONE|DICT|INTERRES
   235  119  120 1    
   236  119  240 1    
   237  120  121 1    
   238  120  124 1    
   239  120  241 1    
   240  121  122 am   BACKBONE|DICT|INTERRES
   241  121  123 2    
   242  122  242 1    
   243  122  243 1    
   244  124  125 1    
   245  124  244 1    
   246  124  245 1    
   247  125  126 1    
   248  126  246 1    
   249  126  247 1    
@<TRIPOS>SUBSTRUCTURE
     1 UNK         1 GROUP             0       ****    0 ROOT    
