@<TRIPOS>MOLECULE
3R540
247   249    1
SMALL
USER_CHARGES


@<TRIPOS>ATOM
      1 CA          0.4566  -11.7735  -44.8670 C.3       0 UNK        -0.1800 
      2 C          -0.3742  -12.7172  -45.7242 C.2       0 UNK         0.5000 
      3 O          -0.4379  -12.5386  -46.9414 O.2       0 UNK        -0.5000 
      4 N          -1.0040  -13.7177  -45.0928 N.am      1 UNK        -0.5000 
      5 CA         -1.8049  -14.7725  -45.7251 C.3       1 UNK         0.1400 
      6 C6         -2.4650  -15.7047  -44.6799 C.3       23 UNK        -0.0398 
      7 S7         -3.5868  -14.8134  -43.5477 S.3       23 UNK        -0.2404 
      8 C8         -5.0275  -15.9379  -43.4726 C.3       23 UNK        -0.0205 
      9 C9         -5.9548  -15.9513  -44.6911 C.ar      23 UNK        -0.0193 
     10 C10        -5.6910  -15.2344  -45.8652 C.ar      23 UNK        -0.1150 
     11 C11        -6.5378  -15.3258  -46.9736 C.ar      23 UNK        -0.0193 
     12 C12        -7.6964  -16.1017  -46.8852 C.ar      23 UNK        -0.1150 
     13 C13        -7.9967  -16.7963  -45.7096 C.ar      23 UNK        -0.0193 
     14 C14        -7.1174  -16.7252  -44.6253 C.ar      23 UNK        -0.1150 
     15 C15        -9.2811  -17.6061  -45.6066 C.3       23 UNK        -0.0205 
     16 S16        -9.1475  -19.2196  -46.4377 S.3       23 UNK        -0.2404 
     17 C17        -8.1411  -20.1911  -45.2607 C.3       23 UNK        -0.0398 
     18 CA         -6.6212  -20.1631  -45.5650 C.3       11 UNK         0.1400 
     19 N          -5.8366  -20.4793  -44.3597 N.am      11 UNK        -0.5000 
     20 C          -4.5473  -20.1641  -44.1814 C.2       10 UNK         0.5000 
     21 O          -3.8943  -19.5023  -44.9917 O.2       10 UNK        -0.5000 
     22 CA         -3.8609  -20.7787  -42.9477 C.3       10 UNK         0.1400 
     23 CB         -3.6188  -22.2813  -43.1683 C.3       10 UNK        -0.1800 
     24 N          -2.5693  -20.1453  -42.7101 N.am      10 UNK        -0.5000 
     25 C          -2.3788  -18.9956  -42.0628 C.2       9 UNK         0.5000 
     26 O          -3.2659  -18.4318  -41.4191 O.2       9 UNK        -0.5000 
     27 CA         -0.9677  -18.3710  -42.1704 C.3       9 UNK         0.1400 
     28 CB         -0.8744  -17.0291  -41.4178 C.3       9 UNK        -0.1800 
     29 N           0.1352  -19.2342  -41.7287 N.am      9 UNK        -0.5000 
     30 C           0.5681  -20.3634  -42.3097 C.2       8 UNK         0.5000 
     31 O           0.0384  -20.8776  -43.2955 O.2       8 UNK        -0.5000 
     32 CA          1.8472  -20.9738  -41.7141 C.3       8 UNK         0.1400 
     33 CB          2.1869  -22.3581  -42.2960 C.3       8 UNK        -0.1800 
     34 N           2.9388  -20.0516  -41.9990 N.am      8 UNK        -0.5000 
     35 C           3.8541  -19.6150  -41.1238 C.2       7 UNK         0.5000 
     36 O           3.9585  -20.0420  -39.9735 O.2       7 UNK        -0.5000 
     37 CA          4.7932  -18.4831  -41.6020 C.3       7 UNK         0.1400 
     38 CB          6.1248  -19.0629  -42.1021 C.3       7 UNK        -0.1800 
     39 N           4.2036  -17.6647  -42.6651 N.am      7 UNK        -0.5000 
     40 C           3.0901  -16.9301  -42.5333 C.2       6 UNK         0.5000 
     41 O           2.5799  -16.6838  -41.4406 O.2       6 UNK        -0.5000 
     42 CA          2.3972  -16.4291  -43.8206 C.3       6 UNK         0.1400 
     43 CB          2.3428  -14.8955  -43.8452 C.3       6 UNK        -0.1800 
     44 N           2.9749  -16.9180  -45.0801 N.am      6 UNK        -0.5000 
     45 C           3.0174  -18.2004  -45.4791 C.2       5 UNK         0.5000 
     46 O           2.6023  -19.1296  -44.7859 O.2       5 UNK        -0.5000 
     47 CA          3.6759  -18.5248  -46.8380 C.3       5 UNK         0.1400 
     48 CB          2.6969  -19.2291  -47.7854 C.3       5 UNK        -0.1800 
     49 N           4.2388  -17.3569  -47.5164 N.am      5 UNK        -0.5000 
     50 C           5.4115  -16.7898  -47.2012 C.2       4 UNK         0.5000 
     51 O           6.1554  -17.2174  -46.3177 O.2       4 UNK        -0.5000 
     52 CA          5.8168  -15.5217  -47.9798 C.3       4 UNK         0.1400 
     53 CB          6.8217  -15.8711  -49.0881 C.3       4 UNK        -0.1800 
     54 N           4.6928  -14.7922  -48.5732 N.am      4 UNK        -0.5000 
     55 C           3.6921  -14.2189  -47.8908 C.2       3 UNK         0.5000 
     56 O           3.5972  -14.2644  -46.6653 O.2       3 UNK        -0.5000 
     57 CA          2.6104  -13.4786  -48.7021 C.3       3 UNK         0.1400 
     58 CB          3.0347  -13.1354  -50.1477 C.3       3 UNK        -0.1800 
     59 N           1.3310  -14.1915  -48.7062 N.am      3 UNK        -0.5000 
     60 C           1.0912  -15.4436  -49.1276 C.2       2 UNK         0.5000 
     61 O           1.9691  -16.2168  -49.5175 O.2       2 UNK        -0.5000 
     62 CA         -0.3924  -15.8776  -49.1392 C.3       2 UNK         0.1400 
     63 CB         -0.5976  -17.3962  -49.2683 C.3       2 UNK        -0.1800 
     64 N          -1.1578  -15.3474  -48.0094 N.am      2 UNK        -0.5000 
     65 C          -0.9403  -15.5842  -46.7087 C.2       1 UNK         0.5000 
     66 O          -0.0841  -16.3535  -46.2710 O.2       1 UNK        -0.5000 
     67 C          -6.2306  -21.0425  -46.7844 C.2       11 UNK         0.5000 
     68 O          -6.7175  -20.8088  -47.8896 O.2       11 UNK        -0.5000 
     69 N          -5.3406  -22.0206  -46.5704 N.am      12 UNK        -0.5000 
     70 CA         -4.7252  -22.8562  -47.5975 C.3       12 UNK         0.1400 
     71 CB         -5.1538  -24.3178  -47.3776 C.3       12 UNK        -0.1800 
     72 C          -3.1914  -22.6957  -47.6033 C.2       12 UNK         0.5000 
     73 O          -2.4975  -23.5878  -48.0873 O.2       12 UNK        -0.5000 
     74 N          -2.6684  -21.5671  -47.0972 N.am      13 UNK        -0.5000 
     75 CA         -1.2425  -21.2103  -47.1399 C.3       13 UNK         0.1400 
     76 CB         -1.0300  -19.8708  -46.4189 C.3       13 UNK        -0.1800 
     77 C          -0.6842  -21.1474  -48.5772 C.2       13 UNK         0.5000 
     78 O           0.4383  -21.5876  -48.8278 O.2       13 UNK        -0.5000 
     79 N          -1.5217  -20.6810  -49.5132 N.am      14 UNK        -0.5000 
     80 CA         -1.2732  -20.6342  -50.9528 C.3       14 UNK         0.1400 
     81 CB         -2.3375  -19.7455  -51.6155 C.3       14 UNK        -0.1800 
     82 C          -1.2219  -22.0153  -51.6383 C.2       14 UNK         0.5000 
     83 O          -1.0303  -22.0663  -52.8544 O.2       14 UNK        -0.5000 
     84 N          -1.3930  -23.1212  -50.8964 N.am      15 UNK        -0.5000 
     85 CA         -1.1432  -24.4816  -51.3868 C.3       15 UNK         0.1400 
     86 CB         -1.6507  -25.5148  -50.3729 C.3       15 UNK        -0.1800 
     87 C           0.3449  -24.7240  -51.7096 C.2       15 UNK         0.5000 
     88 O           0.6460  -25.5656  -52.5543 O.2       15 UNK        -0.5000 
     89 N           1.2423  -23.9283  -51.1058 N.am      16 UNK        -0.5000 
     90 CA          2.6632  -23.8425  -51.4558 C.3       16 UNK         0.1400 
     91 CB          3.3697  -22.9363  -50.4359 C.3       16 UNK        -0.1800 
     92 C           2.9076  -23.3292  -52.8927 C.2       16 UNK         0.5000 
     93 O           3.9227  -23.6777  -53.4956 O.2       16 UNK        -0.5000 
     94 N           1.9614  -22.5392  -53.4201 N.am      17 UNK        -0.5000 
     95 CA          1.9204  -22.0561  -54.8017 C.3       17 UNK         0.1400 
     96 CB          1.5031  -20.5750  -54.7823 C.3       17 UNK        -0.1800 
     97 C           0.9546  -22.8872  -55.6751 C.2       17 UNK         0.5000 
     98 O           0.7359  -22.5315  -56.8334 O.2       17 UNK        -0.5000 
     99 N           0.3781  -23.9578  -55.1042 N.am      18 UNK        -0.5000 
    100 CA        -0.6181  -24.8716  -55.6765 C.3       18 UNK         0.1400 
    101 CB        -0.0355  -25.6324  -56.8858 C.3       18 UNK        -0.1800 
    102 C         -1.9829  -24.2169  -55.9882 C.2       18 UNK         0.5000 
    103 O         -2.7721  -24.7966  -56.7363 O.2       18 UNK        -0.5000 
    104 N         -2.2516  -23.0381  -55.4105 N.am      19 UNK        -0.5000 
    105 CA        -3.4865  -22.2820  -55.6171 C.3       19 UNK         0.1400 
    106 CB        -3.1582  -20.7816  -55.6647 C.3       19 UNK        -0.1800 
    107 C         -4.5210  -22.5809  -54.5210 C.2       19 UNK         0.5000 
    108 O         -5.6877  -22.8142  -54.8361 O.2       19 UNK        -0.5000 
    109 N         -4.0676  -22.5595  -53.2569 N.am      20 UNK        -0.5000 
    110 CA        -4.8391  -22.7955  -52.0243 C.3       20 UNK         0.1400 
    111 CB        -5.2315  -24.2825  -51.9172 C.3       20 UNK        -0.1800 
    112 C         -6.0436  -21.8417  -51.8288 C.2       20 UNK         0.5000 
    113 O         -7.0267  -22.2171  -51.1898 O.2       20 UNK        -0.5000 
    114 N         -5.9456  -20.6278  -52.3877 N.am      21 UNK        -0.5000 
    115 CA        -7.0072  -19.6170  -52.4072 C.3       21 UNK         0.1400 
    116 CB        -7.0038  -18.9570  -53.7967 C.3       21 UNK        -0.1800 
    117 C         -6.8594  -18.5475  -51.3051 C.2       21 UNK         0.5000 
    118 O         -7.7276  -17.6815  -51.1877 O.2       21 UNK        -0.5000 
    119 N         -5.7663  -18.5962  -50.5392 N.am      22 UNK        -0.5000 
    120 CA        -5.4210  -17.6567  -49.4687 C.3       22 UNK         0.1400 
    121 C         -4.4914  -18.3564  -48.4447 C.2       22 UNK         0.5000 
    122 N         -4.4291  -17.8662  -47.2174 N.am      22 UNK        -0.7600 
    123 O         -3.8450  -19.3572  -48.7449 O.2       22 UNK        -0.5000 
    124 C124       -4.8351  -16.3417  -50.0529 C.3       23 UNK        -0.0398 
    125 S125       -4.5292  -14.9780  -48.8748 S.3       23 UNK        -0.2404 
    126 C126       -6.1989  -14.5736  -48.2556 C.3       23 UNK        -0.0205 
    127 H127        0.4087  -12.0365  -43.8100 H         1 UNK         0.0600 
    128 H128        1.5007  -11.8095  -45.1787 H         1 UNK         0.0600 
    129 H129        0.0997  -10.7499  -44.9804 H         1 UNK         0.0600 
    130 H130       -0.9166  -13.7941  -44.0902 H         1 UNK         0.3000 
    131 H131       -2.5969  -14.2800  -46.2916 H         1 UNK         0.0600 
    132 H132       -3.0177  -16.5032  -45.1772 H         1 UNK         0.0800 
    133 H133       -1.7002  -16.1965  -44.0811 H         1 UNK         0.0800 
    134 H134       -4.6709  -16.9528  -43.2909 H         1 UNK         0.0800 
    135 H135       -5.6160  -15.6602  -42.5971 H         1 UNK         0.0800 
    136 H136       -4.8170  -14.6084  -45.9417 H         1 UNK         0.1150 
    137 H137       -8.3687  -16.1669  -47.7295 H         1 UNK         0.1150 
    138 H138       -7.3405  -17.2748  -43.7214 H         1 UNK         0.1150 
    139 H139       -9.5708  -17.7471  -44.5642 H         1 UNK         0.0800 
    140 H140      -10.0937  -17.0441  -46.0692 H         1 UNK         0.0800 
    141 H141       -8.5126  -21.2171  -45.2466 H         1 UNK         0.0800 
    142 H142       -8.3296  -19.7982  -44.2608 H         1 UNK         0.0800 
    143 H143       -6.3660  -19.1411  -45.8441 H         1 UNK         0.0600 
    144 H144       -6.3050  -21.0364  -43.6592 H         1 UNK         0.3000 
    145 H145       -4.5058  -20.6419  -42.0773 H         1 UNK         0.0600 
    146 H146       -3.1169  -22.7268  -42.3091 H         1 UNK         0.0600 
    147 H147       -4.5561  -22.8212  -43.3068 H         1 UNK         0.0600 
    148 H148       -2.9969  -22.4646  -44.0462 H         1 UNK         0.0600 
    149 H149       -1.7675  -20.5420  -43.1946 H         1 UNK         0.3000 
    150 H150       -0.8087  -18.1685  -43.2312 H         1 UNK         0.0600 
    151 H151       -1.7048  -16.3682  -41.6673 H         1 UNK         0.0600 
    152 H152        0.0356  -16.4909  -41.6731 H         1 UNK         0.0600 
    153 H153       -0.8895  -17.1737  -40.3371 H         1 UNK         0.0600 
    154 H154        0.6526  -18.8942  -40.9307 H         1 UNK         0.3000 
    155 H155        1.6933  -21.0750  -40.6378 H         1 UNK         0.0600 
    156 H156        2.3617  -22.3102  -43.3717 H         1 UNK         0.0600 
    157 H157        1.3740  -23.0643  -42.1236 H         1 UNK         0.0600 
    158 H158        3.0821  -22.7702  -41.8303 H         1 UNK         0.0600 
    159 H159        2.9117  -19.6395  -42.9291 H         1 UNK         0.3000 
    160 H160        4.9959  -17.8351  -40.7469 H         1 UNK         0.0600 
    161 H161        6.8199  -18.2711  -42.3821 H         1 UNK         0.0600 
    162 H162        5.9816  -19.7073  -42.9705 H         1 UNK         0.0600 
    163 H163        6.6072  -19.6589  -41.3262 H         1 UNK         0.0600 
    164 H164        4.5686  -17.8019  -43.5961 H         1 UNK         0.3000 
    165 H165        1.3701  -16.7969  -43.7832 H         1 UNK         0.0600 
    166 H166        1.7815  -14.5430  -44.7092 H         1 UNK         0.0600 
    167 H167        1.8492  -14.5013  -42.9561 H         1 UNK         0.0600 
    168 H168        3.3412  -14.4592  -43.8910 H         1 UNK         0.0600 
    169 H169        3.3232  -16.2046  -45.7098 H         1 UNK         0.3000 
    170 H170        4.4863  -19.2265  -46.6300 H         1 UNK         0.0600 
    171 H171        2.2822  -20.1275  -47.3269 H         1 UNK         0.0600 
    172 H172        1.8677  -18.5776  -48.0480 H         1 UNK         0.0600 
    173 H173        3.1875  -19.5351  -48.7094 H         1 UNK         0.0600 
    174 H174        3.6667  -16.9318  -48.2376 H         1 UNK         0.3000 
    175 H175        6.3082  -14.8516  -47.2714 H         1 UNK         0.0600 
    176 H176        7.1875  -14.9737  -49.5874 H         1 UNK         0.0600 
    177 H177        7.6899  -16.3903  -48.6799 H         1 UNK         0.0600 
    178 H178        6.3765  -16.5196  -49.8437 H         1 UNK         0.0600 
    179 H179        4.6747  -14.7357  -49.5811 H         1 UNK         0.3000 
    180 H180        2.4337  -12.5371  -48.1799 H         1 UNK         0.0600 
    181 H181        3.1719  -14.0250  -50.7634 H         1 UNK         0.0600 
    182 H182        3.9685  -12.5716  -50.1611 H         1 UNK         0.0600 
    183 H183        2.2816  -12.5151  -50.6341 H         1 UNK         0.0600 
    184 H184        0.5533  -13.6689  -48.3147 H         1 UNK         0.3000 
    185 H185       -0.8228  -15.4211  -50.0314 H         1 UNK         0.0600 
    186 H186       -0.1869  -17.9322  -48.4172 H         1 UNK         0.0600 
    187 H187       -1.6578  -17.6368  -49.3188 H         1 UNK         0.0600 
    188 H188       -0.1231  -17.7872  -50.1684 H         1 UNK         0.0600 
    189 H189       -1.8759  -14.6795  -48.2551 H         1 UNK         0.3000 
    190 H190       -4.9887  -22.1425  -45.6330 H         1 UNK         0.3000 
    191 H191       -5.0632  -22.5513  -48.5899 H         1 UNK         0.0600 
    192 H192       -4.7927  -24.7029  -46.4234 H         1 UNK         0.0600 
    193 H193       -4.7653  -24.9658  -48.1645 H         1 UNK         0.0600 
    194 H194       -6.2397  -24.4140  -47.3898 H         1 UNK         0.0600 
    195 H195       -3.2964  -20.8454  -46.7675 H         1 UNK         0.3000 
    196 H196       -0.6875  -21.9810  -46.6016 H         1 UNK         0.0600 
    197 H197        0.0170  -19.5679  -46.4418 H         1 UNK         0.0600 
    198 H198       -1.3163  -19.9392  -45.3714 H         1 UNK         0.0600 
    199 H199       -1.6169  -19.0703  -46.8700 H         1 UNK         0.0600 
    200 H200       -2.4164  -20.3049  -49.1983 H         1 UNK         0.3000 
    201 H201       -0.2975  -20.1702  -51.1082 H         1 UNK         0.0600 
    202 H202       -2.3522  -18.7460  -51.1855 H         1 UNK         0.0600 
    203 H203       -3.3336  -20.1670  -51.5000 H         1 UNK         0.0600 
    204 H204       -2.1436  -19.6233  -52.6805 H         1 UNK         0.0600 
    205 H205       -1.5824  -23.0327  -49.9039 H         1 UNK         0.3000 
    206 H206       -1.7064  -24.6148  -52.3130 H         1 UNK         0.0600 
    207 H207       -2.7106  -25.3744  -50.1609 H         1 UNK         0.0600 
    208 H208       -1.5283  -26.5289  -50.7550 H         1 UNK         0.0600 
    209 H209       -1.1066  -25.4527  -49.4297 H         1 UNK         0.0600 
    210 H210        0.9138  -23.2734  -50.4066 H         1 UNK         0.3000 
    211 H211        3.0904  -24.8448  -51.3841 H         1 UNK         0.0600 
    212 H212        2.9632  -21.9239  -50.4475 H         1 UNK         0.0600 
    213 H213        4.4374  -22.8653  -50.6476 H         1 UNK         0.0600 
    214 H214        3.2646  -23.3255  -49.4229 H         1 UNK         0.0600 
    215 H215        1.1452  -22.3218  -52.8640 H         1 UNK         0.3000 
    216 H216        2.9109  -22.1257  -55.2555 H         1 UNK         0.0600 
    217 H217        1.5237  -20.1478  -55.7856 H         1 UNK         0.0600 
    218 H218        2.1802  -19.9831  -54.1662 H         1 UNK         0.0600 
    219 H219        0.4934  -20.4436  -54.3918 H         1 UNK         0.0600 
    220 H220        0.6549  -24.1855  -54.1577 H         1 UNK         0.3000 
    221 H221       -0.8217  -25.6099  -54.9000 H         1 UNK         0.0600 
    222 H222        0.1202  -24.9760  -57.7422 H         1 UNK         0.0600 
    223 H223        0.9203  -26.0939  -56.6376 H         1 UNK         0.0600 
    224 H224       -0.7047  -26.4316  -57.2063 H         1 UNK         0.0600 
    225 H225       -1.5707  -22.6443  -54.7712 H         1 UNK         0.3000 
    226 H226       -3.9333  -22.5494  -56.5773 H         1 UNK         0.0600 
    227 H227       -2.6443  -20.4495  -54.7638 H         1 UNK         0.0600 
    228 H228       -4.0639  -20.1830  -55.7711 H         1 UNK         0.0600 
    229 H229       -2.5148  -20.5513  -56.5142 H         1 UNK         0.0600 
    230 H230       -3.0796  -22.3787  -53.1296 H         1 UNK         0.3000 
    231 H231       -4.1660  -22.5829  -51.1937 H         1 UNK         0.0600 
    232 H232       -4.3642  -24.9296  -52.0457 H         1 UNK         0.0600 
    233 H233       -5.9695  -24.5591  -52.6707 H         1 UNK         0.0600 
    234 H234       -5.6594  -24.5070  -50.9393 H         1 UNK         0.0600 
    235 H235       -5.1126  -20.4079  -52.9121 H         1 UNK         0.3000 
    236 H236       -7.9783  -20.0955  -52.2641 H         1 UNK         0.0600 
    237 H237       -7.1467  -19.6975  -54.5842 H         1 UNK         0.0600 
    238 H238       -7.8105  -18.2286  -53.8888 H         1 UNK         0.0600 
    239 H239       -6.0661  -18.4354  -53.9928 H         1 UNK         0.0600 
    240 H240       -5.1339  -19.3792  -50.6222 H         1 UNK         0.3000 
    241 H241       -6.3462  -17.4303  -48.9391 H         1 UNK         0.0600 
    242 H242       -3.9249  -18.3787  -46.5011 H         1 UNK         0.3800 
    243 H243       -4.9622  -17.0490  -46.9611 H         1 UNK         0.3800 
    244 H244       -3.8947  -16.5549  -50.5635 H         1 UNK         0.0800 
    245 H245       -5.5027  -15.9511  -50.8218 H         1 UNK         0.0800 
    246 H246       -6.2428  -13.5038  -48.0477 H         1 UNK         0.0800 
    247 H247       -6.9377  -14.7653  -49.0355 H         1 UNK         0.0800 
@<TRIPOS>BOND
     1    1    2 1    
     2    1  127 1    
     3    1  128 1    
     4    1  129 1    
     5    2    3 2    
     6    2    4 am   BACKBONE|DICT|INTERRES
     7    4    5 1    
     8    4  130 1    
     9    5    6 1    
    10    5   65 1    
    11    5  131 1    
    12    6    7 1    
    13    6  132 1    
    14    6  133 1    
    15    7    8 1    
    16    8    9 1    
    17    8  134 1    
    18    8  135 1    
    19    9   10 ar   
    20    9   14 ar   
    21   10   11 ar   
    22   10  136 1    
    23   11   12 ar   
    24   11  126 1    
    25   12   13 ar   
    26   12  137 1    
    27   13   14 ar   
    28   13   15 1    
    29   14  138 1    
    30   15   16 1    
    31   15  139 1    
    32   15  140 1    
    33   16   17 1    
    34   17   18 1    
    35   17  141 1    
    36   17  142 1    
    37   18   19 1    
    38   18   67 1    
    39   18  143 1    
    40   19   20 am   BACKBONE|DICT|INTERRES
    41   19  144 1    
    42   20   21 2    
    43   20   22 1    
    44   22   23 1    
    45   22   24 1    
    46   22  145 1    
    47   23  146 1    
    48   23  147 1    
    49   23  148 1    
    50   24   25 am   BACKBONE|DICT|INTERRES
    51   24  149 1    
    52   25   26 2    
    53   25   27 1    
    54   27   28 1    
    55   27   29 1    
    56   27  150 1    
    57   28  151 1    
    58   28  152 1    
    59   28  153 1    
    60   29   30 am   BACKBONE|DICT|INTERRES
    61   29  154 1    
    62   30   31 2    
    63   30   32 1    
    64   32   33 1    
    65   32   34 1    
    66   32  155 1    
    67   33  156 1    
    68   33  157 1    
    69   33  158 1    
    70   34   35 am   BACKBONE|DICT|INTERRES
    71   34  159 1    
    72   35   36 2    
    73   35   37 1    
    74   37   38 1    
    75   37   39 1    
    76   37  160 1    
    77   38  161 1    
    78   38  162 1    
    79   38  163 1    
    80   39   40 am   BACKBONE|DICT|INTERRES
    81   39  164 1    
    82   40   41 2    
    83   40   42 1    
    84   42   43 1    
    85   42   44 1    
    86   42  165 1    
    87   43  166 1    
    88   43  167 1    
    89   43  168 1    
    90   44   45 am   BACKBONE|DICT|INTERRES
    91   44  169 1    
    92   45   46 2    
    93   45   47 1    
    94   47   48 1    
    95   47   49 1    
    96   47  170 1    
    97   48  171 1    
    98   48  172 1    
    99   48  173 1    
   100   49   50 am   BACKBONE|DICT|INTERRES
   101   49  174 1    
   102   50   51 2    
   103   50   52 1    
   104   52   53 1    
   105   52   54 1    
   106   52  175 1    
   107   53  176 1    
   108   53  177 1    
   109   53  178 1    
   110   54   55 am   BACKBONE|DICT|INTERRES
   111   54  179 1    
   112   55   56 2    
   113   55   57 1    
   114   57   58 1    
   115   57   59 1    
   116   57  180 1    
   117   58  181 1    
   118   58  182 1    
   119   58  183 1    
   120   59   60 am   BACKBONE|DICT|INTERRES
   121   59  184 1    
   122   60   61 2    
   123   60   62 1    
   124   62   63 1    
   125   62   64 1    
   126   62  185 1    
   127   63  186 1    
   128   63  187 1    
   129   63  188 1    
   130   64   65 am   BACKBONE|DICT|INTERRES
   131   64  189 1    
   132   65   66 2    
   133   67   68 2    
   134   67   69 am   BACKBONE|DICT|INTERRES
   135   69   70 1    
   136   69  190 1    
   137   70   71 1    
   138   70   72 1    
   139   70  191 1    
   140   71  192 1    
   141   71  193 1    
   142   71  194 1    
   143   72   73 2    
   144   72   74 am   BACKBONE|DICT|INTERRES
   145   74   75 1    
   146   74  195 1    
   147   75   76 1    
   148   75   77 1    
   149   75  196 1    
   150   76  197 1    
   151   76  198 1    
   152   76  199 1    
   153   77   78 2    
   154   77   79 am   BACKBONE|DICT|INTERRES
   155   79   80 1    
   156   79  200 1    
   157   80   81 1    
   158   80   82 1    
   159   80  201 1    
   160   81  202 1    
   161   81  203 1    
   162   81  204 1    
   163   82   83 2    
   164   82   84 am   BACKBONE|DICT|INTERRES
   165   84   85 1    
   166   84  205 1    
   167   85   86 1    
   168   85   87 1    
   169   85  206 1    
   170   86  207 1    
   171   86  208 1    
   172   86  209 1    
   173   87   88 2    
   174   87   89 am   BACKBONE|DICT|INTERRES
   175   89   90 1    
   176   89  210 1    
   177   90   91 1    
   178   90   92 1    
   179   90  211 1    
   180   91  212 1    
   181   91  213 1    
   182   91  214 1    
   183   92   93 2    
   184   92   94 am   BACKBONE|DICT|INTERRES
   185   94   95 1    
   186   94  215 1    
   187   95   96 1    
   188   95   97 1    
   189   95  216 1    
   190   96  217 1    
   191   96  218 1    
   192   96  219 1    
   193   97   98 2    
   194   97   99 am   BACKBONE|DICT|INTERRES
   195   99  100 1    
   196   99  220 1    
   197  100  101 1    
   198  100  102 1    
   199  100  221 1    
   200  101  222 1    
   201  101  223 1    
   202  101  224 1    
   203  102  103 2    
   204  102  104 am   BACKBONE|DICT|INTERRES
   205  104  105 1    
   206  104  225 1    
   207  105  106 1    
   208  105  107 1    
   209  105  226 1    
   210  106  227 1    
   211  106  228 1    
   212  106  229 1    
   213  107  108 2    
   214  107  109 am   BACKBONE|DICT|INTERRES
   215  109  110 1    
   216  109  230 1    
   217  110  111 1    
   218  110  112 1    
   219  110  231 1    
   220  111  232 1    
   221  111  233 1    
   222  111  234 1    
   223  112  113 2    
   224  112  114 am   BACKBONE|DICT|INTERRES
   225  114  115 1    
   226  114  235 1    
   227  115  116 1    
   228  115  117 1    
   229  115  236 1    
   230  116  237 1    
   231  116  238 1    
   232  116  239 1    
   233  117  118 2    
   234  117  119 am   BACKBONE|DICT|INTERRES
   235  119  120 1    
   236  119  240 1    
   237  120  121 1    
   238  120  124 1    
   239  120  241 1    
   240  121  122 am   BACKBONE|DICT|INTERRES
   241  121  123 2    
   242  122  242 1    
   243  122  243 1    
   244  124  125 1    
   245  124  244 1    
   246  124  245 1    
   247  125  126 1    
   248  126  246 1    
   249  126  247 1    
@<TRIPOS>SUBSTRUCTURE
     1 UNK         1 GROUP             0       ****    0 ROOT    
