@<TRIPOS>MOLECULE
3R540
247   249    1
SMALL
USER_CHARGES


@<TRIPOS>ATOM
      1 CA          5.8801  -14.5735  -44.8486 C.3       0 UNK        -0.1800 
      2 C           4.7037  -13.6390  -45.0927 C.2       0 UNK         0.5000 
      3 O           4.2588  -12.9597  -44.1674 O.2       0 UNK        -0.5000 
      4 N           4.1929  -13.6108  -46.3290 N.am      1 UNK        -0.5000 
      5 CA          3.0814  -12.7572  -46.7567 C.3       1 UNK         0.1400 
      6 C6          2.4809  -13.2178  -48.1058 C.3       23 UNK        -0.0398 
      7 S7          1.6828  -14.8415  -47.9392 S.3       23 UNK        -0.2404 
      8 C8          2.1997  -15.6957  -49.4527 C.3       23 UNK        -0.0205 
      9 C9          1.5055  -17.0439  -49.5516 C.ar      23 UNK        -0.0193 
     10 C10         0.2505  -17.1432  -50.1591 C.ar      23 UNK        -0.1150 
     11 C11        -0.3989  -18.3776  -50.2415 C.ar      23 UNK        -0.0193 
     12 C12         0.2114  -19.5144  -49.7074 C.ar      23 UNK        -0.1150 
     13 C13         1.4645  -19.4287  -49.0964 C.ar      23 UNK        -0.0193 
     14 C14         2.1088  -18.1902  -49.0253 C.ar      23 UNK        -0.1150 
     15 C15         2.1339  -20.6735  -48.5340 C.3       23 UNK        -0.0205 
     16 S16         1.8020  -20.8809  -46.7571 S.3       23 UNK        -0.2404 
     17 C17         0.1344  -21.6257  -46.7658 C.3       23 UNK        -0.0398 
     18 CA          0.1501  -23.1586  -46.5698 C.3       11 UNK         0.1400 
     19 N           0.8635  -23.5611  -45.3560 N.am      11 UNK        -0.5000 
     20 C           1.2581  -24.8132  -45.0841 C.2       10 UNK         0.5000 
     21 O           1.0751  -25.7610  -45.8458 O.2       10 UNK        -0.5000 
     22 CA          1.9143  -25.0633  -43.7115 C.3       10 UNK         0.1400 
     23 CB          3.4390  -24.9129  -43.8136 C.3       10 UNK        -0.1800 
     24 N           1.4151  -24.1727  -42.6630 N.am      10 UNK        -0.5000 
     25 C           0.1348  -24.0700  -42.2773 C.2       9 UNK         0.5000 
     26 O          -0.7611  -24.8002  -42.7021 O.2       9 UNK        -0.5000 
     27 CA         -0.2119  -22.9130  -41.3170 C.3       9 UNK         0.1400 
     28 CB         -0.2960  -23.4230  -39.8712 C.3       9 UNK        -0.1800 
     29 N           0.7376  -21.7936  -41.3814 N.am      9 UNK        -0.5000 
     30 C           0.9663  -21.0419  -42.4677 C.2       8 UNK         0.5000 
     31 O           0.3610  -21.1802  -43.5328 O.2       8 UNK        -0.5000 
     32 CA          2.1147  -20.0307  -42.3652 C.3       8 UNK         0.1400 
     33 CB          3.4712  -20.7650  -42.3333 C.3       8 UNK        -0.1800 
     34 N           2.0751  -19.1191  -43.5059 N.am      8 UNK        -0.5000 
     35 C           2.7158  -17.9466  -43.5696 C.2       7 UNK         0.5000 
     36 O           3.3800  -17.4829  -42.6413 O.2       7 UNK        -0.5000 
     37 CA          2.6236  -17.1542  -44.8865 C.3       7 UNK         0.1400 
     38 CB          3.8074  -17.5004  -45.8025 C.3       7 UNK        -0.1800 
     39 N           1.3741  -17.3301  -45.6301 N.am      7 UNK        -0.5000 
     40 C           0.1863  -16.8624  -45.2283 C.2       6 UNK         0.5000 
     41 O          -0.0213  -16.3913  -44.1066 O.2       6 UNK        -0.5000 
     42 CA         -0.9498  -16.9039  -46.2665 C.3       6 UNK         0.1400 
     43 CB         -1.5222  -18.3204  -46.3991 C.3       6 UNK        -0.1800 
     44 N          -2.0173  -16.0001  -45.8354 N.am      6 UNK        -0.5000 
     45 C          -2.5793  -14.9716  -46.4843 C.2       5 UNK         0.5000 
     46 O          -3.4427  -14.2844  -45.9353 O.2       5 UNK        -0.5000 
     47 CA         -2.1927  -14.6541  -47.9495 C.3       5 UNK         0.1400 
     48 CB         -2.9398  -15.5800  -48.9226 C.3       5 UNK        -0.1800 
     49 N          -2.5023  -13.2677  -48.3013 N.am      5 UNK        -0.5000 
     50 C          -1.8061  -12.2012  -47.8887 C.2       4 UNK         0.5000 
     51 O          -0.7732  -12.2643  -47.2154 O.2       4 UNK        -0.5000 
     52 CA         -2.3914  -10.8293  -48.2693 C.3       4 UNK         0.1400 
     53 CB         -3.4671  -10.4065  -47.2562 C.3       4 UNK        -0.1800 
     54 N          -1.3553   -9.7988  -48.3066 N.am      4 UNK        -0.5000 
     55 C          -0.4947   -9.6160  -49.3166 C.2       3 UNK         0.5000 
     56 O          -0.5133  -10.2597  -50.3659 O.2       3 UNK        -0.5000 
     57 CA          0.5898   -8.5565  -49.0874 C.3       3 UNK         0.1400 
     58 CB         -0.0197   -7.1411  -49.0156 C.3       3 UNK        -0.1800 
     59 N           1.3150   -8.8974  -47.8664 N.am      3 UNK        -0.5000 
     60 C           2.4500   -8.3372  -47.4305 C.2       2 UNK         0.5000 
     61 O           3.0196   -7.3998  -47.9901 O.2       2 UNK        -0.5000 
     62 CA          3.0654   -8.9548  -46.1603 C.3       2 UNK         0.1400 
     63 CB          2.4713   -8.3056  -44.9008 C.3       2 UNK        -0.1800 
     64 N           2.8591  -10.4043  -46.1009 N.am      2 UNK        -0.5000 
     65 C           3.5338  -11.2885  -46.8473 C.2       1 UNK         0.5000 
     66 O           4.4616  -10.9855  -47.6012 O.2       1 UNK        -0.5000 
     67 C          -1.2916  -23.7057  -46.5922 C.2       11 UNK         0.5000 
     68 O          -1.8135  -23.9832  -47.6719 O.2       11 UNK        -0.5000 
     69 N          -1.9128  -23.8565  -45.4137 N.am      12 UNK        -0.5000 
     70 CA         -3.2307  -24.4707  -45.2565 C.3       12 UNK         0.1400 
     71 CB         -3.8752  -24.0062  -43.9423 C.3       12 UNK        -0.1800 
     72 C          -3.1451  -26.0021  -45.3322 C.2       12 UNK         0.5000 
     73 O          -4.0029  -26.6188  -45.9624 O.2       12 UNK        -0.5000 
     74 N          -2.0849  -26.5843  -44.7518 N.am      13 UNK        -0.5000 
     75 CA         -1.7733  -28.0152  -44.8356 C.3       13 UNK         0.1400 
     76 CB         -0.5935  -28.3397  -43.9078 C.3       13 UNK        -0.1800 
     77 C          -1.4822  -28.4791  -46.2779 C.2       13 UNK         0.5000 
     78 O          -1.9123  -29.5642  -46.6691 O.2       13 UNK        -0.5000 
     79 N          -0.8010  -27.6245  -47.0539 N.am      14 UNK        -0.5000 
     80 CA         -0.5430  -27.7972  -48.4857 C.3       14 UNK         0.1400 
     81 CB          0.6151  -26.8689  -48.8874 C.3       14 UNK        -0.1800 
     82 C          -1.7734  -27.5230  -49.3777 C.2       14 UNK         0.5000 
     83 O          -1.7097  -27.7886  -50.5781 O.2       14 UNK        -0.5000 
     84 N          -2.8478  -26.9714  -48.7922 N.am      15 UNK        -0.5000 
     85 CA         -4.1074  -26.5479  -49.4167 C.3       15 UNK         0.1400 
     86 CB         -4.8354  -27.7331  -50.0823 C.3       15 UNK        -0.1800 
     87 C          -3.9723  -25.3338  -50.3603 C.2       15 UNK         0.5000 
     88 O          -4.9261  -25.0042  -51.0660 O.2       15 UNK        -0.5000 
     89 N          -2.8252  -24.6444  -50.3207 N.am      16 UNK        -0.5000 
     90 CA         -2.5614  -23.4143  -51.0642 C.3       16 UNK         0.1400 
     91 CB         -1.0616  -23.0873  -50.9934 C.3       16 UNK        -0.1800 
     92 C          -3.4115  -22.2509  -50.5306 C.2       16 UNK         0.5000 
     93 O          -4.0522  -21.5513  -51.3133 O.2       16 UNK        -0.5000 
     94 N          -3.4640  -22.1141  -49.1981 N.am      17 UNK        -0.5000 
     95 CA         -4.2979  -21.1258  -48.5089 C.3       17 UNK         0.1400 
     96 CB         -3.8516  -21.0114  -47.0447 C.3       17 UNK        -0.1800 
     97 C          -5.8035  -21.4444  -48.5947 C.2       17 UNK         0.5000 
     98 O          -6.6180  -20.5271  -48.4983 O.2       17 UNK        -0.5000 
     99 N          -6.1449  -22.7278  -48.7838 N.am      18 UNK        -0.5000 
    100 CA        -7.5140  -23.1925  -49.0077 C.3       18 UNK         0.1400 
    101 CB        -7.6048  -24.7012  -48.7296 C.3       18 UNK        -0.1800 
    102 C         -8.0019  -22.8563  -50.4289 C.2       18 UNK         0.5000 
    103 O         -9.1414  -22.4171  -50.5878 O.2       18 UNK        -0.5000 
    104 N         -7.1266  -23.0418  -51.4292 N.am      19 UNK        -0.5000 
    105 CA        -7.3558  -22.6388  -52.8182 C.3       19 UNK         0.1400 
    106 CB        -6.2730  -23.2578  -53.7161 C.3       19 UNK        -0.1800 
    107 C         -7.3877  -21.1072  -52.9772 C.2       19 UNK         0.5000 
    108 O         -8.2567  -20.5845  -53.6751 O.2       19 UNK        -0.5000 
    109 N         -6.4443  -20.4284  -52.3078 N.am      20 UNK        -0.5000 
    110 CA        -6.2980  -18.9765  -52.1584 C.3       20 UNK         0.1400 
    111 CB        -7.5260  -18.3702  -51.4498 C.3       20 UNK        -0.1800 
    112 C         -5.9384  -18.2151  -53.4516 C.2       20 UNK         0.5000 
    113 O         -5.9139  -16.9833  -53.4346 O.2       20 UNK        -0.5000 
    114 N         -5.6098  -18.9339  -54.5357 N.am      21 UNK        -0.5000 
    115 CA        -5.1897  -18.3739  -55.8278 C.3       21 UNK         0.1400 
    116 CB        -5.0645  -19.5150  -56.8486 C.3       21 UNK        -0.1800 
    117 C         -3.8745  -17.5710  -55.7450 C.2       21 UNK         0.5000 
    118 O         -3.6720  -16.6323  -56.5155 O.2       21 UNK        -0.5000 
    119 N         -3.0298  -17.9462  -54.7807 N.am      22 UNK        -0.5000 
    120 CA        -1.8259  -17.2371  -54.3303 C.3       22 UNK         0.1400 
    121 C         -2.0937  -15.9376  -53.5110 C.2       22 UNK         0.5000 
    122 N         -3.3262  -15.6034  -53.1449 N.am      22 UNK        -0.7600 
    123 O         -1.1564  -15.2058  -53.2070 O.2       22 UNK        -0.5000 
    124 C124       -0.8559  -18.2002  -53.5873 C.3       23 UNK        -0.0398 
    125 S125       -1.6827  -19.3966  -52.4742 S.3       23 UNK        -0.2404 
    126 C126       -1.7623  -18.4925  -50.9003 C.3       23 UNK        -0.0205 
    127 H127        5.6362  -15.2832  -44.0578 H         1 UNK         0.0600 
    128 H128        6.7550  -14.0024  -44.5378 H         1 UNK         0.0600 
    129 H129        6.1422  -15.1384  -45.7436 H         1 UNK         0.0600 
    130 H130        4.6133  -14.1732  -47.0541 H         1 UNK         0.3000 
    131 H131        2.2946  -12.8268  -46.0014 H         1 UNK         0.0600 
    132 H132        3.2479  -13.2545  -48.8815 H         1 UNK         0.0800 
    133 H133        1.7210  -12.5157  -48.4547 H         1 UNK         0.0800 
    134 H134        3.2833  -15.8231  -49.4519 H         1 UNK         0.0800 
    135 H135        1.9542  -15.0834  -50.3219 H         1 UNK         0.0800 
    136 H136       -0.2187  -16.2587  -50.5677 H         1 UNK         0.1150 
    137 H137       -0.2903  -20.4673  -49.7841 H         1 UNK         0.1150 
    138 H138        3.0829  -18.1201  -48.5636 H         1 UNK         0.1150 
    139 H139        3.2127  -20.6024  -48.6801 H         1 UNK         0.0800 
    140 H140        1.8141  -21.5637  -49.0781 H         1 UNK         0.0800 
    141 H141       -0.3735  -21.3700  -47.6948 H         1 UNK         0.0800 
    142 H142       -0.4439  -21.1518  -45.9722 H         1 UNK         0.0800 
    143 H143        0.6724  -23.5976  -47.4225 H         1 UNK         0.0600 
    144 H144        1.0143  -22.8285  -44.6726 H         1 UNK         0.3000 
    145 H145        1.6878  -26.0881  -43.4132 H         1 UNK         0.0600 
    146 H146        3.8472  -25.5850  -44.5698 H         1 UNK         0.0600 
    147 H147        3.9246  -25.1564  -42.8684 H         1 UNK         0.0600 
    148 H148        3.7261  -23.8970  -44.0881 H         1 UNK         0.0600 
    149 H149        2.0846  -23.5386  -42.2544 H         1 UNK         0.3000 
    150 H150       -1.1949  -22.5354  -41.6062 H         1 UNK         0.0600 
    151 H151       -0.6226  -22.6346  -39.1928 H         1 UNK         0.0600 
    152 H152       -1.0138  -24.2401  -39.7865 H         1 UNK         0.0600 
    153 H153        0.6670  -23.7940  -39.5181 H         1 UNK         0.0600 
    154 H154        1.2786  -21.6208  -40.5461 H         1 UNK         0.3000 
    155 H155        1.9803  -19.4591  -41.4446 H         1 UNK         0.0600 
    156 H156        3.6375  -21.3349  -43.2486 H         1 UNK         0.0600 
    157 H157        3.5305  -21.4607  -41.4958 H         1 UNK         0.0600 
    158 H158        4.3013  -20.0673  -42.2226 H         1 UNK         0.0600 
    159 H159        1.5145  -19.4366  -44.2872 H         1 UNK         0.3000 
    160 H160        2.7042  -16.0961  -44.6278 H         1 UNK         0.0600 
    161 H161        4.7559  -17.4005  -45.2737 H         1 UNK         0.0600 
    162 H162        3.8471  -16.8327  -46.6628 H         1 UNK         0.0600 
    163 H163        3.7464  -18.5256  -46.1687 H         1 UNK         0.0600 
    164 H164        1.4593  -17.7189  -46.5584 H         1 UNK         0.3000 
    165 H165       -0.5370  -16.6201  -47.2315 H         1 UNK         0.0600 
    166 H166       -0.7826  -18.9842  -46.8430 H         1 UNK         0.0600 
    167 H167       -1.8128  -18.7371  -45.4337 H         1 UNK         0.0600 
    168 H168       -2.3964  -18.3357  -47.0493 H         1 UNK         0.0600 
    169 H169       -2.2574  -16.1153  -44.8609 H         1 UNK         0.3000 
    170 H170       -1.1226  -14.7793  -48.0922 H         1 UNK         0.0600 
    171 H171       -4.0214  -15.4776  -48.8267 H         1 UNK         0.0600 
    172 H172       -2.6933  -16.6249  -48.7375 H         1 UNK         0.0600 
    173 H173       -2.6722  -15.3619  -49.9567 H         1 UNK         0.0600 
    174 H174       -3.3638  -13.1209  -48.8060 H         1 UNK         0.3000 
    175 H175       -2.8520  -10.9047  -49.2569 H         1 UNK         0.0600 
    176 H176       -3.9090   -9.4473  -47.5265 H         1 UNK         0.0600 
    177 H177       -4.2768  -11.1364  -47.2160 H         1 UNK         0.0600 
    178 H178       -3.0582  -10.3170  -46.2489 H         1 UNK         0.0600 
    179 H179       -1.2592   -9.2342  -47.4757 H         1 UNK         0.3000 
    180 H180        1.2857   -8.5998  -49.9278 H         1 UNK         0.0600 
    181 H181       -0.6394   -7.0102  -48.1280 H         1 UNK         0.0600 
    182 H182       -0.6456   -6.9419  -49.8865 H         1 UNK         0.0600 
    183 H183        0.7530   -6.3730  -48.9971 H         1 UNK         0.0600 
    184 H184        0.9538   -9.6946  -47.3607 H         1 UNK         0.3000 
    185 H185        4.1386   -8.7523  -46.1732 H         1 UNK         0.0600 
    186 H186        2.6272   -7.2260  -44.9087 H         1 UNK         0.0600 
    187 H187        1.3978   -8.4815  -44.8222 H         1 UNK         0.0600 
    188 H188        2.9426   -8.6943  -43.9978 H         1 UNK         0.0600 
    189 H189        2.1358  -10.7350  -45.4780 H         1 UNK         0.3000 
    190 H190       -1.4086  -23.6439  -44.5636 H         1 UNK         0.3000 
    191 H191       -3.8738  -24.1446  -46.0759 H         1 UNK         0.0600 
    192 H192       -3.9527  -22.9194  -43.9049 H         1 UNK         0.0600 
    193 H193       -4.8845  -24.4075  -43.8435 H         1 UNK         0.0600 
    194 H194       -3.3090  -24.3322  -43.0702 H         1 UNK         0.0600 
    195 H195       -1.4541  -26.0064  -44.2068 H         1 UNK         0.3000 
    196 H196       -2.6470  -28.5647  -44.4790 H         1 UNK         0.0600 
    197 H197        0.3265  -27.8629  -44.2445 H         1 UNK         0.0600 
    198 H198       -0.4099  -29.4143  -43.8757 H         1 UNK         0.0600 
    199 H199       -0.7891  -28.0112  -42.8868 H         1 UNK         0.0600 
    200 H200       -0.3967  -26.7985  -46.6228 H         1 UNK         0.3000 
    201 H201       -0.2337  -28.8294  -48.6617 H         1 UNK         0.0600 
    202 H202        0.8712  -26.9897  -49.9407 H         1 UNK         0.0600 
    203 H203        1.5136  -27.0871  -48.3098 H         1 UNK         0.0600 
    204 H204        0.3617  -25.8200  -48.7289 H         1 UNK         0.0600 
    205 H205       -2.8010  -26.8123  -47.7939 H         1 UNK         0.3000 
    206 H206       -4.7370  -26.2065  -48.5944 H         1 UNK         0.0600 
    207 H207       -4.3131  -28.0844  -50.9723 H         1 UNK         0.0600 
    208 H208       -4.9316  -28.5728  -49.3941 H         1 UNK         0.0600 
    209 H209       -5.8429  -27.4505  -50.3896 H         1 UNK         0.0600 
    210 H210       -2.1325  -24.9167  -49.6360 H         1 UNK         0.3000 
    211 H211       -2.8296  -23.5778  -52.1101 H         1 UNK         0.0600 
    212 H212       -0.8310  -22.1888  -51.5663 H         1 UNK         0.0600 
    213 H213       -0.4637  -23.8981  -51.4099 H         1 UNK         0.0600 
    214 H214       -0.7277  -22.9204  -49.9691 H         1 UNK         0.0600 
    215 H215       -2.9266  -22.7583  -48.6248 H         1 UNK         0.3000 
    216 H216       -4.1404  -20.1570  -48.9866 H         1 UNK         0.0600 
    217 H217       -4.0887  -21.9100  -46.4784 H         1 UNK         0.0600 
    218 H218       -2.7794  -20.8398  -46.9689 H         1 UNK         0.0600 
    219 H219       -4.3513  -20.1768  -46.5515 H         1 UNK         0.0600 
    220 H220       -5.4085  -23.4100  -48.8702 H         1 UNK         0.3000 
    221 H221       -8.1698  -22.6829  -48.2982 H         1 UNK         0.0600 
    222 H222       -7.0209  -25.2841  -49.4408 H         1 UNK         0.0600 
    223 H223       -7.2524  -24.9416  -47.7263 H         1 UNK         0.0600 
    224 H224       -8.6374  -25.0446  -48.8019 H         1 UNK         0.0600 
    225 H225       -6.2334  -23.4786  -51.2277 H         1 UNK         0.3000 
    226 H226       -8.3253  -23.0307  -53.1326 H         1 UNK         0.0600 
    227 H227       -6.2919  -24.3464  -53.6594 H         1 UNK         0.0600 
    228 H228       -6.4261  -22.9831  -54.7604 H         1 UNK         0.0600 
    229 H229       -5.2731  -22.9285  -53.4311 H         1 UNK         0.0600 
    230 H230       -5.7196  -20.9695  -51.8392 H         1 UNK         0.3000 
    231 H231       -5.4426  -18.8422  -51.4946 H         1 UNK         0.0600 
    232 H232       -8.4146  -18.4010  -52.0807 H         1 UNK         0.0600 
    233 H233       -7.3509  -17.3271  -51.1843 H         1 UNK         0.0600 
    234 H234       -7.7514  -18.9044  -50.5267 H         1 UNK         0.0600 
    235 H235       -5.6534  -19.9395  -54.4661 H         1 UNK         0.3000 
    236 H236       -5.9714  -17.6913  -56.1672 H         1 UNK         0.0600 
    237 H237       -4.3107  -20.2436  -56.5472 H         1 UNK         0.0600 
    238 H238       -6.0114  -20.0413  -56.9702 H         1 UNK         0.0600 
    239 H239       -4.7780  -19.1321  -57.8291 H         1 UNK         0.0600 
    240 H240       -3.2892  -18.7358  -54.2068 H         1 UNK         0.3000 
    241 H241       -1.3074  -16.8943  -55.2275 H         1 UNK         0.0600 
    242 H242       -3.4646  -14.7485  -52.6317 H         1 UNK         0.3800 
    243 H243       -4.1321  -16.1694  -53.3878 H         1 UNK         0.3800 
    244 H244       -0.3238  -18.7934  -54.3317 H         1 UNK         0.0800 
    245 H245       -0.0750  -17.6623  -53.0473 H         1 UNK         0.0800 
    246 H246       -2.4361  -19.0233  -50.2278 H         1 UNK         0.0800 
    247 H247       -2.2070  -17.5118  -51.0649 H         1 UNK         0.0800 
@<TRIPOS>BOND
     1    1    2 1    
     2    1  127 1    
     3    1  128 1    
     4    1  129 1    
     5    2    3 2    
     6    2    4 am   BACKBONE|DICT|INTERRES
     7    4    5 1    
     8    4  130 1    
     9    5    6 1    
    10    5   65 1    
    11    5  131 1    
    12    6    7 1    
    13    6  132 1    
    14    6  133 1    
    15    7    8 1    
    16    8    9 1    
    17    8  134 1    
    18    8  135 1    
    19    9   10 ar   
    20    9   14 ar   
    21   10   11 ar   
    22   10  136 1    
    23   11   12 ar   
    24   11  126 1    
    25   12   13 ar   
    26   12  137 1    
    27   13   14 ar   
    28   13   15 1    
    29   14  138 1    
    30   15   16 1    
    31   15  139 1    
    32   15  140 1    
    33   16   17 1    
    34   17   18 1    
    35   17  141 1    
    36   17  142 1    
    37   18   19 1    
    38   18   67 1    
    39   18  143 1    
    40   19   20 am   BACKBONE|DICT|INTERRES
    41   19  144 1    
    42   20   21 2    
    43   20   22 1    
    44   22   23 1    
    45   22   24 1    
    46   22  145 1    
    47   23  146 1    
    48   23  147 1    
    49   23  148 1    
    50   24   25 am   BACKBONE|DICT|INTERRES
    51   24  149 1    
    52   25   26 2    
    53   25   27 1    
    54   27   28 1    
    55   27   29 1    
    56   27  150 1    
    57   28  151 1    
    58   28  152 1    
    59   28  153 1    
    60   29   30 am   BACKBONE|DICT|INTERRES
    61   29  154 1    
    62   30   31 2    
    63   30   32 1    
    64   32   33 1    
    65   32   34 1    
    66   32  155 1    
    67   33  156 1    
    68   33  157 1    
    69   33  158 1    
    70   34   35 am   BACKBONE|DICT|INTERRES
    71   34  159 1    
    72   35   36 2    
    73   35   37 1    
    74   37   38 1    
    75   37   39 1    
    76   37  160 1    
    77   38  161 1    
    78   38  162 1    
    79   38  163 1    
    80   39   40 am   BACKBONE|DICT|INTERRES
    81   39  164 1    
    82   40   41 2    
    83   40   42 1    
    84   42   43 1    
    85   42   44 1    
    86   42  165 1    
    87   43  166 1    
    88   43  167 1    
    89   43  168 1    
    90   44   45 am   BACKBONE|DICT|INTERRES
    91   44  169 1    
    92   45   46 2    
    93   45   47 1    
    94   47   48 1    
    95   47   49 1    
    96   47  170 1    
    97   48  171 1    
    98   48  172 1    
    99   48  173 1    
   100   49   50 am   BACKBONE|DICT|INTERRES
   101   49  174 1    
   102   50   51 2    
   103   50   52 1    
   104   52   53 1    
   105   52   54 1    
   106   52  175 1    
   107   53  176 1    
   108   53  177 1    
   109   53  178 1    
   110   54   55 am   BACKBONE|DICT|INTERRES
   111   54  179 1    
   112   55   56 2    
   113   55   57 1    
   114   57   58 1    
   115   57   59 1    
   116   57  180 1    
   117   58  181 1    
   118   58  182 1    
   119   58  183 1    
   120   59   60 am   BACKBONE|DICT|INTERRES
   121   59  184 1    
   122   60   61 2    
   123   60   62 1    
   124   62   63 1    
   125   62   64 1    
   126   62  185 1    
   127   63  186 1    
   128   63  187 1    
   129   63  188 1    
   130   64   65 am   BACKBONE|DICT|INTERRES
   131   64  189 1    
   132   65   66 2    
   133   67   68 2    
   134   67   69 am   BACKBONE|DICT|INTERRES
   135   69   70 1    
   136   69  190 1    
   137   70   71 1    
   138   70   72 1    
   139   70  191 1    
   140   71  192 1    
   141   71  193 1    
   142   71  194 1    
   143   72   73 2    
   144   72   74 am   BACKBONE|DICT|INTERRES
   145   74   75 1    
   146   74  195 1    
   147   75   76 1    
   148   75   77 1    
   149   75  196 1    
   150   76  197 1    
   151   76  198 1    
   152   76  199 1    
   153   77   78 2    
   154   77   79 am   BACKBONE|DICT|INTERRES
   155   79   80 1    
   156   79  200 1    
   157   80   81 1    
   158   80   82 1    
   159   80  201 1    
   160   81  202 1    
   161   81  203 1    
   162   81  204 1    
   163   82   83 2    
   164   82   84 am   BACKBONE|DICT|INTERRES
   165   84   85 1    
   166   84  205 1    
   167   85   86 1    
   168   85   87 1    
   169   85  206 1    
   170   86  207 1    
   171   86  208 1    
   172   86  209 1    
   173   87   88 2    
   174   87   89 am   BACKBONE|DICT|INTERRES
   175   89   90 1    
   176   89  210 1    
   177   90   91 1    
   178   90   92 1    
   179   90  211 1    
   180   91  212 1    
   181   91  213 1    
   182   91  214 1    
   183   92   93 2    
   184   92   94 am   BACKBONE|DICT|INTERRES
   185   94   95 1    
   186   94  215 1    
   187   95   96 1    
   188   95   97 1    
   189   95  216 1    
   190   96  217 1    
   191   96  218 1    
   192   96  219 1    
   193   97   98 2    
   194   97   99 am   BACKBONE|DICT|INTERRES
   195   99  100 1    
   196   99  220 1    
   197  100  101 1    
   198  100  102 1    
   199  100  221 1    
   200  101  222 1    
   201  101  223 1    
   202  101  224 1    
   203  102  103 2    
   204  102  104 am   BACKBONE|DICT|INTERRES
   205  104  105 1    
   206  104  225 1    
   207  105  106 1    
   208  105  107 1    
   209  105  226 1    
   210  106  227 1    
   211  106  228 1    
   212  106  229 1    
   213  107  108 2    
   214  107  109 am   BACKBONE|DICT|INTERRES
   215  109  110 1    
   216  109  230 1    
   217  110  111 1    
   218  110  112 1    
   219  110  231 1    
   220  111  232 1    
   221  111  233 1    
   222  111  234 1    
   223  112  113 2    
   224  112  114 am   BACKBONE|DICT|INTERRES
   225  114  115 1    
   226  114  235 1    
   227  115  116 1    
   228  115  117 1    
   229  115  236 1    
   230  116  237 1    
   231  116  238 1    
   232  116  239 1    
   233  117  118 2    
   234  117  119 am   BACKBONE|DICT|INTERRES
   235  119  120 1    
   236  119  240 1    
   237  120  121 1    
   238  120  124 1    
   239  120  241 1    
   240  121  122 am   BACKBONE|DICT|INTERRES
   241  121  123 2    
   242  122  242 1    
   243  122  243 1    
   244  124  125 1    
   245  124  244 1    
   246  124  245 1    
   247  125  126 1    
   248  126  246 1    
   249  126  247 1    
@<TRIPOS>SUBSTRUCTURE
     1 UNK         1 GROUP             0       ****    0 ROOT    
