@<TRIPOS>MOLECULE
3R540
247   249    1
SMALL
USER_CHARGES


@<TRIPOS>ATOM
      1 CA         -0.4379   -8.6791  -44.1350 C.3       0 UNK        -0.1800 
      2 C          -0.3834   -9.4955  -45.4189 C.2       0 UNK         0.5000 
      3 O          -0.5955   -8.9488  -46.5019 O.2       0 UNK        -0.5000 
      4 N          -0.1094  -10.8007  -45.2998 N.am      1 UNK        -0.5000 
      5 CA          0.0562  -11.7291  -46.4234 C.3       1 UNK         0.1400 
      6 C6         -0.0788  -13.2041  -45.9605 C.3       23 UNK        -0.0398 
      7 S7         -0.8935  -14.2385  -47.2186 S.3       23 UNK        -0.2404 
      8 C8         -2.6238  -14.0969  -46.6754 C.3       23 UNK        -0.0205 
      9 C9         -3.5869  -14.6049  -47.7348 C.ar      23 UNK        -0.0193 
     10 C10        -3.7864  -13.8608  -48.9001 C.ar      23 UNK        -0.1150 
     11 C11        -4.6900  -14.2904  -49.8750 C.ar      23 UNK        -0.0193 
     12 C12        -5.4173  -15.4657  -49.6623 C.ar      23 UNK        -0.1150 
     13 C13        -5.2052  -16.2366  -48.5142 C.ar      23 UNK        -0.0193 
     14 C14        -4.2905  -15.7988  -47.5508 C.ar      23 UNK        -0.1150 
     15 C15        -5.9680  -17.5397  -48.3206 C.3       23 UNK        -0.0205 
     16 S16        -5.2638  -18.8908  -49.3185 S.3       23 UNK        -0.2404 
     17 C17        -3.7307  -19.2761  -48.4037 C.3       23 UNK        -0.0398 
     18 CA         -3.4929  -20.7880  -48.1803 C.3       11 UNK         0.1400 
     19 N          -2.1198  -21.0332  -47.7286 N.am      11 UNK        -0.5000 
     20 C          -1.5726  -22.2447  -47.5692 C.2       10 UNK         0.5000 
     21 O          -2.1625  -23.3042  -47.7718 O.2       10 UNK        -0.5000 
     22 CA         -0.1413  -22.2913  -47.0214 C.3       10 UNK         0.1400 
     23 CB          0.8699  -21.7356  -48.0346 C.3       10 UNK        -0.1800 
     24 N          -0.0220  -21.5910  -45.7443 N.am      10 UNK        -0.5000 
     25 C          -0.7288  -21.8657  -44.6368 C.2       9 UNK         0.5000 
     26 O          -1.5226  -22.8048  -44.5375 O.2       9 UNK        -0.5000 
     27 CA         -0.5502  -20.8993  -43.4531 C.3       9 UNK         0.1400 
     28 CB          0.7151  -21.2458  -42.6549 C.3       9 UNK        -0.1800 
     29 N          -0.4969  -19.4973  -43.8691 N.am      9 UNK        -0.5000 
     30 C          -1.4788  -18.8434  -44.5075 C.2       8 UNK         0.5000 
     31 O          -2.5624  -19.3428  -44.8042 O.2       8 UNK        -0.5000 
     32 CA         -1.1713  -17.4038  -44.9426 C.3       8 UNK         0.1400 
     33 CB         -1.2245  -16.4351  -43.7511 C.3       8 UNK        -0.1800 
     34 N           0.1310  -17.3244  -45.5979 N.am      8 UNK        -0.5000 
     35 C           0.3830  -17.8180  -46.8178 C.2       7 UNK         0.5000 
     36 O          -0.4687  -18.3455  -47.5347 O.2       7 UNK        -0.5000 
     37 CA          1.8339  -17.7151  -47.3176 C.3       7 UNK         0.1400 
     38 CB          2.0434  -16.3823  -48.0497 C.3       7 UNK        -0.1800 
     39 N           2.8250  -17.8543  -46.2462 N.am      7 UNK        -0.5000 
     40 C           3.0129  -18.9760  -45.5377 C.2       6 UNK         0.5000 
     41 O           2.3694  -20.0094  -45.7127 O.2       6 UNK        -0.5000 
     42 CA          4.0587  -18.9253  -44.4105 C.3       6 UNK         0.1400 
     43 CB          5.4824  -19.0123  -44.9809 C.3       6 UNK        -0.1800 
     44 N           3.9482  -17.7488  -43.5440 N.am      6 UNK        -0.5000 
     45 C           2.8593  -17.3920  -42.8477 C.2       5 UNK         0.5000 
     46 O           1.7780  -17.9728  -42.9332 O.2       5 UNK        -0.5000 
     47 CA          2.9859  -16.1917  -41.8872 C.3       5 UNK         0.1400 
     48 CB          2.8970  -16.6762  -40.4319 C.3       5 UNK        -0.1800 
     49 N           4.2402  -15.4478  -42.0509 N.am      5 UNK        -0.5000 
     50 C           4.5169  -14.4811  -42.9379 C.2       4 UNK         0.5000 
     51 O           5.6322  -13.9605  -42.9811 O.2       4 UNK        -0.5000 
     52 CA          3.4165  -13.9695  -43.8988 C.3       4 UNK         0.1400 
     53 CB          2.7046  -12.7541  -43.2844 C.3       4 UNK        -0.1800 
     54 N           3.9592  -13.5903  -45.2035 N.am      4 UNK        -0.5000 
     55 C           4.5392  -14.4432  -46.0577 C.2       3 UNK         0.5000 
     56 O           4.5873  -15.6602  -45.8746 O.2       3 UNK        -0.5000 
     57 CA          5.0619  -13.8327  -47.3634 C.3       3 UNK         0.1400 
     58 CB          5.8345  -14.8293  -48.2491 C.3       3 UNK        -0.1800 
     59 N           3.9135  -13.2916  -48.0792 N.am      3 UNK        -0.5000 
     60 C           3.9300  -12.2271  -48.8856 C.2       2 UNK         0.5000 
     61 O           4.9562  -11.6357  -49.2236 O.2       2 UNK        -0.5000 
     62 CA          2.5589  -11.7166  -49.3740 C.3       2 UNK         0.1400 
     63 CB          2.1979  -12.3652  -50.7195 C.3       2 UNK        -0.1800 
     64 N           1.4480  -11.9277  -48.4350 N.am      2 UNK        -0.5000 
     65 C           1.3844  -11.4771  -47.1733 C.2       1 UNK         0.5000 
     66 O           2.3183  -10.9106  -46.5988 O.2       1 UNK        -0.5000 
     67 C          -4.5444  -21.4139  -47.2356 C.2       11 UNK         0.5000 
     68 O          -5.5167  -22.0009  -47.7129 O.2       11 UNK        -0.5000 
     69 N          -4.3182  -21.3010  -45.9188 N.am      12 UNK        -0.5000 
     70 CA         -5.2031  -21.8159  -44.8781 C.3       12 UNK         0.1400 
     71 CB         -4.7593  -21.2922  -43.5035 C.3       12 UNK        -0.1800 
     72 C          -5.3187  -23.3494  -44.8614 C.2       12 UNK         0.5000 
     73 O          -6.4428  -23.8543  -44.8357 O.2       12 UNK        -0.5000 
     74 N          -4.1827  -24.0646  -44.8517 N.am      13 UNK        -0.5000 
     75 CA         -4.1813  -25.5211  -44.6801 C.3       13 UNK         0.1400 
     76 CB         -4.4570  -25.8793  -43.2055 C.3       13 UNK        -0.1800 
     77 C          -2.9060  -26.2345  -45.1516 C.2       13 UNK         0.5000 
     78 O          -3.0066  -27.3924  -45.5596 O.2       13 UNK        -0.5000 
     79 N          -1.7313  -25.5916  -45.0602 N.am      14 UNK        -0.5000 
     80 CA         -0.4405  -26.2592  -45.2875 C.3       14 UNK         0.1400 
     81 CB          0.6990  -25.4355  -44.6660 C.3       14 UNK        -0.1800 
     82 C          -0.1607  -26.6159  -46.7629 C.2       14 UNK         0.5000 
     83 O           0.6492  -27.5067  -47.0230 O.2       14 UNK        -0.5000 
     84 N          -0.8548  -25.9481  -47.6901 N.am      15 UNK        -0.5000 
     85 CA         -0.9152  -26.2849  -49.1136 C.3       15 UNK         0.1400 
     86 CB         -0.1013  -25.2590  -49.9168 C.3       15 UNK        -0.1800 
     87 C          -2.3751  -26.3331  -49.6027 C.2       15 UNK         0.5000 
     88 O          -2.6861  -27.1395  -50.4790 O.2       15 UNK        -0.5000 
     89 N          -3.2280  -25.4869  -49.0051 N.am      16 UNK        -0.5000 
     90 CA         -4.6308  -25.1956  -49.2995 C.3       16 UNK         0.1400 
     91 CB         -5.4831  -26.4687  -49.4703 C.3       16 UNK        -0.1800 
     92 C          -4.7742  -24.2367  -50.4931 C.2       16 UNK         0.5000 
     93 O          -3.8846  -24.1475  -51.3444 O.2       16 UNK        -0.5000 
     94 N          -5.9195  -23.5436  -50.5353 N.am      17 UNK        -0.5000 
     95 CA         -6.2620  -22.4942  -51.5017 C.3       17 UNK         0.1400 
     96 CB         -7.6269  -21.9002  -51.1234 C.3       17 UNK        -0.1800 
     97 C          -6.2572  -22.9412  -52.9777 C.2       17 UNK         0.5000 
     98 O          -6.1103  -22.1032  -53.8668 O.2       17 UNK        -0.5000 
     99 N          -6.4101  -24.2506  -53.2148 N.am      18 UNK        -0.5000 
    100 CA        -6.3209  -24.8766  -54.5331 C.3       18 UNK         0.1400 
    101 CB        -6.8841  -26.3032  -54.4413 C.3       18 UNK        -0.1800 
    102 C         -4.8879  -24.9009  -55.1038 C.2       18 UNK         0.5000 
    103 O         -4.7349  -24.9479  -56.3252 O.2       18 UNK        -0.5000 
    104 N         -3.8748  -24.8805  -54.2266 N.am      19 UNK        -0.5000 
    105 CA        -2.4588  -24.9016  -54.5892 C.3       19 UNK         0.1400 
    106 CB        -1.7415  -25.9865  -53.7704 C.3       19 UNK        -0.1800 
    107 C         -1.8202  -23.5262  -54.3518 C.2       19 UNK         0.5000 
    108 O         -1.2110  -22.9708  -55.2669 O.2       19 UNK        -0.5000 
    109 N         -1.9829  -22.9936  -53.1357 N.am      20 UNK        -0.5000 
    110 CA        -1.4993  -21.6812  -52.7267 C.3       20 UNK         0.1400 
    111 CB        -0.9360  -21.7811  -51.2997 C.3       20 UNK        -0.1800 
    112 C         -2.6704  -20.6979  -52.8162 C.2       20 UNK         0.5000 
    113 O         -3.3880  -20.5210  -51.8338 O.2       20 UNK        -0.5000 
    114 N         -2.8639  -20.1132  -54.0077 N.am      21 UNK        -0.5000 
    115 CA        -3.9733  -19.2106  -54.3434 C.3       21 UNK         0.1400 
    116 CB        -3.8340  -18.7614  -55.8060 C.3       21 UNK        -0.1800 
    117 C         -4.1055  -17.9919  -53.4087 C.2       21 UNK         0.5000 
    118 O         -5.2269  -17.5875  -53.1009 O.2       21 UNK        -0.5000 
    119 N         -2.9598  -17.4774  -52.9494 N.am      22 UNK        -0.5000 
    120 CA        -2.8255  -16.5729  -51.8051 C.3       22 UNK         0.1400 
    121 C         -1.6220  -17.0128  -50.9343 C.2       22 UNK         0.5000 
    122 N         -1.6175  -16.6424  -49.6631 N.am      22 UNK        -0.7600 
    123 O         -0.7012  -17.6877  -51.3922 O.2       22 UNK        -0.5000 
    124 C124       -2.7343  -15.0763  -52.2115 C.3       23 UNK        -0.0398 
    125 S125       -4.3656  -14.3889  -52.6630 S.3       23 UNK        -0.2404 
    126 C126       -4.8647  -13.4827  -51.1565 C.3       23 UNK        -0.0205 
    127 H127       -0.2371   -9.2916  -43.2556 H         1 UNK         0.0600 
    128 H128       -1.4235   -8.2287  -44.0179 H         1 UNK         0.0600 
    129 H129        0.3022   -7.8795  -44.1679 H         1 UNK         0.0600 
    130 H130        0.0788  -11.1765  -44.3825 H         1 UNK         0.3000 
    131 H131       -0.7549  -11.5079  -47.1213 H         1 UNK         0.0600 
    132 H132       -0.6681  -13.2662  -45.0449 H         1 UNK         0.0800 
    133 H133        0.8869  -13.6479  -45.7142 H         1 UNK         0.0800 
    134 H134       -2.8552  -13.0522  -46.4619 H         1 UNK         0.0800 
    135 H135       -2.7567  -14.6399  -45.7390 H         1 UNK         0.0800 
    136 H136       -3.2297  -12.9457  -49.0466 H         1 UNK         0.1150 
    137 H137       -6.1162  -15.8050  -50.4146 H         1 UNK         0.1150 
    138 H138       -4.1337  -16.3829  -46.6550 H         1 UNK         0.1150 
    139 H139       -5.9888  -17.8293  -47.2688 H         1 UNK         0.0800 
    140 H140       -7.0080  -17.3935  -48.6155 H         1 UNK         0.0800 
    141 H141       -3.7048  -18.7401  -47.4538 H         1 UNK         0.0800 
    142 H142       -2.9092  -18.8764  -48.9955 H         1 UNK         0.0800 
    143 H143       -3.5948  -21.2879  -49.1462 H         1 UNK         0.0600 
    144 H144       -1.5614  -20.2129  -47.5197 H         1 UNK         0.3000 
    145 H145        0.1077  -23.3383  -46.8594 H         1 UNK         0.0600 
    146 H146        1.8907  -21.8361  -47.6662 H         1 UNK         0.0600 
    147 H147        0.8164  -22.2803  -48.9768 H         1 UNK         0.0600 
    148 H148        0.6944  -20.6827  -48.2526 H         1 UNK         0.0600 
    149 H149        0.6620  -20.8395  -45.7080 H         1 UNK         0.3000 
    150 H150       -1.4121  -21.0171  -42.7940 H         1 UNK         0.0600 
    151 H151        0.6912  -22.2816  -42.3139 H         1 UNK         0.0600 
    152 H152        0.8089  -20.6131  -41.7720 H         1 UNK         0.0600 
    153 H153        1.6173  -21.1168  -43.2537 H         1 UNK         0.0600 
    154 H154        0.3597  -18.9935  -43.6523 H         1 UNK         0.3000 
    155 H155       -1.9339  -17.0979  -45.6618 H         1 UNK         0.0600 
    156 H156       -2.2202  -16.4262  -43.3062 H         1 UNK         0.0600 
    157 H157       -0.9980  -15.4160  -44.0597 H         1 UNK         0.0600 
    158 H158       -0.5204  -16.7090  -42.9659 H         1 UNK         0.0600 
    159 H159        0.9003  -16.9690  -45.0515 H         1 UNK         0.3000 
    160 H160        1.9941  -18.5248  -48.0323 H         1 UNK         0.0600 
    161 H161        1.3104  -16.2505  -48.8469 H         1 UNK         0.0600 
    162 H162        3.0282  -16.3404  -48.5113 H         1 UNK         0.0600 
    163 H163        1.9468  -15.5347  -47.3716 H         1 UNK         0.0600 
    164 H164        3.4275  -17.0550  -46.0579 H         1 UNK         0.3000 
    165 H165        3.8962  -19.8026  -43.7812 H         1 UNK         0.0600 
    166 H166        6.2222  -19.0921  -44.1843 H         1 UNK         0.0600 
    167 H167        5.5953  -19.8912  -45.6170 H         1 UNK         0.0600 
    168 H168        5.7312  -18.1377  -45.5830 H         1 UNK         0.0600 
    169 H169        4.7823  -17.1890  -43.4439 H         1 UNK         0.3000 
    170 H170        2.1334  -15.5330  -42.0585 H         1 UNK         0.0600 
    171 H171        1.9613  -17.2074  -40.2512 H         1 UNK         0.0600 
    172 H172        3.7129  -17.3556  -40.1817 H         1 UNK         0.0600 
    173 H173        2.9315  -15.8389  -39.7346 H         1 UNK         0.0600 
    174 H174        4.9819  -15.7292  -41.4264 H         1 UNK         0.3000 
    175 H175        2.6801  -14.7500  -44.0891 H         1 UNK         0.0600 
    176 H176        3.4030  -11.9401  -43.0850 H         1 UNK         0.0600 
    177 H177        1.9298  -12.3683  -43.9437 H         1 UNK         0.0600 
    178 H178        2.2274  -13.0142  -42.3389 H         1 UNK         0.0600 
    179 H179        3.9445  -12.6055  -45.4317 H         1 UNK         0.3000 
    180 H180        5.7382  -13.0208  -47.0870 H         1 UNK         0.0600 
    181 H181        5.2101  -15.6621  -48.5695 H         1 UNK         0.0600 
    182 H182        6.6860  -15.2469  -47.7107 H         1 UNK         0.0600 
    183 H183        6.2236  -14.3419  -49.1430 H         1 UNK         0.0600 
    184 H184        3.0188  -13.6963  -47.8461 H         1 UNK         0.3000 
    185 H185        2.6525  -10.6397  -49.5278 H         1 UNK         0.0600 
    186 H186        2.9902  -12.2118  -51.4535 H         1 UNK         0.0600 
    187 H187        2.0470  -13.4410  -50.6191 H         1 UNK         0.0600 
    188 H188        1.2861  -11.9350  -51.1342 H         1 UNK         0.0600 
    189 H189        0.6427  -12.4086  -48.8106 H         1 UNK         0.3000 
    190 H190       -3.5166  -20.7622  -45.6003 H         1 UNK         0.3000 
    191 H191       -6.2002  -21.4164  -45.0753 H         1 UNK         0.0600 
    192 H192       -3.7427  -21.6026  -43.2632 H         1 UNK         0.0600 
    193 H193       -5.4118  -21.6651  -42.7130 H         1 UNK         0.0600 
    194 H194       -4.7959  -20.2034  -43.4659 H         1 UNK         0.0600 
    195 H195       -3.2873  -23.5861  -44.8841 H         1 UNK         0.3000 
    196 H196       -4.9887  -25.9357  -45.2884 H         1 UNK         0.0600 
    197 H197       -4.4248  -26.9584  -43.0486 H         1 UNK         0.0600 
    198 H198       -5.4427  -25.5416  -42.8859 H         1 UNK         0.0600 
    199 H199       -3.7178  -25.4286  -42.5422 H         1 UNK         0.0600 
    200 H200       -1.6948  -24.6281  -44.7373 H         1 UNK         0.3000 
    201 H201       -0.4678  -27.2084  -44.7476 H         1 UNK         0.0600 
    202 H202        0.5348  -25.2831  -43.5992 H         1 UNK         0.0600 
    203 H203        0.8063  -24.4567  -45.1255 H         1 UNK         0.0600 
    204 H204        1.6543  -25.9504  -44.7749 H         1 UNK         0.0600 
    205 H205       -1.4873  -25.2239  -47.3750 H         1 UNK         0.3000 
    206 H206       -0.4885  -27.2755  -49.2840 H         1 UNK         0.0600 
    207 H207        0.9391  -25.2387  -49.5922 H         1 UNK         0.0600 
    208 H208       -0.1078  -25.4979  -50.9805 H         1 UNK         0.0600 
    209 H209       -0.5080  -24.2556  -49.8024 H         1 UNK         0.0600 
    210 H210       -2.8087  -24.7720  -48.4138 H         1 UNK         0.3000 
    211 H211       -4.9976  -24.6684  -48.4172 H         1 UNK         0.0600 
    212 H212       -5.2696  -26.9820  -50.4081 H         1 UNK         0.0600 
    213 H213       -6.5462  -26.2267  -49.4726 H         1 UNK         0.0600 
    214 H214       -5.3126  -27.1706  -48.6537 H         1 UNK         0.0600 
    215 H215       -6.5783  -23.6671  -49.7798 H         1 UNK         0.3000 
    216 H216       -5.5200  -21.7051  -51.3964 H         1 UNK         0.0600 
    217 H217       -7.9015  -21.0899  -51.8002 H         1 UNK         0.0600 
    218 H218       -7.6081  -21.4845  -50.1154 H         1 UNK         0.0600 
    219 H219       -8.4184  -22.6494  -51.1667 H         1 UNK         0.0600 
    220 H220       -6.5355  -24.8658  -52.4250 H         1 UNK         0.3000 
    221 H221       -6.9433  -24.3067  -55.2262 H         1 UNK         0.0600 
    222 H222       -6.3098  -26.9187  -53.7476 H         1 UNK         0.0600 
    223 H223       -7.9217  -26.2976  -54.1069 H         1 UNK         0.0600 
    224 H224       -6.8604  -26.7960  -55.4142 H         1 UNK         0.0600 
    225 H225       -4.0829  -24.7845  -53.2382 H         1 UNK         0.3000 
    226 H226       -2.3337  -25.1479  -55.6456 H         1 UNK         0.0600 
    227 H227       -2.1479  -26.9745  -53.9865 H         1 UNK         0.0600 
    228 H228       -0.6760  -26.0132  -54.0019 H         1 UNK         0.0600 
    229 H229       -1.8422  -25.8142  -52.6991 H         1 UNK         0.0600 
    230 H230       -2.5701  -23.4753  -52.4579 H         1 UNK         0.3000 
    231 H231       -0.6969  -21.3330  -53.3805 H         1 UNK         0.0600 
    232 H232       -0.0432  -22.4050  -51.2805 H         1 UNK         0.0600 
    233 H233       -1.6635  -22.2093  -50.6092 H         1 UNK         0.0600 
    234 H234       -0.6570  -20.7980  -50.9172 H         1 UNK         0.0600 
    235 H235       -2.2386  -20.3516  -54.7643 H         1 UNK         0.3000 
    236 H236       -4.8960  -19.7853  -54.2521 H         1 UNK         0.0600 
    237 H237       -4.6560  -18.1038  -56.0919 H         1 UNK         0.0600 
    238 H238       -2.9041  -18.2162  -55.9725 H         1 UNK         0.0600 
    239 H239       -3.8513  -19.6146  -56.4844 H         1 UNK         0.0600 
    240 H240       -2.0934  -17.9215  -53.2219 H         1 UNK         0.3000 
    241 H241       -3.6984  -16.7241  -51.1723 H         1 UNK         0.0600 
    242 H242       -0.9033  -17.0137  -49.0522 H         1 UNK         0.3800 
    243 H243       -2.3587  -16.0818  -49.2704 H         1 UNK         0.3800 
    244 H244       -2.3163  -14.4682  -51.4076 H         1 UNK         0.0800 
    245 H245       -2.0550  -14.9543  -53.0562 H         1 UNK         0.0800 
    246 H246       -5.9112  -13.1907  -51.2520 H         1 UNK         0.0800 
    247 H247       -4.2935  -12.5544  -51.1065 H         1 UNK         0.0800 
@<TRIPOS>BOND
     1    1    2 1    
     2    1  127 1    
     3    1  128 1    
     4    1  129 1    
     5    2    3 2    
     6    2    4 am   BACKBONE|DICT|INTERRES
     7    4    5 1    
     8    4  130 1    
     9    5    6 1    
    10    5   65 1    
    11    5  131 1    
    12    6    7 1    
    13    6  132 1    
    14    6  133 1    
    15    7    8 1    
    16    8    9 1    
    17    8  134 1    
    18    8  135 1    
    19    9   10 ar   
    20    9   14 ar   
    21   10   11 ar   
    22   10  136 1    
    23   11   12 ar   
    24   11  126 1    
    25   12   13 ar   
    26   12  137 1    
    27   13   14 ar   
    28   13   15 1    
    29   14  138 1    
    30   15   16 1    
    31   15  139 1    
    32   15  140 1    
    33   16   17 1    
    34   17   18 1    
    35   17  141 1    
    36   17  142 1    
    37   18   19 1    
    38   18   67 1    
    39   18  143 1    
    40   19   20 am   BACKBONE|DICT|INTERRES
    41   19  144 1    
    42   20   21 2    
    43   20   22 1    
    44   22   23 1    
    45   22   24 1    
    46   22  145 1    
    47   23  146 1    
    48   23  147 1    
    49   23  148 1    
    50   24   25 am   BACKBONE|DICT|INTERRES
    51   24  149 1    
    52   25   26 2    
    53   25   27 1    
    54   27   28 1    
    55   27   29 1    
    56   27  150 1    
    57   28  151 1    
    58   28  152 1    
    59   28  153 1    
    60   29   30 am   BACKBONE|DICT|INTERRES
    61   29  154 1    
    62   30   31 2    
    63   30   32 1    
    64   32   33 1    
    65   32   34 1    
    66   32  155 1    
    67   33  156 1    
    68   33  157 1    
    69   33  158 1    
    70   34   35 am   BACKBONE|DICT|INTERRES
    71   34  159 1    
    72   35   36 2    
    73   35   37 1    
    74   37   38 1    
    75   37   39 1    
    76   37  160 1    
    77   38  161 1    
    78   38  162 1    
    79   38  163 1    
    80   39   40 am   BACKBONE|DICT|INTERRES
    81   39  164 1    
    82   40   41 2    
    83   40   42 1    
    84   42   43 1    
    85   42   44 1    
    86   42  165 1    
    87   43  166 1    
    88   43  167 1    
    89   43  168 1    
    90   44   45 am   BACKBONE|DICT|INTERRES
    91   44  169 1    
    92   45   46 2    
    93   45   47 1    
    94   47   48 1    
    95   47   49 1    
    96   47  170 1    
    97   48  171 1    
    98   48  172 1    
    99   48  173 1    
   100   49   50 am   BACKBONE|DICT|INTERRES
   101   49  174 1    
   102   50   51 2    
   103   50   52 1    
   104   52   53 1    
   105   52   54 1    
   106   52  175 1    
   107   53  176 1    
   108   53  177 1    
   109   53  178 1    
   110   54   55 am   BACKBONE|DICT|INTERRES
   111   54  179 1    
   112   55   56 2    
   113   55   57 1    
   114   57   58 1    
   115   57   59 1    
   116   57  180 1    
   117   58  181 1    
   118   58  182 1    
   119   58  183 1    
   120   59   60 am   BACKBONE|DICT|INTERRES
   121   59  184 1    
   122   60   61 2    
   123   60   62 1    
   124   62   63 1    
   125   62   64 1    
   126   62  185 1    
   127   63  186 1    
   128   63  187 1    
   129   63  188 1    
   130   64   65 am   BACKBONE|DICT|INTERRES
   131   64  189 1    
   132   65   66 2    
   133   67   68 2    
   134   67   69 am   BACKBONE|DICT|INTERRES
   135   69   70 1    
   136   69  190 1    
   137   70   71 1    
   138   70   72 1    
   139   70  191 1    
   140   71  192 1    
   141   71  193 1    
   142   71  194 1    
   143   72   73 2    
   144   72   74 am   BACKBONE|DICT|INTERRES
   145   74   75 1    
   146   74  195 1    
   147   75   76 1    
   148   75   77 1    
   149   75  196 1    
   150   76  197 1    
   151   76  198 1    
   152   76  199 1    
   153   77   78 2    
   154   77   79 am   BACKBONE|DICT|INTERRES
   155   79   80 1    
   156   79  200 1    
   157   80   81 1    
   158   80   82 1    
   159   80  201 1    
   160   81  202 1    
   161   81  203 1    
   162   81  204 1    
   163   82   83 2    
   164   82   84 am   BACKBONE|DICT|INTERRES
   165   84   85 1    
   166   84  205 1    
   167   85   86 1    
   168   85   87 1    
   169   85  206 1    
   170   86  207 1    
   171   86  208 1    
   172   86  209 1    
   173   87   88 2    
   174   87   89 am   BACKBONE|DICT|INTERRES
   175   89   90 1    
   176   89  210 1    
   177   90   91 1    
   178   90   92 1    
   179   90  211 1    
   180   91  212 1    
   181   91  213 1    
   182   91  214 1    
   183   92   93 2    
   184   92   94 am   BACKBONE|DICT|INTERRES
   185   94   95 1    
   186   94  215 1    
   187   95   96 1    
   188   95   97 1    
   189   95  216 1    
   190   96  217 1    
   191   96  218 1    
   192   96  219 1    
   193   97   98 2    
   194   97   99 am   BACKBONE|DICT|INTERRES
   195   99  100 1    
   196   99  220 1    
   197  100  101 1    
   198  100  102 1    
   199  100  221 1    
   200  101  222 1    
   201  101  223 1    
   202  101  224 1    
   203  102  103 2    
   204  102  104 am   BACKBONE|DICT|INTERRES
   205  104  105 1    
   206  104  225 1    
   207  105  106 1    
   208  105  107 1    
   209  105  226 1    
   210  106  227 1    
   211  106  228 1    
   212  106  229 1    
   213  107  108 2    
   214  107  109 am   BACKBONE|DICT|INTERRES
   215  109  110 1    
   216  109  230 1    
   217  110  111 1    
   218  110  112 1    
   219  110  231 1    
   220  111  232 1    
   221  111  233 1    
   222  111  234 1    
   223  112  113 2    
   224  112  114 am   BACKBONE|DICT|INTERRES
   225  114  115 1    
   226  114  235 1    
   227  115  116 1    
   228  115  117 1    
   229  115  236 1    
   230  116  237 1    
   231  116  238 1    
   232  116  239 1    
   233  117  118 2    
   234  117  119 am   BACKBONE|DICT|INTERRES
   235  119  120 1    
   236  119  240 1    
   237  120  121 1    
   238  120  124 1    
   239  120  241 1    
   240  121  122 am   BACKBONE|DICT|INTERRES
   241  121  123 2    
   242  122  242 1    
   243  122  243 1    
   244  124  125 1    
   245  124  244 1    
   246  124  245 1    
   247  125  126 1    
   248  126  246 1    
   249  126  247 1    
@<TRIPOS>SUBSTRUCTURE
     1 UNK         1 GROUP             0       ****    0 ROOT    
