@<TRIPOS>MOLECULE
3R540
247   249    1
SMALL
USER_CHARGES


@<TRIPOS>ATOM
      1 CA          6.6685  -10.2360  -46.9897 C.3       0 UNK        -0.1800 
      2 C           5.3682  -10.8310  -46.4718 C.2       0 UNK         0.5000 
      3 O           5.0131  -10.6114  -45.3145 O.2       0 UNK        -0.5000 
      4 N           4.6443  -11.5649  -47.3266 N.am      1 UNK        -0.5000 
      5 CA          3.3992  -12.2903  -47.0210 C.3       1 UNK         0.1400 
      6 C6          2.9632  -13.1831  -48.2061 C.3       23 UNK        -0.0398 
      7 S7          4.1897  -14.4949  -48.5431 S.3       23 UNK        -0.2404 
      8 C8          3.2481  -15.9958  -48.1154 C.3       23 UNK        -0.0205 
      9 C9          2.5837  -16.6463  -49.3250 C.ar      23 UNK        -0.0193 
     10 C10         1.7668  -15.9100  -50.1905 C.ar      23 UNK        -0.1150 
     11 C11         1.1992  -16.5076  -51.3198 C.ar      23 UNK        -0.0193 
     12 C12         1.4293  -17.8636  -51.5680 C.ar      23 UNK        -0.1150 
     13 C13         2.2207  -18.6186  -50.6977 C.ar      23 UNK        -0.0193 
     14 C14         2.7955  -18.0038  -49.5815 C.ar      23 UNK        -0.1150 
     15 C15         2.4722  -20.0950  -50.9714 C.3       23 UNK        -0.0205 
     16 S16         0.9980  -21.1141  -50.6533 S.3       23 UNK        -0.2404 
     17 C17         0.6700  -20.7495  -48.8948 C.3       23 UNK        -0.0398 
     18 CA          0.1590  -21.9746  -48.1012 C.3       11 UNK         0.1400 
     19 N           0.2663  -21.7693  -46.6542 N.am      11 UNK        -0.5000 
     20 C           0.0176  -22.7021  -45.7235 C.2       10 UNK         0.5000 
     21 O          -0.2671  -23.8710  -45.9825 O.2       10 UNK        -0.5000 
     22 CA          0.0372  -22.2410  -44.2552 C.3       10 UNK         0.1400 
     23 CB          1.4746  -22.1863  -43.7179 C.3       10 UNK        -0.1800 
     24 N          -0.6165  -20.9449  -44.0653 N.am      10 UNK        -0.5000 
     25 C          -1.9157  -20.7108  -44.3034 C.2       9 UNK         0.5000 
     26 O          -2.7133  -21.5812  -44.6507 O.2       9 UNK        -0.5000 
     27 CA         -2.3959  -19.2529  -44.1856 C.3       9 UNK         0.1400 
     28 CB         -2.6448  -18.8737  -42.7186 C.3       9 UNK        -0.1800 
     29 N          -1.4611  -18.3035  -44.7904 N.am      9 UNK        -0.5000 
     30 C          -1.1418  -18.2751  -46.0917 C.2       8 UNK         0.5000 
     31 O          -1.6471  -19.0166  -46.9344 O.2       8 UNK        -0.5000 
     32 CA         -0.0362  -17.2927  -46.5175 C.3       8 UNK         0.1400 
     33 CB         -0.5883  -15.8697  -46.6926 C.3       8 UNK        -0.1800 
     34 N           1.0737  -17.2843  -45.5649 N.am      8 UNK        -0.5000 
     35 C           1.9030  -18.3202  -45.3724 C.2       7 UNK         0.5000 
     36 O           1.8559  -19.3633  -46.0234 O.2       7 UNK        -0.5000 
     37 CA          2.9200  -18.1869  -44.2271 C.3       7 UNK         0.1400 
     38 CB          4.1925  -17.4689  -44.7016 C.3       7 UNK        -0.1800 
     39 N           2.3489  -17.4861  -43.0760 N.am      7 UNK        -0.5000 
     40 C           1.4327  -18.0247  -42.2564 C.2       6 UNK         0.5000 
     41 O           1.0101  -19.1742  -42.3741 O.2       6 UNK        -0.5000 
     42 CA          0.8586  -17.1231  -41.1463 C.3       6 UNK         0.1400 
     43 CB          1.7295  -17.2035  -39.8841 C.3       6 UNK        -0.1800 
     44 N           0.7284  -15.7242  -41.5532 N.am      6 UNK        -0.5000 
     45 C          -0.0610  -15.2834  -42.5430 C.2       5 UNK         0.5000 
     46 O          -0.8256  -16.0102  -43.1756 O.2       5 UNK        -0.5000 
     47 CA          0.0654  -13.7964  -42.9276 C.3       5 UNK         0.1400 
     48 CB         -1.0236  -12.9630  -42.2376 C.3       5 UNK        -0.1800 
     49 N           1.3772  -13.2216  -42.6186 N.am      5 UNK        -0.5000 
     50 C           2.5413  -13.6225  -43.1447 C.2       4 UNK         0.5000 
     51 O           2.6353  -14.5536  -43.9468 O.2       4 UNK        -0.5000 
     52 CA          3.7971  -12.8608  -42.6769 C.3       4 UNK         0.1400 
     53 CB          5.0927  -13.4159  -43.2961 C.3       4 UNK        -0.1800 
     54 N           3.7004  -11.4322  -42.9738 N.am      4 UNK        -0.5000 
     55 C           3.0150  -10.5256  -42.2637 C.2       3 UNK         0.5000 
     56 O           2.3734  -10.8006  -41.2487 O.2       3 UNK        -0.5000 
     57 CA          3.0127   -9.0869  -42.8028 C.3       3 UNK         0.1400 
     58 CB          4.3668   -8.4050  -42.5502 C.3       3 UNK        -0.1800 
     59 N           2.7286   -9.0870  -44.2362 N.am      3 UNK        -0.5000 
     60 C           1.5204   -8.8771  -44.7773 C.2       2 UNK         0.5000 
     61 O           0.5229   -8.5614  -44.1276 O.2       2 UNK        -0.5000 
     62 CA          1.3986   -9.0635  -46.3042 C.3       2 UNK         0.1400 
     63 CB          1.6522   -7.7343  -47.0314 C.3       2 UNK        -0.1800 
     64 N           2.3164  -10.0773  -46.8267 N.am      2 UNK        -0.5000 
     65 C           2.2311  -11.3886  -46.5607 C.2       1 UNK         0.5000 
     66 O           1.2874  -11.8939  -45.9531 O.2       1 UNK        -0.5000 
     67 C          -1.2739  -22.3718  -48.5123 C.2       11 UNK         0.5000 
     68 O          -1.4444  -23.3754  -49.2045 O.2       11 UNK        -0.5000 
     69 N          -2.2745  -21.6238  -48.0237 N.am      12 UNK        -0.5000 
     70 CA         -3.6940  -21.8807  -48.2669 C.3       12 UNK         0.1400 
     71 CB         -4.5437  -20.7478  -47.6724 C.3       12 UNK        -0.1800 
     72 C          -4.1506  -23.2432  -47.7205 C.2       12 UNK         0.5000 
     73 O          -4.8733  -23.9574  -48.4143 O.2       12 UNK        -0.5000 
     74 N          -3.6931  -23.5926  -46.5096 N.am      13 UNK        -0.5000 
     75 CA         -3.9414  -24.8806  -45.8642 C.3       13 UNK         0.1400 
     76 CB         -3.4421  -24.8386  -44.4122 C.3       13 UNK        -0.1800 
     77 C          -3.3127  -26.0585  -46.6293 C.2       13 UNK         0.5000 
     78 O          -3.9926  -27.0597  -46.8549 O.2       13 UNK        -0.5000 
     79 N          -2.0487  -25.9077  -47.0520 N.am      14 UNK        -0.5000 
     80 CA         -1.3159  -26.8911  -47.8555 C.3       14 UNK         0.1400 
     81 CB          0.1553  -26.4651  -47.9725 C.3       14 UNK        -0.1800 
     82 C          -1.9330  -27.1048  -49.2508 C.2       14 UNK         0.5000 
     83 O          -1.9864  -28.2381  -49.7292 O.2       14 UNK        -0.5000 
     84 N          -2.4218  -26.0162  -49.8571 N.am      15 UNK        -0.5000 
     85 CA         -3.1450  -26.0061  -51.1280 C.3       15 UNK         0.1400 
     86 CB         -3.0886  -24.5815  -51.6993 C.3       15 UNK        -0.1800 
     87 C          -4.6119  -26.4697  -51.0139 C.2       15 UNK         0.5000 
     88 O          -5.2835  -26.5808  -52.0430 O.2       15 UNK        -0.5000 
     89 N          -5.1025  -26.6672  -49.7792 N.am      16 UNK        -0.5000 
     90 CA         -6.4799  -27.0013  -49.3916 C.3       16 UNK         0.1400 
     91 CB         -6.8235  -28.4361  -49.8406 C.3       16 UNK        -0.1800 
     92 C          -7.5233  -25.9672  -49.8731 C.2       16 UNK         0.5000 
     93 O          -8.6882  -26.3156  -50.0712 O.2       16 UNK        -0.5000 
     94 N          -7.0654  -24.7261  -50.1019 N.am      17 UNK        -0.5000 
     95 CA         -7.7449  -23.6121  -50.7732 C.3       17 UNK         0.1400 
     96 CB         -8.8822  -23.0673  -49.8860 C.3       17 UNK        -0.1800 
     97 C          -8.2191  -23.9348  -52.2128 C.2       17 UNK         0.5000 
     98 O          -9.0873  -23.2327  -52.7347 O.2       17 UNK        -0.5000 
     99 N          -7.6644  -24.9925  -52.8223 N.am      18 UNK        -0.5000 
    100 CA        -8.1021  -25.5585  -54.0960 C.3       18 UNK         0.1400 
    101 CB        -8.4894  -27.0305  -53.8800 C.3       18 UNK        -0.1800 
    102 C         -7.0071  -25.4390  -55.1626 C.2       18 UNK         0.5000 
    103 O         -7.3003  -25.0163  -56.2817 O.2       18 UNK        -0.5000 
    104 N         -5.7639  -25.7943  -54.8051 N.am      19 UNK        -0.5000 
    105 CA        -4.6024  -25.6996  -55.6964 C.3       19 UNK         0.1400 
    106 CB        -3.4757  -26.5958  -55.1604 C.3       19 UNK        -0.1800 
    107 C         -4.1111  -24.2498  -55.8812 C.2       19 UNK         0.5000 
    108 O         -3.4829  -23.9418  -56.8947 O.2       19 UNK        -0.5000 
    109 N         -4.4225  -23.3906  -54.9067 N.am      20 UNK        -0.5000 
    110 CA        -4.1449  -21.9640  -54.8685 C.3       20 UNK         0.1400 
    111 CB        -2.6671  -21.7090  -54.5194 C.3       20 UNK        -0.1800 
    112 C         -5.0676  -21.3552  -53.8067 C.2       20 UNK         0.5000 
    113 O         -5.3414  -22.0080  -52.7960 O.2       20 UNK        -0.5000 
    114 N         -5.5246  -20.1225  -54.0490 N.am      21 UNK        -0.5000 
    115 CA        -6.3492  -19.3597  -53.1086 C.3       21 UNK         0.1400 
    116 CB        -7.2654  -18.4158  -53.9035 C.3       21 UNK        -0.1800 
    117 C         -5.5010  -18.5608  -52.1002 C.2       21 UNK         0.5000 
    118 O         -6.0033  -18.2179  -51.0295 O.2       21 UNK        -0.5000 
    119 N         -4.2477  -18.2590  -52.4664 N.am      22 UNK        -0.5000 
    120 CA        -3.2799  -17.5326  -51.6347 C.3       22 UNK         0.1400 
    121 C         -2.7714  -18.3878  -50.4439 C.2       22 UNK         0.5000 
    122 N         -2.6930  -17.8104  -49.2542 N.am      22 UNK        -0.7600 
    123 O         -2.4223  -19.5535  -50.6043 O.2       22 UNK        -0.5000 
    124 C124       -2.1040  -16.9976  -52.4905 C.3       23 UNK        -0.0398 
    125 S125       -1.3524  -15.4989  -51.7692 S.3       23 UNK        -0.2404 
    126 C126        0.3818  -15.6687  -52.2910 C.3       23 UNK        -0.0205 
    127 H127        6.6393   -9.1491  -46.9136 H         1 UNK         0.0600 
    128 H128        6.8494  -10.5010  -48.0316 H         1 UNK         0.0600 
    129 H129        7.5072  -10.5980  -46.3952 H         1 UNK         0.0600 
    130 H130        4.9984  -11.7071  -48.2621 H         1 UNK         0.3000 
    131 H131        3.6125  -12.9462  -46.1752 H         1 UNK         0.0600 
    132 H132        1.9916  -13.6384  -48.0081 H         1 UNK         0.0800 
    133 H133        2.8352  -12.5857  -49.1104 H         1 UNK         0.0800 
    134 H134        2.5017  -15.7715  -47.3555 H         1 UNK         0.0800 
    135 H135        3.9442  -16.6962  -47.6525 H         1 UNK         0.0800 
    136 H136        1.5901  -14.8612  -50.0053 H         1 UNK         0.1150 
    137 H137        0.9977  -18.3350  -52.4395 H         1 UNK         0.1150 
    138 H138        3.4149  -18.5850  -48.9126 H         1 UNK         0.1150 
    139 H139        2.7718  -20.2222  -52.0125 H         1 UNK         0.0800 
    140 H140        3.3019  -20.4665  -50.3679 H         1 UNK         0.0800 
    141 H141       -0.0272  -19.9126  -48.8356 H         1 UNK         0.0800 
    142 H142        1.5997  -20.4003  -48.4459 H         1 UNK         0.0800 
    143 H143        0.8098  -22.8193  -48.3375 H         1 UNK         0.0600 
    144 H144        0.5443  -20.8418  -46.3501 H         1 UNK         0.3000 
    145 H145       -0.5142  -22.9789  -43.6690 H         1 UNK         0.0600 
    146 H146        1.4892  -21.9377  -42.6566 H         1 UNK         0.0600 
    147 H147        1.9708  -23.1508  -43.8327 H         1 UNK         0.0600 
    148 H148        2.0746  -21.4438  -44.2438 H         1 UNK         0.0600 
    149 H149       -0.0352  -20.1883  -43.7186 H         1 UNK         0.3000 
    150 H150       -3.3433  -19.1710  -44.7221 H         1 UNK         0.0600 
    151 H151       -3.3769  -19.5414  -42.2627 H         1 UNK         0.0600 
    152 H152       -3.0322  -17.8582  -42.6339 H         1 UNK         0.0600 
    153 H153       -1.7323  -18.9341  -42.1260 H         1 UNK         0.0600 
    154 H154       -1.0522  -17.6080  -44.1720 H         1 UNK         0.3000 
    155 H155        0.3494  -17.6247  -47.4841 H         1 UNK         0.0600 
    156 H156       -1.3698  -15.8484  -47.4525 H         1 UNK         0.0600 
    157 H157        0.1893  -15.1768  -47.0123 H         1 UNK         0.0600 
    158 H158       -1.0204  -15.4829  -45.7701 H         1 UNK         0.0600 
    159 H159        1.1702  -16.4707  -44.9736 H         1 UNK         0.3000 
    160 H160        3.2020  -19.1934  -43.9107 H         1 UNK         0.0600 
    161 H161        3.9816  -16.4679  -45.0777 H         1 UNK         0.0600 
    162 H162        4.6721  -18.0250  -45.5079 H         1 UNK         0.0600 
    163 H163        4.9186  -17.3768  -43.8939 H         1 UNK         0.0600 
    164 H164        2.5996  -16.5113  -42.9700 H         1 UNK         0.3000 
    165 H165       -0.1379  -17.4939  -40.8986 H         1 UNK         0.0600 
    166 H166        1.2915  -16.6325  -39.0653 H         1 UNK         0.0600 
    167 H167        1.8274  -18.2352  -39.5432 H         1 UNK         0.0600 
    168 H168        2.7348  -16.8198  -40.0623 H         1 UNK         0.0600 
    169 H169        1.3196  -15.0555  -41.0826 H         1 UNK         0.3000 
    170 H170       -0.0798  -13.7249  -44.0077 H         1 UNK         0.0600 
    171 H171       -2.0170  -13.3497  -42.4688 H         1 UNK         0.0600 
    172 H172       -0.9104  -12.9721  -41.1528 H         1 UNK         0.0600 
    173 H173       -0.9940  -11.9250  -42.5702 H         1 UNK         0.0600 
    174 H174        1.3973  -12.4328  -41.9810 H         1 UNK         0.3000 
    175 H175        3.8687  -12.9912  -41.5952 H         1 UNK         0.0600 
    176 H176        5.0967  -13.3246  -44.3820 H         1 UNK         0.0600 
    177 H177        5.9675  -12.8888  -42.9152 H         1 UNK         0.0600 
    178 H178        5.2205  -14.4722  -43.0559 H         1 UNK         0.0600 
    179 H179        4.1901  -11.1218  -43.8109 H         1 UNK         0.3000 
    180 H180        2.2477   -8.5241  -42.2638 H         1 UNK         0.0600 
    181 H181        5.1822   -8.9136  -43.0661 H         1 UNK         0.0600 
    182 H182        4.6060   -8.3956  -41.4860 H         1 UNK         0.0600 
    183 H183        4.3528   -7.3692  -42.8894 H         1 UNK         0.0600 
    184 H184        3.4844   -9.3947  -44.8380 H         1 UNK         0.3000 
    185 H185        0.3769   -9.3833  -46.5201 H         1 UNK         0.0600 
    186 H186        0.9669   -6.9612  -46.6810 H         1 UNK         0.0600 
    187 H187        2.6677   -7.3720  -46.8665 H         1 UNK         0.0600 
    188 H188        1.5018   -7.8374  -48.1062 H         1 UNK         0.0600 
    189 H189        3.1205   -9.7451  -47.3386 H         1 UNK         0.3000 
    190 H190       -2.0474  -20.7967  -47.4794 H         1 UNK         0.3000 
    191 H191       -3.8463  -21.8869  -49.3484 H         1 UNK         0.0600 
    192 H192       -4.3971  -20.6531  -46.5965 H         1 UNK         0.0600 
    193 H193       -5.6057  -20.9249  -47.8465 H         1 UNK         0.0600 
    194 H194       -4.2989  -19.7898  -48.1285 H         1 UNK         0.0600 
    195 H195       -3.1436  -22.9184  -45.9837 H         1 UNK         0.3000 
    196 H196       -5.0219  -25.0373  -45.8449 H         1 UNK         0.0600 
    197 H197       -3.6345  -25.7848  -43.9051 H         1 UNK         0.0600 
    198 H198       -3.9474  -24.0566  -43.8451 H         1 UNK         0.0600 
    199 H199       -2.3700  -24.6488  -44.3591 H         1 UNK         0.0600 
    200 H200       -1.5422  -25.0629  -46.7992 H         1 UNK         0.3000 
    201 H201       -1.3522  -27.8464  -47.3279 H         1 UNK         0.0600 
    202 H202        0.6244  -26.3970  -46.9909 H         1 UNK         0.0600 
    203 H203        0.2553  -25.4936  -48.4581 H         1 UNK         0.0600 
    204 H204        0.7271  -27.1866  -48.5573 H         1 UNK         0.0600 
    205 H205       -2.2663  -25.1087  -49.4243 H         1 UNK         0.3000 
    206 H206       -2.6416  -26.6801  -51.8233 H         1 UNK         0.0600 
    207 H207       -2.0601  -24.2606  -51.8653 H         1 UNK         0.0600 
    208 H208       -3.6046  -24.5203  -52.6539 H         1 UNK         0.0600 
    209 H209       -3.5608  -23.8600  -51.0313 H         1 UNK         0.0600 
    210 H210       -4.4723  -26.5125  -49.0024 H         1 UNK         0.3000 
    211 H211       -6.5053  -26.9749  -48.3015 H         1 UNK         0.0600 
    212 H212       -6.8803  -28.5166  -50.9267 H         1 UNK         0.0600 
    213 H213       -7.7858  -28.7542  -49.4380 H         1 UNK         0.0600 
    214 H214       -6.0759  -29.1475  -49.4898 H         1 UNK         0.0600 
    215 H215       -6.1148  -24.5310  -49.7986 H         1 UNK         0.3000 
    216 H216       -6.9988  -22.8229  -50.8697 H         1 UNK         0.0600 
    217 H217       -9.2985  -22.1487  -50.3008 H         1 UNK         0.0600 
    218 H218       -8.5216  -22.8339  -48.8842 H         1 UNK         0.0600 
    219 H219       -9.6986  -23.7837  -49.7912 H         1 UNK         0.0600 
    220 H220       -6.9327  -25.5003  -52.3366 H         1 UNK         0.3000 
    221 H221       -8.9832  -25.0322  -54.4687 H         1 UNK         0.0600 
    222 H222       -7.6540  -27.6177  -53.4960 H         1 UNK         0.0600 
    223 H223       -9.3102  -27.1180  -53.1678 H         1 UNK         0.0600 
    224 H224       -8.8163  -27.4910  -54.8131 H         1 UNK         0.0600 
    225 H225       -5.5956  -26.1457  -53.8661 H         1 UNK         0.3000 
    226 H226       -4.8897  -26.0766  -56.6803 H         1 UNK         0.0600 
    227 H227       -3.8079  -27.6292  -55.0589 H         1 UNK         0.0600 
    228 H228       -2.6213  -26.5939  -55.8383 H         1 UNK         0.0600 
    229 H229       -3.1199  -26.2616  -54.1873 H         1 UNK         0.0600 
    230 H230       -4.9683  -23.7185  -54.1200 H         1 UNK         0.3000 
    231 H231       -4.3774  -21.5292  -55.8428 H         1 UNK         0.0600 
    232 H232       -2.0003  -22.1397  -55.2662 H         1 UNK         0.0600 
    233 H233       -2.4047  -22.1363  -53.5505 H         1 UNK         0.0600 
    234 H234       -2.4547  -20.6404  -54.4735 H         1 UNK         0.0600 
    235 H235       -5.2806  -19.6624  -54.9145 H         1 UNK         0.3000 
    236 H236       -6.9839  -20.0433  -52.5397 H         1 UNK         0.0600 
    237 H237       -7.9135  -17.8469  -53.2355 H         1 UNK         0.0600 
    238 H238       -6.6930  -17.6996  -54.4943 H         1 UNK         0.0600 
    239 H239       -7.9106  -18.9732  -54.5828 H         1 UNK         0.0600 
    240 H240       -3.9048  -18.6199  -53.3425 H         1 UNK         0.3000 
    241 H241       -3.8187  -16.6729  -51.2299 H         1 UNK         0.0600 
    242 H242       -2.3523  -18.3540  -48.4664 H         1 UNK         0.3800 
    243 H243       -2.9728  -16.8529  -49.1192 H         1 UNK         0.3800 
    244 H244       -1.3502  -17.7700  -52.6510 H         1 UNK         0.0800 
    245 H245       -2.4575  -16.7155  -53.4833 H         1 UNK         0.0800 
    246 H246        0.8207  -14.6723  -52.3615 H         1 UNK         0.0800 
    247 H247        0.4294  -16.0868  -53.2978 H         1 UNK         0.0800 
@<TRIPOS>BOND
     1    1    2 1    
     2    1  127 1    
     3    1  128 1    
     4    1  129 1    
     5    2    3 2    
     6    2    4 am   BACKBONE|DICT|INTERRES
     7    4    5 1    
     8    4  130 1    
     9    5    6 1    
    10    5   65 1    
    11    5  131 1    
    12    6    7 1    
    13    6  132 1    
    14    6  133 1    
    15    7    8 1    
    16    8    9 1    
    17    8  134 1    
    18    8  135 1    
    19    9   10 ar   
    20    9   14 ar   
    21   10   11 ar   
    22   10  136 1    
    23   11   12 ar   
    24   11  126 1    
    25   12   13 ar   
    26   12  137 1    
    27   13   14 ar   
    28   13   15 1    
    29   14  138 1    
    30   15   16 1    
    31   15  139 1    
    32   15  140 1    
    33   16   17 1    
    34   17   18 1    
    35   17  141 1    
    36   17  142 1    
    37   18   19 1    
    38   18   67 1    
    39   18  143 1    
    40   19   20 am   BACKBONE|DICT|INTERRES
    41   19  144 1    
    42   20   21 2    
    43   20   22 1    
    44   22   23 1    
    45   22   24 1    
    46   22  145 1    
    47   23  146 1    
    48   23  147 1    
    49   23  148 1    
    50   24   25 am   BACKBONE|DICT|INTERRES
    51   24  149 1    
    52   25   26 2    
    53   25   27 1    
    54   27   28 1    
    55   27   29 1    
    56   27  150 1    
    57   28  151 1    
    58   28  152 1    
    59   28  153 1    
    60   29   30 am   BACKBONE|DICT|INTERRES
    61   29  154 1    
    62   30   31 2    
    63   30   32 1    
    64   32   33 1    
    65   32   34 1    
    66   32  155 1    
    67   33  156 1    
    68   33  157 1    
    69   33  158 1    
    70   34   35 am   BACKBONE|DICT|INTERRES
    71   34  159 1    
    72   35   36 2    
    73   35   37 1    
    74   37   38 1    
    75   37   39 1    
    76   37  160 1    
    77   38  161 1    
    78   38  162 1    
    79   38  163 1    
    80   39   40 am   BACKBONE|DICT|INTERRES
    81   39  164 1    
    82   40   41 2    
    83   40   42 1    
    84   42   43 1    
    85   42   44 1    
    86   42  165 1    
    87   43  166 1    
    88   43  167 1    
    89   43  168 1    
    90   44   45 am   BACKBONE|DICT|INTERRES
    91   44  169 1    
    92   45   46 2    
    93   45   47 1    
    94   47   48 1    
    95   47   49 1    
    96   47  170 1    
    97   48  171 1    
    98   48  172 1    
    99   48  173 1    
   100   49   50 am   BACKBONE|DICT|INTERRES
   101   49  174 1    
   102   50   51 2    
   103   50   52 1    
   104   52   53 1    
   105   52   54 1    
   106   52  175 1    
   107   53  176 1    
   108   53  177 1    
   109   53  178 1    
   110   54   55 am   BACKBONE|DICT|INTERRES
   111   54  179 1    
   112   55   56 2    
   113   55   57 1    
   114   57   58 1    
   115   57   59 1    
   116   57  180 1    
   117   58  181 1    
   118   58  182 1    
   119   58  183 1    
   120   59   60 am   BACKBONE|DICT|INTERRES
   121   59  184 1    
   122   60   61 2    
   123   60   62 1    
   124   62   63 1    
   125   62   64 1    
   126   62  185 1    
   127   63  186 1    
   128   63  187 1    
   129   63  188 1    
   130   64   65 am   BACKBONE|DICT|INTERRES
   131   64  189 1    
   132   65   66 2    
   133   67   68 2    
   134   67   69 am   BACKBONE|DICT|INTERRES
   135   69   70 1    
   136   69  190 1    
   137   70   71 1    
   138   70   72 1    
   139   70  191 1    
   140   71  192 1    
   141   71  193 1    
   142   71  194 1    
   143   72   73 2    
   144   72   74 am   BACKBONE|DICT|INTERRES
   145   74   75 1    
   146   74  195 1    
   147   75   76 1    
   148   75   77 1    
   149   75  196 1    
   150   76  197 1    
   151   76  198 1    
   152   76  199 1    
   153   77   78 2    
   154   77   79 am   BACKBONE|DICT|INTERRES
   155   79   80 1    
   156   79  200 1    
   157   80   81 1    
   158   80   82 1    
   159   80  201 1    
   160   81  202 1    
   161   81  203 1    
   162   81  204 1    
   163   82   83 2    
   164   82   84 am   BACKBONE|DICT|INTERRES
   165   84   85 1    
   166   84  205 1    
   167   85   86 1    
   168   85   87 1    
   169   85  206 1    
   170   86  207 1    
   171   86  208 1    
   172   86  209 1    
   173   87   88 2    
   174   87   89 am   BACKBONE|DICT|INTERRES
   175   89   90 1    
   176   89  210 1    
   177   90   91 1    
   178   90   92 1    
   179   90  211 1    
   180   91  212 1    
   181   91  213 1    
   182   91  214 1    
   183   92   93 2    
   184   92   94 am   BACKBONE|DICT|INTERRES
   185   94   95 1    
   186   94  215 1    
   187   95   96 1    
   188   95   97 1    
   189   95  216 1    
   190   96  217 1    
   191   96  218 1    
   192   96  219 1    
   193   97   98 2    
   194   97   99 am   BACKBONE|DICT|INTERRES
   195   99  100 1    
   196   99  220 1    
   197  100  101 1    
   198  100  102 1    
   199  100  221 1    
   200  101  222 1    
   201  101  223 1    
   202  101  224 1    
   203  102  103 2    
   204  102  104 am   BACKBONE|DICT|INTERRES
   205  104  105 1    
   206  104  225 1    
   207  105  106 1    
   208  105  107 1    
   209  105  226 1    
   210  106  227 1    
   211  106  228 1    
   212  106  229 1    
   213  107  108 2    
   214  107  109 am   BACKBONE|DICT|INTERRES
   215  109  110 1    
   216  109  230 1    
   217  110  111 1    
   218  110  112 1    
   219  110  231 1    
   220  111  232 1    
   221  111  233 1    
   222  111  234 1    
   223  112  113 2    
   224  112  114 am   BACKBONE|DICT|INTERRES
   225  114  115 1    
   226  114  235 1    
   227  115  116 1    
   228  115  117 1    
   229  115  236 1    
   230  116  237 1    
   231  116  238 1    
   232  116  239 1    
   233  117  118 2    
   234  117  119 am   BACKBONE|DICT|INTERRES
   235  119  120 1    
   236  119  240 1    
   237  120  121 1    
   238  120  124 1    
   239  120  241 1    
   240  121  122 am   BACKBONE|DICT|INTERRES
   241  121  123 2    
   242  122  242 1    
   243  122  243 1    
   244  124  125 1    
   245  124  244 1    
   246  124  245 1    
   247  125  126 1    
   248  126  246 1    
   249  126  247 1    
@<TRIPOS>SUBSTRUCTURE
     1 UNK         1 GROUP             0       ****    0 ROOT    
