@<TRIPOS>MOLECULE
3R540
247   249    1
SMALL
USER_CHARGES


@<TRIPOS>ATOM
      1 CA          3.2245   -8.7984  -51.3101 C.3       0 UNK        -0.1800 
      2 C           4.3550   -9.8202  -51.4185 C.2       0 UNK         0.5000 
      3 O           5.1488   -9.7420  -52.3538 O.2       0 UNK        -0.5000 
      4 N           4.4824  -10.7862  -50.4971 N.am      1 UNK        -0.5000 
      5 CA          3.5978  -11.0614  -49.3555 C.3       1 UNK         0.1400 
      6 C6          4.2762  -11.9901  -48.3171 C.3       23 UNK        -0.0398 
      7 S7          4.9252  -13.5542  -49.0079 S.3       23 UNK        -0.2404 
      8 C8          3.6059  -14.7144  -48.5447 C.3       23 UNK        -0.0205 
      9 C9          3.9180  -16.1210  -49.0212 C.ar      23 UNK        -0.0193 
     10 C10         3.6622  -16.4918  -50.3452 C.ar      23 UNK        -0.1150 
     11 C11         3.8912  -17.8050  -50.7693 C.ar      23 UNK        -0.0193 
     12 C12         4.4002  -18.7398  -49.8641 C.ar      23 UNK        -0.1150 
     13 C13         4.6675  -18.3767  -48.5412 C.ar      23 UNK        -0.0193 
     14 C14         4.4309  -17.0638  -48.1274 C.ar      23 UNK        -0.1150 
     15 C15         5.1875  -19.4086  -47.5516 C.3       23 UNK        -0.0205 
     16 S16         3.9506  -19.8116  -46.2771 S.3       23 UNK        -0.2404 
     17 C17         2.6080  -20.5494  -47.2714 C.3       23 UNK        -0.0398 
     18 CA          2.4930  -22.0781  -47.0805 C.3       11 UNK         0.1400 
     19 N           2.2213  -22.4457  -45.6896 N.am      11 UNK        -0.5000 
     20 C           2.4318  -23.6579  -45.1585 C.2       10 UNK         0.5000 
     21 O           2.9657  -24.5834  -45.7689 O.2       10 UNK        -0.5000 
     22 CA          1.9564  -23.8904  -43.7073 C.3       10 UNK         0.1400 
     23 CB          3.1233  -23.7063  -42.7255 C.3       10 UNK        -0.1800 
     24 N           0.8542  -23.0152  -43.3020 N.am      10 UNK        -0.5000 
     25 C          -0.3619  -23.0012  -43.8634 C.2       9 UNK         0.5000 
     26 O          -0.7232  -23.8159  -44.7123 O.2       9 UNK        -0.5000 
     27 CA         -1.3214  -21.8633  -43.4587 C.3       9 UNK         0.1400 
     28 CB         -2.3565  -22.3742  -42.4469 C.3       9 UNK        -0.1800 
     29 N          -0.6943  -20.6488  -42.9216 N.am      9 UNK        -0.5000 
     30 C           0.2677  -19.9179  -43.5027 C.2       8 UNK         0.5000 
     31 O           0.8694  -20.2667  -44.5162 O.2       8 UNK        -0.5000 
     32 CA          0.5784  -18.5580  -42.8513 C.3       8 UNK         0.1400 
     33 CB          1.8424  -17.8989  -43.4332 C.3       8 UNK        -0.1800 
     34 N          -0.5536  -17.6568  -43.0431 N.am      8 UNK        -0.5000 
     35 C          -1.6826  -17.6669  -42.3236 C.2       7 UNK         0.5000 
     36 O          -1.8515  -18.3702  -41.3263 O.2       7 UNK        -0.5000 
     37 CA         -2.8301  -16.7899  -42.8475 C.3       7 UNK         0.1400 
     38 CB         -2.5850  -15.3063  -42.5304 C.3       7 UNK        -0.1800 
     39 N          -3.0111  -16.9596  -44.2889 N.am      7 UNK        -0.5000 
     40 C          -3.5738  -18.0310  -44.8674 C.2       6 UNK         0.5000 
     41 O          -4.0367  -18.9863  -44.2445 O.2       6 UNK        -0.5000 
     42 CA         -3.6300  -18.0246  -46.4049 C.3       6 UNK         0.1400 
     43 CB         -4.8146  -17.1762  -46.8818 C.3       6 UNK        -0.1800 
     44 N          -2.3931  -17.5114  -46.9946 N.am      6 UNK        -0.5000 
     45 C          -1.2413  -18.1985  -47.0163 C.2       5 UNK         0.5000 
     46 O          -1.1534  -19.3745  -46.6660 O.2       5 UNK        -0.5000 
     47 CA          0.0310  -17.4630  -47.4893 C.3       5 UNK         0.1400 
     48 CB          0.3975  -17.8889  -48.9163 C.3       5 UNK        -0.1800 
     49 N          -0.0559  -16.0005  -47.4298 N.am      5 UNK        -0.5000 
     50 C          -0.2080  -15.2889  -46.3019 C.2       4 UNK         0.5000 
     51 O          -0.2320  -15.7973  -45.1817 O.2       4 UNK        -0.5000 
     52 CA         -0.4239  -13.7658  -46.4299 C.3       4 UNK         0.1400 
     53 CB          0.8740  -13.0132  -46.1117 C.3       4 UNK        -0.1800 
     54 N          -0.9160  -13.3362  -47.7403 N.am      4 UNK        -0.5000 
     55 C          -2.0662  -13.7361  -48.3018 C.2       3 UNK         0.5000 
     56 O          -2.8828  -14.4579  -47.7274 O.2       3 UNK        -0.5000 
     57 CA         -2.3445  -13.2921  -49.7524 C.3       3 UNK         0.1400 
     58 CB         -3.4468  -12.2235  -49.7895 C.3       3 UNK        -0.1800 
     59 N          -1.1856  -12.8062  -50.5046 N.am      3 UNK        -0.5000 
     60 C          -0.0527  -13.4786  -50.7558 C.2       2 UNK         0.5000 
     61 O           0.2014  -14.5916  -50.2947 O.2       2 UNK        -0.5000 
     62 CA          0.9871  -12.7749  -51.6544 C.3       2 UNK         0.1400 
     63 CB          0.3991  -11.6197  -52.4936 C.3       2 UNK        -0.1800 
     64 N           2.1655  -12.2928  -50.9273 N.am      2 UNK        -0.5000 
     65 C           2.2101  -11.5913  -49.7828 C.2       1 UNK         0.5000 
     66 O           1.2268  -11.3231  -49.0914 O.2       1 UNK        -0.5000 
     67 C           1.4124  -22.6461  -48.0211 C.2       11 UNK         0.5000 
     68 O           1.7445  -23.1089  -49.1128 O.2       11 UNK        -0.5000 
     69 N           0.1453  -22.6096  -47.5800 N.am      12 UNK        -0.5000 
     70 CA         -0.9963  -23.1920  -48.2876 C.3       12 UNK         0.1400 
     71 CB         -2.3036  -22.6735  -47.6669 C.3       12 UNK        -0.1800 
     72 C          -0.9477  -24.7317  -48.2846 C.2       12 UNK         0.5000 
     73 O          -1.2344  -25.3498  -49.3107 O.2       12 UNK        -0.5000 
     74 N          -0.5545  -25.3117  -47.1400 N.am      13 UNK        -0.5000 
     75 CA         -0.2895  -26.7323  -46.9021 C.3       13 UNK         0.1400 
     76 CB          1.0313  -27.1434  -47.5909 C.3       13 UNK        -0.1800 
     77 C          -1.4931  -27.6170  -47.2839 C.2       13 UNK         0.5000 
     78 O          -2.5279  -27.5455  -46.6193 O.2       13 UNK        -0.5000 
     79 N          -1.3563  -28.3977  -48.3648 N.am      14 UNK        -0.5000 
     80 CA         -2.3770  -29.2861  -48.9256 C.3       14 UNK         0.1400 
     81 CB         -1.7544  -30.0875  -50.0791 C.3       14 UNK        -0.1800 
     82 C          -3.6606  -28.5719  -49.3967 C.2       14 UNK         0.5000 
     83 O          -4.7026  -29.2214  -49.4937 O.2       14 UNK        -0.5000 
     84 N          -3.5838  -27.2569  -49.6543 N.am      15 UNK        -0.5000 
     85 CA         -4.7402  -26.4106  -49.9583 C.3       15 UNK         0.1400 
     86 CB         -4.2591  -25.1159  -50.6306 C.3       15 UNK        -0.1800 
     87 C          -5.6134  -26.1056  -48.7205 C.2       15 UNK         0.5000 
     88 O          -6.7394  -25.6405  -48.8924 O.2       15 UNK        -0.5000 
     89 N          -5.0964  -26.3841  -47.5111 N.am      16 UNK        -0.5000 
     90 CA         -5.7745  -26.3104  -46.2126 C.3       16 UNK         0.1400 
     91 CB         -6.8780  -27.3853  -46.1210 C.3       16 UNK        -0.1800 
     92 C          -6.2759  -24.8932  -45.8698 C.2       16 UNK         0.5000 
     93 O          -7.4479  -24.7134  -45.5334 O.2       16 UNK        -0.5000 
     94 N          -5.3600  -23.9167  -45.9661 N.am      17 UNK        -0.5000 
     95 CA         -5.5684  -22.4865  -45.6996 C.3       17 UNK         0.1400 
     96 CB         -5.8655  -22.2442  -44.2046 C.3       17 UNK        -0.1800 
     97 C          -6.6217  -21.8580  -46.6371 C.2       17 UNK         0.5000 
     98 O          -7.5257  -21.1540  -46.1815 O.2       17 UNK        -0.5000 
     99 N          -6.4850  -22.1463  -47.9391 N.am      18 UNK        -0.5000 
    100 CA        -7.3065  -21.5987  -49.0204 C.3       18 UNK         0.1400 
    101 CB        -6.8974  -22.2713  -50.3398 C.3       18 UNK        -0.1800 
    102 C         -7.1830  -20.0683  -49.1479 C.2       18 UNK         0.5000 
    103 O         -6.1795  -19.4956  -48.7183 O.2       18 UNK        -0.5000 
    104 N         -8.2016  -19.4461  -49.7585 N.am      19 UNK        -0.5000 
    105 CA        -8.2992  -18.0060  -50.0048 C.3       19 UNK         0.1400 
    106 CB        -9.6204  -17.7047  -50.7296 C.3       19 UNK        -0.1800 
    107 C         -7.0967  -17.4706  -50.8043 C.2       19 UNK         0.5000 
    108 O         -6.8757  -17.9002  -51.9391 O.2       19 UNK        -0.5000 
    109 N         -6.3259  -16.5813  -50.1664 N.am      20 UNK        -0.5000 
    110 CA        -5.0519  -15.9844  -50.5846 C.3       20 UNK         0.1400 
    111 CB        -5.2210  -15.1332  -51.8568 C.3       20 UNK        -0.1800 
    112 C         -3.8814  -16.9825  -50.7243 C.2       20 UNK         0.5000 
    113 O         -2.7897  -16.6918  -50.2385 O.2       20 UNK        -0.5000 
    114 N         -4.1123  -18.1193  -51.3931 N.am      21 UNK        -0.5000 
    115 CA        -3.1977  -19.2299  -51.6963 C.3       21 UNK         0.1400 
    116 CB        -2.6699  -19.8971  -50.4111 C.3       21 UNK        -0.1800 
    117 C         -2.0565  -18.8643  -52.6708 C.2       21 UNK         0.5000 
    118 O         -1.8654  -19.5693  -53.6622 O.2       21 UNK        -0.5000 
    119 N         -1.3584  -17.7576  -52.4010 N.am      22 UNK        -0.5000 
    120 CA        -0.3355  -17.1330  -53.2573 C.3       22 UNK         0.1400 
    121 C         -0.7797  -15.7343  -53.7834 C.2       22 UNK         0.5000 
    122 N         -2.0458  -15.3516  -53.6719 N.am      22 UNK        -0.7600 
    123 O          0.0279  -14.9841  -54.3237 O.2       22 UNK        -0.5000 
    124 C124        1.0433  -17.0729  -52.5489 C.3       23 UNK        -0.0398 
    125 S125        1.8301  -18.7090  -52.3857 S.3       23 UNK        -0.2404 
    126 C126        3.5779  -18.2280  -52.1965 C.3       23 UNK        -0.0205 
    127 H127        3.1606   -8.3760  -50.3079 H         1 UNK         0.0600 
    128 H128        2.2673   -9.2524  -51.5646 H         1 UNK         0.0600 
    129 H129        3.3931   -7.9724  -52.0013 H         1 UNK         0.0600 
    130 H130        5.2494  -11.4373  -50.5929 H         1 UNK         0.3000 
    131 H131        3.4179  -10.1137  -48.8452 H         1 UNK         0.0600 
    132 H132        3.6094  -12.1947  -47.4792 H         1 UNK         0.0800 
    133 H133        5.1238  -11.4624  -47.8777 H         1 UNK         0.0800 
    134 H134        2.6546  -14.3938  -48.9699 H         1 UNK         0.0800 
    135 H135        3.4799  -14.7055  -47.4611 H         1 UNK         0.0800 
    136 H136        3.2614  -15.7631  -51.0354 H         1 UNK         0.1150 
    137 H137        4.5710  -19.7574  -50.1867 H         1 UNK         0.1150 
    138 H138        4.6251  -16.7853  -47.1011 H         1 UNK         0.1150 
    139 H139        5.4886  -20.3247  -48.0622 H         1 UNK         0.0800 
    140 H140        6.0828  -19.0189  -47.0656 H         1 UNK         0.0800 
    141 H141        2.7558  -20.3135  -48.3250 H         1 UNK         0.0800 
    142 H142        1.6756  -20.0594  -46.9896 H         1 UNK         0.0800 
    143 H143        3.4468  -22.5236  -47.3716 H         1 UNK         0.0600 
    144 H144        1.7858  -21.7190  -45.1240 H         1 UNK         0.3000 
    145 H145        1.6070  -24.9226  -43.6385 H         1 UNK         0.0600 
    146 H146        2.8222  -23.9425  -41.7047 H         1 UNK         0.0600 
    147 H147        3.9547  -24.3655  -42.9788 H         1 UNK         0.0600 
    148 H148        3.5002  -22.6827  -42.7380 H         1 UNK         0.0600 
    149 H149        1.0698  -22.2991  -42.6246 H         1 UNK         0.3000 
    150 H150       -1.8526  -21.5654  -44.3651 H         1 UNK         0.0600 
    151 H151       -2.8505  -23.2760  -42.8112 H         1 UNK         0.0600 
    152 H152       -3.1319  -21.6287  -42.2677 H         1 UNK         0.0600 
    153 H153       -1.8948  -22.6173  -41.4893 H         1 UNK         0.0600 
    154 H154       -1.1469  -20.2410  -42.1118 H         1 UNK         0.3000 
    155 H155        0.7419  -18.7206  -41.7840 H         1 UNK         0.0600 
    156 H156        1.7425  -17.7043  -44.5017 H         1 UNK         0.0600 
    157 H157        2.0544  -16.9499  -42.9408 H         1 UNK         0.0600 
    158 H158        2.7145  -18.5398  -43.2983 H         1 UNK         0.0600 
    159 H159       -0.4997  -17.0425  -43.8532 H         1 UNK         0.3000 
    160 H160       -3.7483  -17.0977  -42.3426 H         1 UNK         0.0600 
    161 H161       -2.4665  -15.1529  -41.4570 H         1 UNK         0.0600 
    162 H162       -3.4238  -14.6908  -42.8556 H         1 UNK         0.0600 
    163 H163       -1.6848  -14.9287  -43.0164 H         1 UNK         0.0600 
    164 H164       -2.6118  -16.2468  -44.8820 H         1 UNK         0.3000 
    165 H165       -3.7853  -19.0499  -46.7490 H         1 UNK         0.0600 
    166 H166       -4.8818  -17.1984  -47.9655 H         1 UNK         0.0600 
    167 H167       -5.7557  -17.5646  -46.4904 H         1 UNK         0.0600 
    168 H168       -4.7270  -16.1352  -46.5690 H         1 UNK         0.0600 
    169 H169       -2.4085  -16.5605  -47.3453 H         1 UNK         0.3000 
    170 H170        0.8413  -17.7717  -46.8262 H         1 UNK         0.0600 
    171 H171        0.4311  -18.9746  -49.0148 H         1 UNK         0.0600 
    172 H172       -0.3221  -17.5132  -49.6423 H         1 UNK         0.0600 
    173 H173        1.3782  -17.5108  -49.1942 H         1 UNK         0.0600 
    174 H174       -0.0601  -15.5128  -48.3192 H         1 UNK         0.3000 
    175 H175       -1.1736  -13.4835  -45.6882 H         1 UNK         0.0600 
    176 H176        1.6471  -13.2409  -46.8429 H         1 UNK         0.0600 
    177 H177        0.7175  -11.9343  -46.1135 H         1 UNK         0.0600 
    178 H178        1.2574  -13.2866  -45.1277 H         1 UNK         0.0600 
    179 H179       -0.3014  -12.7410  -48.2835 H         1 UNK         0.3000 
    180 H180       -2.7077  -14.1662  -50.2873 H         1 UNK         0.0600 
    181 H181       -4.3441  -12.5673  -49.2731 H         1 UNK         0.0600 
    182 H182       -3.7358  -11.9890  -50.8142 H         1 UNK         0.0600 
    183 H183       -3.1245  -11.2989  -49.3091 H         1 UNK         0.0600 
    184 H184       -1.2707  -11.8780  -50.8917 H         1 UNK         0.3000 
    185 H185        1.3452  -13.5362  -52.3486 H         1 UNK         0.0600 
    186 H186        0.0881  -10.7770  -51.8750 H         1 UNK         0.0600 
    187 H187        1.1347  -11.2471  -53.2066 H         1 UNK         0.0600 
    188 H188       -0.4638  -11.9521  -53.0727 H         1 UNK         0.0600 
    189 H189        3.0501  -12.4733  -51.3806 H         1 UNK         0.3000 
    190 H190       -0.0405  -22.2035  -46.6741 H         1 UNK         0.3000 
    191 H191       -0.9598  -22.8592  -49.3270 H         1 UNK         0.0600 
    192 H192       -2.3899  -22.9511  -46.6169 H         1 UNK         0.0600 
    193 H193       -3.1735  -23.0734  -48.1863 H         1 UNK         0.0600 
    194 H194       -2.3639  -21.5869  -47.7299 H         1 UNK         0.0600 
    195 H195       -0.4463  -24.7131  -46.3243 H         1 UNK         0.3000 
    196 H196       -0.1528  -26.8465  -45.8258 H         1 UNK         0.0600 
    197 H197        1.2678  -28.1911  -47.4007 H         1 UNK         0.0600 
    198 H198        1.8655  -26.5560  -47.2091 H         1 UNK         0.0600 
    199 H199        0.9996  -26.9952  -48.6709 H         1 UNK         0.0600 
    200 H200       -0.4813  -28.3548  -48.8666 H         1 UNK         0.3000 
    201 H201       -2.6690  -29.9863  -48.1404 H         1 UNK         0.0600 
    202 H202       -0.8995  -30.6721  -49.7384 H         1 UNK         0.0600 
    203 H203       -1.4167  -29.4344  -50.8849 H         1 UNK         0.0600 
    204 H204       -2.4752  -30.7874  -50.5041 H         1 UNK         0.0600 
    205 H205       -2.6892  -26.7858  -49.5594 H         1 UNK         0.3000 
    206 H206       -5.3703  -26.9412  -50.6753 H         1 UNK         0.0600 
    207 H207       -3.6118  -25.3287  -51.4815 H         1 UNK         0.0600 
    208 H208       -5.1021  -24.5370  -51.0060 H         1 UNK         0.0600 
    209 H209       -3.7058  -24.4818  -49.9405 H         1 UNK         0.0600 
    210 H210       -4.1562  -26.7651  -47.4705 H         1 UNK         0.3000 
    211 H211       -5.0216  -26.5556  -45.4620 H         1 UNK         0.0600 
    212 H212       -7.6895  -27.1961  -46.8243 H         1 UNK         0.0600 
    213 H213       -7.3120  -27.4155  -45.1209 H         1 UNK         0.0600 
    214 H214       -6.4780  -28.3775  -46.3307 H         1 UNK         0.0600 
    215 H215       -4.4295  -24.1814  -46.2537 H         1 UNK         0.3000 
    216 H216       -4.6259  -21.9853  -45.9243 H         1 UNK         0.0600 
    217 H217       -5.8674  -21.1775  -43.9775 H         1 UNK         0.0600 
    218 H218       -5.1113  -22.7089  -43.5714 H         1 UNK         0.0600 
    219 H219       -6.8375  -22.6418  -43.9118 H         1 UNK         0.0600 
    220 H220       -5.7299  -22.7518  -48.2185 H         1 UNK         0.3000 
    221 H221       -8.3487  -21.8438  -48.8064 H         1 UNK         0.0600 
    222 H222       -5.8425  -22.1074  -50.5644 H         1 UNK         0.0600 
    223 H223       -7.0755  -23.3454  -50.3028 H         1 UNK         0.0600 
    224 H224       -7.4746  -21.8815  -51.1791 H         1 UNK         0.0600 
    225 H225       -8.9673  -20.0036  -50.1073 H         1 UNK         0.3000 
    226 H226       -8.3276  -17.5104  -49.0322 H         1 UNK         0.0600 
    227 H227      -10.4786  -18.0156  -50.1334 H         1 UNK         0.0600 
    228 H228       -9.7268  -16.6356  -50.9178 H         1 UNK         0.0600 
    229 H229       -9.6775  -18.2144  -51.6924 H         1 UNK         0.0600 
    230 H230       -6.5996  -16.3414  -49.2241 H         1 UNK         0.3000 
    231 H231       -4.7809  -15.3055  -49.7748 H         1 UNK         0.0600 
    232 H232       -5.4600  -15.7423  -52.7289 H         1 UNK         0.0600 
    233 H233       -4.3085  -14.5818  -52.0826 H         1 UNK         0.0600 
    234 H234       -6.0167  -14.3985  -51.7341 H         1 UNK         0.0600 
    235 H235       -5.0572  -18.2296  -51.7546 H         1 UNK         0.3000 
    236 H236       -3.8122  -19.9721  -52.2083 H         1 UNK         0.0600 
    237 H237       -2.0537  -20.7655  -50.6461 H         1 UNK         0.0600 
    238 H238       -2.0606  -19.2181  -49.8170 H         1 UNK         0.0600 
    239 H239       -3.4916  -20.2396  -49.7816 H         1 UNK         0.0600 
    240 H240       -1.6161  -17.2393  -51.5640 H         1 UNK         0.3000 
    241 H241       -0.2110  -17.7282  -54.1633 H         1 UNK         0.0600 
    242 H242       -2.3231  -14.4558  -54.0398 H         1 UNK         0.3800 
    243 H243       -2.7327  -15.9772  -53.2880 H         1 UNK         0.3800 
    244 H244        1.7327  -16.4316  -53.0995 H         1 UNK         0.0800 
    245 H245        0.9465  -16.6351  -51.5577 H         1 UNK         0.0800 
    246 H246        4.2023  -19.0782  -52.4751 H         1 UNK         0.0800 
    247 H247        3.8335  -17.4297  -52.8945 H         1 UNK         0.0800 
@<TRIPOS>BOND
     1    1    2 1    
     2    1  127 1    
     3    1  128 1    
     4    1  129 1    
     5    2    3 2    
     6    2    4 am   BACKBONE|DICT|INTERRES
     7    4    5 1    
     8    4  130 1    
     9    5    6 1    
    10    5   65 1    
    11    5  131 1    
    12    6    7 1    
    13    6  132 1    
    14    6  133 1    
    15    7    8 1    
    16    8    9 1    
    17    8  134 1    
    18    8  135 1    
    19    9   10 ar   
    20    9   14 ar   
    21   10   11 ar   
    22   10  136 1    
    23   11   12 ar   
    24   11  126 1    
    25   12   13 ar   
    26   12  137 1    
    27   13   14 ar   
    28   13   15 1    
    29   14  138 1    
    30   15   16 1    
    31   15  139 1    
    32   15  140 1    
    33   16   17 1    
    34   17   18 1    
    35   17  141 1    
    36   17  142 1    
    37   18   19 1    
    38   18   67 1    
    39   18  143 1    
    40   19   20 am   BACKBONE|DICT|INTERRES
    41   19  144 1    
    42   20   21 2    
    43   20   22 1    
    44   22   23 1    
    45   22   24 1    
    46   22  145 1    
    47   23  146 1    
    48   23  147 1    
    49   23  148 1    
    50   24   25 am   BACKBONE|DICT|INTERRES
    51   24  149 1    
    52   25   26 2    
    53   25   27 1    
    54   27   28 1    
    55   27   29 1    
    56   27  150 1    
    57   28  151 1    
    58   28  152 1    
    59   28  153 1    
    60   29   30 am   BACKBONE|DICT|INTERRES
    61   29  154 1    
    62   30   31 2    
    63   30   32 1    
    64   32   33 1    
    65   32   34 1    
    66   32  155 1    
    67   33  156 1    
    68   33  157 1    
    69   33  158 1    
    70   34   35 am   BACKBONE|DICT|INTERRES
    71   34  159 1    
    72   35   36 2    
    73   35   37 1    
    74   37   38 1    
    75   37   39 1    
    76   37  160 1    
    77   38  161 1    
    78   38  162 1    
    79   38  163 1    
    80   39   40 am   BACKBONE|DICT|INTERRES
    81   39  164 1    
    82   40   41 2    
    83   40   42 1    
    84   42   43 1    
    85   42   44 1    
    86   42  165 1    
    87   43  166 1    
    88   43  167 1    
    89   43  168 1    
    90   44   45 am   BACKBONE|DICT|INTERRES
    91   44  169 1    
    92   45   46 2    
    93   45   47 1    
    94   47   48 1    
    95   47   49 1    
    96   47  170 1    
    97   48  171 1    
    98   48  172 1    
    99   48  173 1    
   100   49   50 am   BACKBONE|DICT|INTERRES
   101   49  174 1    
   102   50   51 2    
   103   50   52 1    
   104   52   53 1    
   105   52   54 1    
   106   52  175 1    
   107   53  176 1    
   108   53  177 1    
   109   53  178 1    
   110   54   55 am   BACKBONE|DICT|INTERRES
   111   54  179 1    
   112   55   56 2    
   113   55   57 1    
   114   57   58 1    
   115   57   59 1    
   116   57  180 1    
   117   58  181 1    
   118   58  182 1    
   119   58  183 1    
   120   59   60 am   BACKBONE|DICT|INTERRES
   121   59  184 1    
   122   60   61 2    
   123   60   62 1    
   124   62   63 1    
   125   62   64 1    
   126   62  185 1    
   127   63  186 1    
   128   63  187 1    
   129   63  188 1    
   130   64   65 am   BACKBONE|DICT|INTERRES
   131   64  189 1    
   132   65   66 2    
   133   67   68 2    
   134   67   69 am   BACKBONE|DICT|INTERRES
   135   69   70 1    
   136   69  190 1    
   137   70   71 1    
   138   70   72 1    
   139   70  191 1    
   140   71  192 1    
   141   71  193 1    
   142   71  194 1    
   143   72   73 2    
   144   72   74 am   BACKBONE|DICT|INTERRES
   145   74   75 1    
   146   74  195 1    
   147   75   76 1    
   148   75   77 1    
   149   75  196 1    
   150   76  197 1    
   151   76  198 1    
   152   76  199 1    
   153   77   78 2    
   154   77   79 am   BACKBONE|DICT|INTERRES
   155   79   80 1    
   156   79  200 1    
   157   80   81 1    
   158   80   82 1    
   159   80  201 1    
   160   81  202 1    
   161   81  203 1    
   162   81  204 1    
   163   82   83 2    
   164   82   84 am   BACKBONE|DICT|INTERRES
   165   84   85 1    
   166   84  205 1    
   167   85   86 1    
   168   85   87 1    
   169   85  206 1    
   170   86  207 1    
   171   86  208 1    
   172   86  209 1    
   173   87   88 2    
   174   87   89 am   BACKBONE|DICT|INTERRES
   175   89   90 1    
   176   89  210 1    
   177   90   91 1    
   178   90   92 1    
   179   90  211 1    
   180   91  212 1    
   181   91  213 1    
   182   91  214 1    
   183   92   93 2    
   184   92   94 am   BACKBONE|DICT|INTERRES
   185   94   95 1    
   186   94  215 1    
   187   95   96 1    
   188   95   97 1    
   189   95  216 1    
   190   96  217 1    
   191   96  218 1    
   192   96  219 1    
   193   97   98 2    
   194   97   99 am   BACKBONE|DICT|INTERRES
   195   99  100 1    
   196   99  220 1    
   197  100  101 1    
   198  100  102 1    
   199  100  221 1    
   200  101  222 1    
   201  101  223 1    
   202  101  224 1    
   203  102  103 2    
   204  102  104 am   BACKBONE|DICT|INTERRES
   205  104  105 1    
   206  104  225 1    
   207  105  106 1    
   208  105  107 1    
   209  105  226 1    
   210  106  227 1    
   211  106  228 1    
   212  106  229 1    
   213  107  108 2    
   214  107  109 am   BACKBONE|DICT|INTERRES
   215  109  110 1    
   216  109  230 1    
   217  110  111 1    
   218  110  112 1    
   219  110  231 1    
   220  111  232 1    
   221  111  233 1    
   222  111  234 1    
   223  112  113 2    
   224  112  114 am   BACKBONE|DICT|INTERRES
   225  114  115 1    
   226  114  235 1    
   227  115  116 1    
   228  115  117 1    
   229  115  236 1    
   230  116  237 1    
   231  116  238 1    
   232  116  239 1    
   233  117  118 2    
   234  117  119 am   BACKBONE|DICT|INTERRES
   235  119  120 1    
   236  119  240 1    
   237  120  121 1    
   238  120  124 1    
   239  120  241 1    
   240  121  122 am   BACKBONE|DICT|INTERRES
   241  121  123 2    
   242  122  242 1    
   243  122  243 1    
   244  124  125 1    
   245  124  244 1    
   246  124  245 1    
   247  125  126 1    
   248  126  246 1    
   249  126  247 1    
@<TRIPOS>SUBSTRUCTURE
     1 UNK         1 GROUP             0       ****    0 ROOT    
