@<TRIPOS>MOLECULE
3R540
247   249    1
SMALL
USER_CHARGES


@<TRIPOS>ATOM
      1 CA         -3.2233  -17.6468  -47.0753 C.3       0 UNK        -0.1800 
      2 C          -3.2558  -16.1621  -47.4099 C.2       0 UNK         0.5000 
      3 O          -4.3333  -15.5756  -47.5062 O.2       0 UNK        -0.5000 
      4 N          -2.0741  -15.5620  -47.5945 N.am      1 UNK        -0.5000 
      5 CA         -1.8739  -14.1281  -47.8283 C.3       1 UNK         0.1400 
      6 C6         -0.4155  -13.8068  -48.2427 C.3       23 UNK        -0.0398 
      7 S7          0.0735  -14.6944  -49.7582 S.3       23 UNK        -0.2404 
      8 C8          1.3990  -15.7942  -49.1551 C.3       23 UNK        -0.0205 
      9 C9          1.6364  -16.9724  -50.0932 C.ar      23 UNK        -0.0193 
     10 C10         1.8645  -16.7624  -51.4585 C.ar      23 UNK        -0.1150 
     11 C11         2.0354  -17.8438  -52.3274 C.ar      23 UNK        -0.0193 
     12 C12         2.0255  -19.1419  -51.8132 C.ar      23 UNK        -0.1150 
     13 C13         1.8247  -19.3681  -50.4502 C.ar      23 UNK        -0.0193 
     14 C14         1.6239  -18.2804  -49.5956 C.ar      23 UNK        -0.1150 
     15 C15         1.8378  -20.7922  -49.9175 C.3       23 UNK        -0.0205 
     16 S16         0.2195  -21.5952  -50.1170 S.3       23 UNK        -0.2404 
     17 C17        -0.6431  -21.1172  -48.5839 C.3       23 UNK        -0.0398 
     18 CA         -0.8496  -22.3438  -47.6511 C.3       11 UNK         0.1400 
     19 N           0.0308  -22.3264  -46.4757 N.am      11 UNK        -0.5000 
     20 C           0.1801  -23.3594  -45.6325 C.2       10 UNK         0.5000 
     21 O          -0.4113  -24.4301  -45.7580 O.2       10 UNK        -0.5000 
     22 CA          1.0993  -23.1572  -44.4162 C.3       10 UNK         0.1400 
     23 CB          2.5788  -23.2203  -44.8236 C.3       10 UNK        -0.1800 
     24 N           0.8221  -21.9085  -43.7091 N.am      10 UNK        -0.5000 
     25 C          -0.3356  -21.6290  -43.0920 C.2       9 UNK         0.5000 
     26 O          -1.2727  -22.4223  -43.0017 O.2       9 UNK        -0.5000 
     27 CA         -0.4949  -20.2054  -42.5267 C.3       9 UNK         0.1400 
     28 CB          0.1910  -20.0751  -41.1589 C.3       9 UNK        -0.1800 
     29 N           0.0208  -19.1773  -43.4301 N.am      9 UNK        -0.5000 
     30 C          -0.4235  -18.9621  -44.6757 C.2       8 UNK         0.5000 
     31 O          -1.3432  -19.5879  -45.2009 O.2       8 UNK        -0.5000 
     32 CA          0.3368  -17.9112  -45.4977 C.3       8 UNK         0.1400 
     33 CB         -0.0544  -16.4896  -45.0676 C.3       8 UNK        -0.1800 
     34 N           1.7857  -18.0853  -45.3964 N.am      8 UNK        -0.5000 
     35 C           2.4499  -19.1603  -45.8453 C.2       7 UNK         0.5000 
     36 O           1.9106  -20.0975  -46.4308 O.2       7 UNK        -0.5000 
     37 CA          3.9607  -19.2117  -45.5610 C.3       7 UNK         0.1400 
     38 CB          4.7273  -18.3625  -46.5859 C.3       7 UNK        -0.1800 
     39 N           4.2886  -18.7633  -44.2068 N.am      7 UNK        -0.5000 
     40 C           3.9254  -19.4054  -43.0861 C.2       6 UNK         0.5000 
     41 O           3.3243  -20.4789  -43.0778 O.2       6 UNK        -0.5000 
     42 CA          4.2328  -18.6964  -41.7515 C.3       6 UNK         0.1400 
     43 CB          5.6512  -19.0377  -41.2716 C.3       6 UNK        -0.1800 
     44 N           4.0779  -17.2388  -41.8218 N.am      6 UNK        -0.5000 
     45 C           2.9357  -16.6158  -42.1418 C.2       5 UNK         0.5000 
     46 O           1.8872  -17.2180  -42.3848 O.2       5 UNK        -0.5000 
     47 CA          3.0053  -15.0812  -42.2798 C.3       5 UNK         0.1400 
     48 CB          3.8826  -14.6867  -43.4809 C.3       5 UNK        -0.1800 
     49 N           1.6868  -14.4792  -42.4723 N.am      5 UNK        -0.5000 
     50 C           0.7275  -14.3809  -41.5431 C.2       4 UNK         0.5000 
     51 O           0.8761  -14.7229  -40.3680 O.2       4 UNK        -0.5000 
     52 CA         -0.6194  -13.7972  -42.0270 C.3       4 UNK         0.1400 
     53 CB         -1.5132  -13.3000  -40.8719 C.3       4 UNK        -0.1800 
     54 N          -0.4722  -12.7564  -43.0539 N.am      4 UNK        -0.5000 
     55 C           0.1717  -11.5823  -42.9291 C.2       3 UNK         0.5000 
     56 O           0.7631  -11.2267  -41.9091 O.2       3 UNK        -0.5000 
     57 CA          0.1646  -10.6380  -44.1504 C.3       3 UNK         0.1400 
     58 CB          1.4786  -10.7779  -44.9355 C.3       3 UNK        -0.1800 
     59 N          -0.9546  -10.8656  -45.0656 N.am      3 UNK        -0.5000 
     60 C          -2.2486  -10.6735  -44.7734 C.2       2 UNK         0.5000 
     61 O          -2.6409  -10.1699  -43.7202 O.2       2 UNK        -0.5000 
     62 CA         -3.2840  -11.1395  -45.8196 C.3       2 UNK         0.1400 
     63 CB         -3.8990   -9.9289  -46.5393 C.3       2 UNK        -0.1800 
     64 N          -2.7798  -12.0806  -46.8296 N.am      2 UNK        -0.5000 
     65 C          -2.2683  -13.2964  -46.5888 C.2       1 UNK         0.5000 
     66 O          -2.0570  -13.7384  -45.4557 O.2       1 UNK        -0.5000 
     67 C          -2.3338  -22.5244  -47.2738 C.2       11 UNK         0.5000 
     68 O          -3.0282  -23.2978  -47.9303 O.2       11 UNK        -0.5000 
     69 N          -2.7832  -21.8440  -46.2103 N.am      12 UNK        -0.5000 
     70 CA         -4.1366  -21.9575  -45.6622 C.3       12 UNK         0.1400 
     71 CB         -4.3470  -20.8599  -44.6089 C.3       12 UNK        -0.1800 
     72 C          -4.4558  -23.3456  -45.0740 C.2       12 UNK         0.5000 
     73 O          -5.6177  -23.7528  -45.0918 O.2       12 UNK        -0.5000 
     74 N          -3.4343  -24.0434  -44.5621 N.am      13 UNK        -0.5000 
     75 CA         -3.5485  -25.4101  -44.0604 C.3       13 UNK         0.1400 
     76 CB         -2.4371  -25.6697  -43.0310 C.3       13 UNK        -0.1800 
     77 C          -3.4929  -26.4453  -45.1979 C.2       13 UNK         0.5000 
     78 O          -4.2911  -27.3834  -45.2054 O.2       13 UNK        -0.5000 
     79 N          -2.5359  -26.2747  -46.1193 N.am      14 UNK        -0.5000 
     80 CA         -2.2257  -27.2335  -47.1786 C.3       14 UNK         0.1400 
     81 CB         -0.8036  -26.9651  -47.6957 C.3       14 UNK        -0.1800 
     82 C          -3.2197  -27.2279  -48.3521 C.2       14 UNK         0.5000 
     83 O          -3.4060  -28.2741  -48.9762 O.2       14 UNK        -0.5000 
     84 N          -3.8111  -26.0689  -48.6616 N.am      15 UNK        -0.5000 
     85 CA         -4.6516  -25.8611  -49.8378 C.3       15 UNK         0.1400 
     86 CB         -3.7540  -25.4471  -51.0210 C.3       15 UNK        -0.1800 
     87 C          -5.7422  -24.8167  -49.5519 C.2       15 UNK         0.5000 
     88 O          -5.8759  -24.3394  -48.4225 O.2       15 UNK        -0.5000 
     89 N          -6.5119  -24.4681  -50.5905 N.am      16 UNK        -0.5000 
     90 CA         -7.5417  -23.4278  -50.5740 C.3       16 UNK         0.1400 
     91 CB         -8.5279  -23.6893  -51.7271 C.3       16 UNK        -0.1800 
     92 C          -6.9170  -22.0168  -50.6285 C.2       16 UNK         0.5000 
     93 O          -7.1189  -21.2858  -51.6006 O.2       16 UNK        -0.5000 
     94 N          -6.1508  -21.6818  -49.5805 N.am      17 UNK        -0.5000 
     95 CA         -5.3697  -20.4559  -49.3920 C.3       17 UNK         0.1400 
     96 CB         -6.2983  -19.2196  -49.3699 C.3       17 UNK        -0.1800 
     97 C          -4.2158  -20.3161  -50.4077 C.2       17 UNK         0.5000 
     98 O          -3.9267  -21.2415  -51.1691 O.2       17 UNK        -0.5000 
     99 N          -3.5650  -19.1443  -50.4036 N.am      18 UNK        -0.5000 
    100 CA        -2.4925  -18.7876  -51.3378 C.3       18 UNK         0.1400 
    101 CB        -1.8601  -17.4635  -50.8946 C.3       18 UNK        -0.1800 
    102 C         -2.9688  -18.7038  -52.8007 C.2       18 UNK         0.5000 
    103 O         -2.1735  -18.9314  -53.7094 O.2       18 UNK        -0.5000 
    104 N         -4.2715  -18.4522  -52.9993 N.am      19 UNK        -0.5000 
    105 CA        -4.9629  -18.4403  -54.2910 C.3       19 UNK         0.1400 
    106 CB        -6.4345  -18.0677  -54.0533 C.3       19 UNK        -0.1800 
    107 C         -4.8679  -19.7666  -55.0757 C.2       19 UNK         0.5000 
    108 O         -4.9920  -19.7553  -56.3008 O.2       19 UNK        -0.5000 
    109 N         -4.6441  -20.8820  -54.3674 N.am      20 UNK        -0.5000 
    110 CA        -4.4065  -22.1979  -54.9562 C.3       20 UNK         0.1400 
    111 CB        -4.7651  -23.2688  -53.9156 C.3       20 UNK        -0.1800 
    112 C         -2.9552  -22.3880  -55.4445 C.2       20 UNK         0.5000 
    113 O         -2.7134  -23.2889  -56.2491 O.2       20 UNK        -0.5000 
    114 N         -2.0177  -21.5701  -54.9459 N.am      21 UNK        -0.5000 
    115 CA        -0.5836  -21.6778  -55.2150 C.3       21 UNK         0.1400 
    116 CB         0.1732  -21.5898  -53.8815 C.3       21 UNK        -0.1800 
    117 C         -0.0797  -20.5955  -56.1850 C.2       21 UNK         0.5000 
    118 O          0.8418  -20.8663  -56.9566 O.2       21 UNK        -0.5000 
    119 N         -0.6736  -19.3992  -56.1399 N.am      22 UNK        -0.5000 
    120 CA        -0.2870  -18.2317  -56.9428 C.3       22 UNK         0.1400 
    121 C         -1.4906  -17.2963  -57.2381 C.2       22 UNK         0.5000 
    122 N         -1.3566  -16.3917  -58.1994 N.am      22 UNK        -0.7600 
    123 O         -2.5445  -17.3708  -56.6128 O.2       22 UNK        -0.5000 
    124 C124        0.9294  -17.4715  -56.3399 C.3       23 UNK        -0.0398 
    125 S125        0.7035  -16.9778  -54.5915 S.3       23 UNK        -0.2404 
    126 C126        2.2239  -17.6185  -53.8199 C.3       23 UNK        -0.0205 
    127 H127       -3.1950  -17.7767  -45.9940 H         1 UNK         0.0600 
    128 H128       -2.3509  -18.1389  -47.5056 H         1 UNK         0.0600 
    129 H129       -4.1142  -18.1494  -47.4458 H         1 UNK         0.0600 
    130 H130       -1.2289  -16.1034  -47.5182 H         1 UNK         0.3000 
    131 H131       -2.5333  -13.8403  -48.6502 H         1 UNK         0.0600 
    132 H132        0.2825  -14.0337  -47.4354 H         1 UNK         0.0800 
    133 H133       -0.3038  -12.7400  -48.4449 H         1 UNK         0.0800 
    134 H134        1.1439  -16.1562  -48.1587 H         1 UNK         0.0800 
    135 H135        2.3228  -15.2234  -49.0533 H         1 UNK         0.0800 
    136 H136        1.8735  -15.7563  -51.8535 H         1 UNK         0.1150 
    137 H137        2.1718  -19.9833  -52.4747 H         1 UNK         0.1150 
    138 H138        1.4588  -18.4554  -48.5435 H         1 UNK         0.1150 
    139 H139        2.5806  -21.3740  -50.4650 H         1 UNK         0.0800 
    140 H140        2.1506  -20.8203  -48.8744 H         1 UNK         0.0800 
    141 H141       -1.5887  -20.6689  -48.8917 H         1 UNK         0.0800 
    142 H142       -0.1077  -20.3145  -48.0782 H         1 UNK         0.0800 
    143 H143       -0.5895  -23.2518  -48.2004 H         1 UNK         0.0600 
    144 H144        0.5765  -21.4828  -46.3218 H         1 UNK         0.3000 
    145 H145        0.9100  -23.9778  -43.7210 H         1 UNK         0.0600 
    146 H146        3.2296  -23.1628  -43.9510 H         1 UNK         0.0600 
    147 H147        2.8024  -24.1575  -45.3346 H         1 UNK         0.0600 
    148 H148        2.8506  -22.4076  -45.4965 H         1 UNK         0.0600 
    149 H149        1.5674  -21.2198  -43.6920 H         1 UNK         0.3000 
    150 H150       -1.5624  -20.0198  -42.3923 H         1 UNK         0.0600 
    151 H151       -0.2080  -20.8030  -40.4515 H         1 UNK         0.0600 
    152 H152        0.0341  -19.0842  -40.7321 H         1 UNK         0.0600 
    153 H153        1.2660  -20.2409  -41.2301 H         1 UNK         0.0600 
    154 H154        0.7712  -18.5893  -43.0753 H         1 UNK         0.3000 
    155 H155        0.0536  -18.0413  -46.5438 H         1 UNK         0.0600 
    156 H156        0.2167  -16.2882  -44.0344 H         1 UNK         0.0600 
    157 H157       -1.1320  -16.3439  -45.1351 H         1 UNK         0.0600 
    158 H158        0.4241  -15.7356  -45.6910 H         1 UNK         0.0600 
    159 H159        2.2897  -17.3945  -44.8622 H         1 UNK         0.3000 
    160 H160        4.2848  -20.2494  -45.6645 H         1 UNK         0.0600 
    161 H161        4.4689  -17.3054  -46.5114 H         1 UNK         0.0600 
    162 H162        4.5023  -18.6835  -47.6042 H         1 UNK         0.0600 
    163 H163        5.8046  -18.4555  -46.4475 H         1 UNK         0.0600 
    164 H164        4.7866  -17.8900  -44.1210 H         1 UNK         0.3000 
    165 H165        3.5231  -19.0697  -41.0104 H         1 UNK         0.0600 
    166 H166        5.8468  -18.6143  -40.2862 H         1 UNK         0.0600 
    167 H167        5.7869  -20.1172  -41.1926 H         1 UNK         0.0600 
    168 H168        6.4112  -18.6605  -41.9570 H         1 UNK         0.0600 
    169 H169        4.9041  -16.6884  -41.6365 H         1 UNK         0.3000 
    170 H170        3.4442  -14.6741  -41.3667 H         1 UNK         0.0600 
    171 H171        4.9053  -15.0470  -43.3646 H         1 UNK         0.0600 
    172 H172        3.4946  -15.0940  -44.4156 H         1 UNK         0.0600 
    173 H173        3.9379  -13.6030  -43.5875 H         1 UNK         0.0600 
    174 H174        1.4660  -14.1727  -43.4068 H         1 UNK         0.3000 
    175 H175       -1.1442  -14.6221  -42.5112 H         1 UNK         0.0600 
    176 H176       -1.7479  -14.1109  -40.1814 H         1 UNK         0.0600 
    177 H177       -1.0301  -12.5100  -40.2964 H         1 UNK         0.0600 
    178 H178       -2.4598  -12.9106  -41.2470 H         1 UNK         0.0600 
    179 H179       -0.9388  -12.9549  -43.9339 H         1 UNK         0.3000 
    180 H180        0.0926   -9.6149  -43.7757 H         1 UNK         0.0600 
    181 H181        1.5939  -11.7788  -45.3535 H         1 UNK         0.0600 
    182 H182        2.3400  -10.5898  -44.2931 H         1 UNK         0.0600 
    183 H183        1.5262  -10.0625  -45.7567 H         1 UNK         0.0600 
    184 H184       -0.7300  -11.2677  -45.9625 H         1 UNK         0.3000 
    185 H185       -4.0786  -11.6487  -45.2705 H         1 UNK         0.0600 
    186 H186       -4.3196   -9.2192  -45.8254 H         1 UNK         0.0600 
    187 H187       -3.1561   -9.3951  -47.1333 H         1 UNK         0.0600 
    188 H188       -4.7076  -10.2328  -47.2045 H         1 UNK         0.0600 
    189 H189       -2.8974  -11.7890  -47.7895 H         1 UNK         0.3000 
    190 H190       -2.1596  -21.1882  -45.7441 H         1 UNK         0.3000 
    191 H191       -4.8446  -21.7885  -46.4744 H         1 UNK         0.0600 
    192 H192       -4.2229  -19.8682  -45.0432 H         1 UNK         0.0600 
    193 H193       -5.3520  -20.9071  -44.1878 H         1 UNK         0.0600 
    194 H194       -3.6389  -20.9554  -43.7850 H         1 UNK         0.0600 
    195 H195       -2.5149  -23.6203  -44.5382 H         1 UNK         0.3000 
    196 H196       -4.5066  -25.5243  -43.5487 H         1 UNK         0.0600 
    197 H197       -2.5039  -26.6820  -42.6307 H         1 UNK         0.0600 
    198 H198       -2.5131  -24.9807  -42.1897 H         1 UNK         0.0600 
    199 H199       -1.4443  -25.5528  -43.4666 H         1 UNK         0.0600 
    200 H200       -1.8909  -25.4938  -46.0194 H         1 UNK         0.3000 
    201 H201       -2.2386  -28.2355  -46.7442 H         1 UNK         0.0600 
    202 H202       -0.0699  -27.0468  -46.8936 H         1 UNK         0.0600 
    203 H203       -0.7170  -25.9675  -48.1288 H         1 UNK         0.0600 
    204 H204       -0.5235  -27.6839  -48.4668 H         1 UNK         0.0600 
    205 H205       -3.6419  -25.2374  -48.1017 H         1 UNK         0.3000 
    206 H206       -5.1672  -26.7904  -50.0885 H         1 UNK         0.0600 
    207 H207       -2.9377  -26.1543  -51.1684 H         1 UNK         0.0600 
    208 H208       -4.3155  -25.4171  -51.9542 H         1 UNK         0.0600 
    209 H209       -3.3150  -24.4604  -50.8622 H         1 UNK         0.0600 
    210 H210       -6.3297  -24.8906  -51.4886 H         1 UNK         0.3000 
    211 H211       -8.1020  -23.4995  -49.6393 H         1 UNK         0.0600 
    212 H212       -8.0359  -23.6502  -52.6994 H         1 UNK         0.0600 
    213 H213       -9.3264  -22.9463  -51.7332 H         1 UNK         0.0600 
    214 H214       -8.9982  -24.6678  -51.6287 H         1 UNK         0.0600 
    215 H215       -5.9916  -22.4128  -48.8931 H         1 UNK         0.3000 
    216 H216       -4.9006  -20.5411  -48.4123 H         1 UNK         0.0600 
    217 H217       -5.7752  -18.3197  -49.0489 H         1 UNK         0.0600 
    218 H218       -7.1266  -19.3660  -48.6765 H         1 UNK         0.0600 
    219 H219       -6.7223  -19.0098  -50.3522 H         1 UNK         0.0600 
    220 H220       -3.8589  -18.4219  -49.7644 H         1 UNK         0.3000 
    221 H221       -1.7256  -19.5632  -51.2918 H         1 UNK         0.0600 
    222 H222       -2.5892  -16.6533  -50.8606 H         1 UNK         0.0600 
    223 H223       -1.4087  -17.5548  -49.9070 H         1 UNK         0.0600 
    224 H224       -1.0685  -17.1631  -51.5826 H         1 UNK         0.0600 
    225 H225       -4.8488  -18.2967  -52.1873 H         1 UNK         0.3000 
    226 H226       -4.5065  -17.6606  -54.9019 H         1 UNK         0.0600 
    227 H227       -6.5241  -17.0911  -53.5772 H         1 UNK         0.0600 
    228 H228       -6.9828  -18.0198  -54.9951 H         1 UNK         0.0600 
    229 H229       -6.9355  -18.8001  -53.4183 H         1 UNK         0.0600 
    230 H230       -4.5698  -20.8190  -53.3592 H         1 UNK         0.3000 
    231 H231       -5.0663  -22.3281  -55.8165 H         1 UNK         0.0600 
    232 H232       -5.7988  -23.1673  -53.5867 H         1 UNK         0.0600 
    233 H233       -4.1253  -23.1975  -53.0357 H         1 UNK         0.0600 
    234 H234       -4.6495  -24.2717  -54.3282 H         1 UNK         0.0600 
    235 H235       -2.2992  -20.8045  -54.3434 H         1 UNK         0.3000 
    236 H236       -0.3543  -22.6479  -55.6607 H         1 UNK         0.0600 
    237 H237        1.2497  -21.6717  -54.0356 H         1 UNK         0.0600 
    238 H238       -0.0179  -20.6440  -53.3731 H         1 UNK         0.0600 
    239 H239       -0.1211  -22.3948  -53.2080 H         1 UNK         0.0600 
    240 H240       -1.3981  -19.2179  -55.4496 H         1 UNK         0.3000 
    241 H241        0.0143  -18.6063  -57.9231 H         1 UNK         0.0600 
    242 H242       -0.5092  -16.3082  -58.7395 H         1 UNK         0.3800 
    243 H243       -2.1308  -15.7775  -58.3992 H         1 UNK         0.3800 
    244 H244        1.8145  -18.1016  -56.4281 H         1 UNK         0.0800 
    245 H245        1.1584  -16.5779  -56.9221 H         1 UNK         0.0800 
    246 H246        2.5144  -18.5536  -54.3009 H         1 UNK         0.0800 
    247 H247        3.0403  -16.9148  -53.9870 H         1 UNK         0.0800 
@<TRIPOS>BOND
     1    1    2 1    
     2    1  127 1    
     3    1  128 1    
     4    1  129 1    
     5    2    3 2    
     6    2    4 am   BACKBONE|DICT|INTERRES
     7    4    5 1    
     8    4  130 1    
     9    5    6 1    
    10    5   65 1    
    11    5  131 1    
    12    6    7 1    
    13    6  132 1    
    14    6  133 1    
    15    7    8 1    
    16    8    9 1    
    17    8  134 1    
    18    8  135 1    
    19    9   10 ar   
    20    9   14 ar   
    21   10   11 ar   
    22   10  136 1    
    23   11   12 ar   
    24   11  126 1    
    25   12   13 ar   
    26   12  137 1    
    27   13   14 ar   
    28   13   15 1    
    29   14  138 1    
    30   15   16 1    
    31   15  139 1    
    32   15  140 1    
    33   16   17 1    
    34   17   18 1    
    35   17  141 1    
    36   17  142 1    
    37   18   19 1    
    38   18   67 1    
    39   18  143 1    
    40   19   20 am   BACKBONE|DICT|INTERRES
    41   19  144 1    
    42   20   21 2    
    43   20   22 1    
    44   22   23 1    
    45   22   24 1    
    46   22  145 1    
    47   23  146 1    
    48   23  147 1    
    49   23  148 1    
    50   24   25 am   BACKBONE|DICT|INTERRES
    51   24  149 1    
    52   25   26 2    
    53   25   27 1    
    54   27   28 1    
    55   27   29 1    
    56   27  150 1    
    57   28  151 1    
    58   28  152 1    
    59   28  153 1    
    60   29   30 am   BACKBONE|DICT|INTERRES
    61   29  154 1    
    62   30   31 2    
    63   30   32 1    
    64   32   33 1    
    65   32   34 1    
    66   32  155 1    
    67   33  156 1    
    68   33  157 1    
    69   33  158 1    
    70   34   35 am   BACKBONE|DICT|INTERRES
    71   34  159 1    
    72   35   36 2    
    73   35   37 1    
    74   37   38 1    
    75   37   39 1    
    76   37  160 1    
    77   38  161 1    
    78   38  162 1    
    79   38  163 1    
    80   39   40 am   BACKBONE|DICT|INTERRES
    81   39  164 1    
    82   40   41 2    
    83   40   42 1    
    84   42   43 1    
    85   42   44 1    
    86   42  165 1    
    87   43  166 1    
    88   43  167 1    
    89   43  168 1    
    90   44   45 am   BACKBONE|DICT|INTERRES
    91   44  169 1    
    92   45   46 2    
    93   45   47 1    
    94   47   48 1    
    95   47   49 1    
    96   47  170 1    
    97   48  171 1    
    98   48  172 1    
    99   48  173 1    
   100   49   50 am   BACKBONE|DICT|INTERRES
   101   49  174 1    
   102   50   51 2    
   103   50   52 1    
   104   52   53 1    
   105   52   54 1    
   106   52  175 1    
   107   53  176 1    
   108   53  177 1    
   109   53  178 1    
   110   54   55 am   BACKBONE|DICT|INTERRES
   111   54  179 1    
   112   55   56 2    
   113   55   57 1    
   114   57   58 1    
   115   57   59 1    
   116   57  180 1    
   117   58  181 1    
   118   58  182 1    
   119   58  183 1    
   120   59   60 am   BACKBONE|DICT|INTERRES
   121   59  184 1    
   122   60   61 2    
   123   60   62 1    
   124   62   63 1    
   125   62   64 1    
   126   62  185 1    
   127   63  186 1    
   128   63  187 1    
   129   63  188 1    
   130   64   65 am   BACKBONE|DICT|INTERRES
   131   64  189 1    
   132   65   66 2    
   133   67   68 2    
   134   67   69 am   BACKBONE|DICT|INTERRES
   135   69   70 1    
   136   69  190 1    
   137   70   71 1    
   138   70   72 1    
   139   70  191 1    
   140   71  192 1    
   141   71  193 1    
   142   71  194 1    
   143   72   73 2    
   144   72   74 am   BACKBONE|DICT|INTERRES
   145   74   75 1    
   146   74  195 1    
   147   75   76 1    
   148   75   77 1    
   149   75  196 1    
   150   76  197 1    
   151   76  198 1    
   152   76  199 1    
   153   77   78 2    
   154   77   79 am   BACKBONE|DICT|INTERRES
   155   79   80 1    
   156   79  200 1    
   157   80   81 1    
   158   80   82 1    
   159   80  201 1    
   160   81  202 1    
   161   81  203 1    
   162   81  204 1    
   163   82   83 2    
   164   82   84 am   BACKBONE|DICT|INTERRES
   165   84   85 1    
   166   84  205 1    
   167   85   86 1    
   168   85   87 1    
   169   85  206 1    
   170   86  207 1    
   171   86  208 1    
   172   86  209 1    
   173   87   88 2    
   174   87   89 am   BACKBONE|DICT|INTERRES
   175   89   90 1    
   176   89  210 1    
   177   90   91 1    
   178   90   92 1    
   179   90  211 1    
   180   91  212 1    
   181   91  213 1    
   182   91  214 1    
   183   92   93 2    
   184   92   94 am   BACKBONE|DICT|INTERRES
   185   94   95 1    
   186   94  215 1    
   187   95   96 1    
   188   95   97 1    
   189   95  216 1    
   190   96  217 1    
   191   96  218 1    
   192   96  219 1    
   193   97   98 2    
   194   97   99 am   BACKBONE|DICT|INTERRES
   195   99  100 1    
   196   99  220 1    
   197  100  101 1    
   198  100  102 1    
   199  100  221 1    
   200  101  222 1    
   201  101  223 1    
   202  101  224 1    
   203  102  103 2    
   204  102  104 am   BACKBONE|DICT|INTERRES
   205  104  105 1    
   206  104  225 1    
   207  105  106 1    
   208  105  107 1    
   209  105  226 1    
   210  106  227 1    
   211  106  228 1    
   212  106  229 1    
   213  107  108 2    
   214  107  109 am   BACKBONE|DICT|INTERRES
   215  109  110 1    
   216  109  230 1    
   217  110  111 1    
   218  110  112 1    
   219  110  231 1    
   220  111  232 1    
   221  111  233 1    
   222  111  234 1    
   223  112  113 2    
   224  112  114 am   BACKBONE|DICT|INTERRES
   225  114  115 1    
   226  114  235 1    
   227  115  116 1    
   228  115  117 1    
   229  115  236 1    
   230  116  237 1    
   231  116  238 1    
   232  116  239 1    
   233  117  118 2    
   234  117  119 am   BACKBONE|DICT|INTERRES
   235  119  120 1    
   236  119  240 1    
   237  120  121 1    
   238  120  124 1    
   239  120  241 1    
   240  121  122 am   BACKBONE|DICT|INTERRES
   241  121  123 2    
   242  122  242 1    
   243  122  243 1    
   244  124  125 1    
   245  124  244 1    
   246  124  245 1    
   247  125  126 1    
   248  126  246 1    
   249  126  247 1    
@<TRIPOS>SUBSTRUCTURE
     1 UNK         1 GROUP             0       ****    0 ROOT    
