@<TRIPOS>MOLECULE
3R540
247   249    1
SMALL
USER_CHARGES


@<TRIPOS>ATOM
      1 CA         -6.5628  -17.9694  -45.0847 C.3       0 UNK        -0.1800 
      2 C          -5.7516  -16.6822  -45.1500 C.2       0 UNK         0.5000 
      3 O          -6.2146  -15.6418  -44.6813 O.2       0 UNK        -0.5000 
      4 N          -4.5529  -16.7478  -45.7405 N.am      1 UNK        -0.5000 
      5 CA         -3.6095  -15.6284  -45.8591 C.3       1 UNK         0.1400 
      6 C6         -2.5220  -15.9355  -46.9194 C.3       23 UNK        -0.0398 
      7 S7         -2.0454  -14.4806  -47.9044 S.3       23 UNK        -0.2404 
      8 C8         -0.3208  -14.9013  -48.3407 C.3       23 UNK        -0.0205 
      9 C9         -0.1196  -16.2122  -49.1046 C.ar      23 UNK        -0.0193 
     10 C10        -1.1317  -16.8087  -49.8686 C.ar      23 UNK        -0.1150 
     11 C11        -0.9011  -18.0111  -50.5422 C.ar      23 UNK        -0.0193 
     12 C12         0.3589  -18.6106  -50.4734 C.ar      23 UNK        -0.1150 
     13 C13         1.3860  -18.0175  -49.7366 C.ar      23 UNK        -0.0193 
     14 C14         1.1381  -16.8220  -49.0571 C.ar      23 UNK        -0.1150 
     15 C15         2.7746  -18.6389  -49.7028 C.3       23 UNK        -0.0205 
     16 S16         3.0286  -19.6977  -48.2437 S.3       23 UNK        -0.2404 
     17 C17         2.2546  -21.2707  -48.7675 C.3       23 UNK        -0.0398 
     18 CA          1.2409  -21.8482  -47.7491 C.3       11 UNK         0.1400 
     19 N           1.8598  -22.0786  -46.4369 N.am      11 UNK        -0.5000 
     20 C           1.3174  -22.7148  -45.3893 C.2       10 UNK         0.5000 
     21 O           0.1369  -23.0646  -45.3351 O.2       10 UNK        -0.5000 
     22 CA          2.2649  -23.0657  -44.2284 C.3       10 UNK         0.1400 
     23 CB          3.7563  -23.1030  -44.6265 C.3       10 UNK        -0.1800 
     24 N           2.0909  -22.1476  -43.1054 N.am      10 UNK        -0.5000 
     25 C           2.2027  -22.5094  -41.8188 C.2       9 UNK         0.5000 
     26 O           2.3399  -23.6808  -41.4605 O.2       9 UNK        -0.5000 
     27 CA          2.2054  -21.4109  -40.7332 C.3       9 UNK         0.1400 
     28 CB          3.5854  -21.3314  -40.0593 C.3       9 UNK        -0.1800 
     29 N           1.8623  -20.0782  -41.2211 N.am      9 UNK        -0.5000 
     30 C           0.6265  -19.6534  -41.5066 C.2       8 UNK         0.5000 
     31 O          -0.3868  -20.3362  -41.3577 O.2       8 UNK        -0.5000 
     32 CA          0.5141  -18.2304  -42.0860 C.3       8 UNK         0.1400 
     33 CB          0.3797  -17.1975  -40.9579 C.3       8 UNK        -0.1800 
     34 N           1.6331  -17.8566  -42.9592 N.am      8 UNK        -0.5000 
     35 C           2.0469  -18.5266  -44.0470 C.2       7 UNK         0.5000 
     36 O           1.5420  -19.5749  -44.4485 O.2       7 UNK        -0.5000 
     37 CA          3.2578  -17.9462  -44.7892 C.3       7 UNK         0.1400 
     38 CB          2.8578  -16.7108  -45.6106 C.3       7 UNK        -0.1800 
     39 N           4.3342  -17.6137  -43.8596 N.am      7 UNK        -0.5000 
     40 C           5.1164  -18.5254  -43.2631 C.2       6 UNK         0.5000 
     41 O           5.0704  -19.7317  -43.5032 O.2       6 UNK        -0.5000 
     42 CA          6.0980  -18.0041  -42.1972 C.3       6 UNK         0.1400 
     43 CB          7.4314  -17.5988  -42.8433 C.3       6 UNK        -0.1800 
     44 N           5.5649  -16.8696  -41.4413 N.am      6 UNK        -0.5000 
     45 C           4.5225  -16.9365  -40.6007 C.2       5 UNK         0.5000 
     46 O           3.9129  -17.9751  -40.3464 O.2       5 UNK        -0.5000 
     47 CA          4.0563  -15.6044  -39.9826 C.3       5 UNK         0.1400 
     48 CB          4.8571  -15.2891  -38.7105 C.3       5 UNK        -0.1800 
     49 N           4.1553  -14.4757  -40.9144 N.am      5 UNK        -0.5000 
     50 C           3.4588  -14.3749  -42.0532 C.2       4 UNK         0.5000 
     51 O           2.6542  -15.2261  -42.4423 O.2       4 UNK        -0.5000 
     52 CA          3.7450  -13.1530  -42.9323 C.3       4 UNK         0.1400 
     53 CB          4.9913  -13.3981  -43.8034 C.3       4 UNK        -0.1800 
     54 N           2.5805  -12.9202  -43.7775 N.am      4 UNK        -0.5000 
     55 C           2.2856  -11.7837  -44.4172 C.2       3 UNK         0.5000 
     56 O           2.9935  -10.7763  -44.3844 O.2       3 UNK        -0.5000 
     57 CA          0.9771  -11.7643  -45.2324 C.3       3 UNK         0.1400 
     58 CB          1.2616  -12.1196  -46.6993 C.3       3 UNK        -0.1800 
     59 N          -0.0571  -12.6647  -44.7093 N.am      3 UNK        -0.5000 
     60 C          -0.7264  -12.4622  -43.5643 C.2       2 UNK         0.5000 
     61 O          -0.5285  -11.4939  -42.8288 O.2       2 UNK        -0.5000 
     62 CA         -1.8017  -13.5014  -43.1956 C.3       2 UNK         0.1400 
     63 CB         -2.8556  -12.9572  -42.2105 C.3       2 UNK        -0.1800 
     64 N          -2.4620  -14.0249  -44.3939 N.am      2 UNK        -0.5000 
     65 C          -2.9764  -15.2555  -44.4971 C.2       1 UNK         0.5000 
     66 O          -2.9321  -16.0849  -43.5853 O.2       1 UNK        -0.5000 
     67 C          -0.0716  -21.0385  -47.7349 C.2       11 UNK         0.5000 
     68 O          -0.8602  -21.1710  -48.6719 O.2       11 UNK        -0.5000 
     69 N          -0.3091  -20.2549  -46.6742 N.am      12 UNK        -0.5000 
     70 CA         -1.5014  -19.4312  -46.4737 C.3       12 UNK         0.1400 
     71 CB         -1.4095  -18.7583  -45.1047 C.3       12 UNK        -0.1800 
     72 C          -2.8417  -20.1778  -46.5567 C.2       12 UNK         0.5000 
     73 O          -3.8456  -19.5591  -46.9105 O.2       12 UNK        -0.5000 
     74 N          -2.8347  -21.4800  -46.2411 N.am      13 UNK        -0.5000 
     75 CA         -3.9911  -22.3713  -46.3274 C.3       13 UNK         0.1400 
     76 CB         -3.6117  -23.7348  -45.7313 C.3       13 UNK        -0.1800 
     77 C          -4.5326  -22.5408  -47.7608 C.2       13 UNK         0.5000 
     78 O          -5.7239  -22.8041  -47.9279 O.2       13 UNK        -0.5000 
     79 N          -3.6699  -22.3552  -48.7719 N.am      14 UNK        -0.5000 
     80 CA         -4.0347  -22.4303  -50.1865 C.3       14 UNK         0.1400 
     81 CB         -2.7823  -22.7085  -51.0299 C.3       14 UNK        -0.1800 
     82 C          -4.8073  -21.1961  -50.6972 C.2       14 UNK         0.5000 
     83 O          -5.3125  -21.2284  -51.8193 O.2       14 UNK        -0.5000 
     84 N          -4.9395  -20.1459  -49.8700 N.am      15 UNK        -0.5000 
     85 CA         -5.7631  -18.9658  -50.1562 C.3       15 UNK         0.1400 
     86 CB         -5.5060  -17.8908  -49.0919 C.3       15 UNK        -0.1800 
     87 C          -7.2709  -19.2756  -50.2582 C.2       15 UNK         0.5000 
     88 O          -8.0091  -18.4889  -50.8524 O.2       15 UNK        -0.5000 
     89 N          -7.7011  -20.4305  -49.7288 N.am      16 UNK        -0.5000 
     90 CA         -9.0461  -20.9958  -49.8506 C.3       16 UNK         0.1400 
     91 CB         -9.2355  -22.0416  -48.7374 C.3       16 UNK        -0.1800 
     92 C          -9.3231  -21.5685  -51.2623 C.2       16 UNK         0.5000 
     93 O          -9.7117  -22.7297  -51.3973 O.2       16 UNK        -0.5000 
     94 N          -9.1107  -20.7320  -52.2877 N.am      17 UNK        -0.5000 
     95 CA         -9.3612  -20.9504  -53.7169 C.3       17 UNK         0.1400 
     96 CB        -10.8706  -21.1378  -53.9773 C.3       17 UNK        -0.1800 
     97 C          -8.5128  -22.0581  -54.3811 C.2       17 UNK         0.5000 
     98 O          -8.8399  -22.4773  -55.4932 O.2       17 UNK        -0.5000 
     99 N          -7.4192  -22.4924  -53.7402 N.am      18 UNK        -0.5000 
    100 CA        -6.4896  -23.4890  -54.2730 C.3       18 UNK         0.1400 
    101 CB        -5.9957  -24.3930  -53.1313 C.3       18 UNK        -0.1800 
    102 C         -5.3445  -22.7781  -55.0141 C.2       18 UNK         0.5000 
    103 O         -4.1869  -22.8477  -54.5969 O.2       18 UNK        -0.5000 
    104 N         -5.6943  -22.0878  -56.1081 N.am      19 UNK        -0.5000 
    105 CA        -4.7984  -21.2546  -56.9167 C.3       19 UNK         0.1400 
    106 CB        -5.5968  -20.6277  -58.0689 C.3       19 UNK        -0.1800 
    107 C         -3.5580  -21.9925  -57.4569 C.2       19 UNK         0.5000 
    108 O         -2.4842  -21.3956  -57.5329 O.2       19 UNK        -0.5000 
    109 N         -3.7163  -23.2846  -57.7745 N.am      20 UNK        -0.5000 
    110 CA        -2.6412  -24.1723  -58.2212 C.3       20 UNK         0.1400 
    111 CB        -3.2583  -25.4750  -58.7525 C.3       20 UNK        -0.1800 
    112 C         -1.5979  -24.4776  -57.1268 C.2       20 UNK         0.5000 
    113 O         -0.4371  -24.7232  -57.4572 O.2       20 UNK        -0.5000 
    114 N         -2.0206  -24.4560  -55.8551 N.am      21 UNK        -0.5000 
    115 CA        -1.1488  -24.6263  -54.6933 C.3       21 UNK         0.1400 
    116 CB        -1.9293  -25.3186  -53.5647 C.3       21 UNK        -0.1800 
    117 C         -0.5701  -23.2794  -54.2255 C.2       21 UNK         0.5000 
    118 O          0.5907  -23.2319  -53.8171 O.2       21 UNK        -0.5000 
    119 N         -1.3795  -22.2140  -54.3032 N.am      22 UNK        -0.5000 
    120 CA        -0.9790  -20.8319  -54.0041 C.3       22 UNK         0.1400 
    121 C          0.0724  -20.2693  -55.0056 C.2       22 UNK         0.5000 
    122 N         -0.0945  -20.4711  -56.3070 N.am      22 UNK        -0.7600 
    123 O          1.0604  -19.6645  -54.5984 O.2       22 UNK        -0.5000 
    124 C124       -2.2213  -19.9120  -53.8732 C.3       23 UNK        -0.0398 
    125 S125       -1.8533  -18.2917  -53.1150 S.3       23 UNK        -0.2404 
    126 C126       -2.0099  -18.6691  -51.3440 C.3       23 UNK        -0.0205 
    127 H127       -6.8395  -18.1867  -44.0532 H         1 UNK         0.0600 
    128 H128       -6.0052  -18.8225  -45.4713 H         1 UNK         0.0600 
    129 H129       -7.4762  -17.8672  -45.6706 H         1 UNK         0.0600 
    130 H130       -4.2391  -17.6418  -46.1000 H         1 UNK         0.3000 
    131 H131       -4.1947  -14.7693  -46.1952 H         1 UNK         0.0600 
    132 H132       -1.6286  -16.3681  -46.4697 H         1 UNK         0.0800 
    133 H133       -2.8844  -16.6796  -47.6275 H         1 UNK         0.0800 
    134 H134        0.0912  -14.0891  -48.9405 H         1 UNK         0.0800 
    135 H135        0.2600  -14.9326  -47.4182 H         1 UNK         0.0800 
    136 H136       -2.1036  -16.3438  -49.9453 H         1 UNK         0.1150 
    137 H137        0.5394  -19.5334  -51.0058 H         1 UNK         0.1150 
    138 H138        1.9375  -16.3567  -48.4985 H         1 UNK         0.1150 
    139 H139        2.9649  -19.2074  -50.6144 H         1 UNK         0.0800 
    140 H140        3.5228  -17.8450  -49.6862 H         1 UNK         0.0800 
    141 H141        1.7860  -21.1543  -49.7457 H         1 UNK         0.0800 
    142 H142        3.0578  -21.9922  -48.9220 H         1 UNK         0.0800 
    143 H143        0.9587  -22.8372  -48.1161 H         1 UNK         0.0600 
    144 H144        2.8226  -21.7848  -46.3608 H         1 UNK         0.3000 
    145 H145        1.9801  -24.0753  -43.9249 H         1 UNK         0.0600 
    146 H146        4.3641  -23.5079  -43.8171 H         1 UNK         0.0600 
    147 H147        3.9199  -23.7396  -45.4970 H         1 UNK         0.0600 
    148 H148        4.1419  -22.1087  -44.8566 H         1 UNK         0.0600 
    149 H149        1.9253  -21.1751  -43.3479 H         1 UNK         0.3000 
    150 H150        1.4741  -21.7019  -39.9764 H         1 UNK         0.0600 
    151 H151        3.8789  -22.2955  -39.6424 H         1 UNK         0.0600 
    152 H152        3.5830  -20.6125  -39.2397 H         1 UNK         0.0600 
    153 H153        4.3585  -21.0286  -40.7671 H         1 UNK         0.0600 
    154 H154        2.6291  -19.4231  -41.3213 H         1 UNK         0.3000 
    155 H155       -0.4004  -18.1797  -42.6732 H         1 UNK         0.0600 
    156 H156        1.2563  -17.1941  -40.3112 H         1 UNK         0.0600 
    157 H157       -0.4872  -17.4146  -40.3328 H         1 UNK         0.0600 
    158 H158        0.2485  -16.1910  -41.3556 H         1 UNK         0.0600 
    159 H159        2.1009  -16.9844  -42.7254 H         1 UNK         0.3000 
    160 H160        3.6199  -18.7082  -45.4820 H         1 UNK         0.0600 
    161 H161        2.5560  -15.8748  -44.9810 H         1 UNK         0.0600 
    162 H162        2.0164  -16.9450  -46.2627 H         1 UNK         0.0600 
    163 H163        3.6797  -16.3758  -46.2433 H         1 UNK         0.0600 
    164 H164        4.4070  -16.6500  -43.5712 H         1 UNK         0.3000 
    165 H165        6.2896  -18.8192  -41.4960 H         1 UNK         0.0600 
    166 H166        8.1599  -17.2991  -42.0897 H         1 UNK         0.0600 
    167 H167        7.8643  -18.4316  -43.3991 H         1 UNK         0.0600 
    168 H168        7.3066  -16.7686  -43.5398 H         1 UNK         0.0600 
    169 H169        6.0084  -15.9750  -41.5870 H         1 UNK         0.3000 
    170 H170        3.0073  -15.7162  -39.7027 H         1 UNK         0.0600 
    171 H171        4.7841  -16.1063  -37.9915 H         1 UNK         0.0600 
    172 H172        5.9150  -15.1352  -38.9264 H         1 UNK         0.0600 
    173 H173        4.4800  -14.3918  -38.2195 H         1 UNK         0.0600 
    174 H174        4.8014  -13.7405  -40.6649 H         1 UNK         0.3000 
    175 H175        3.9031  -12.2860  -42.2876 H         1 UNK         0.0600 
    176 H176        4.8519  -14.2471  -44.4740 H         1 UNK         0.0600 
    177 H177        5.2258  -12.5269  -44.4151 H         1 UNK         0.0600 
    178 H178        5.8685  -13.6034  -43.1888 H         1 UNK         0.0600 
    179 H179        1.9340  -13.6977  -43.8111 H         1 UNK         0.3000 
    180 H180        0.5853  -10.7452  -45.2016 H         1 UNK         0.0600 
    181 H181        0.3529  -12.0792  -47.3001 H         1 UNK         0.0600 
    182 H182        1.6922  -13.1167  -46.7952 H         1 UNK         0.0600 
    183 H183        1.9705  -11.4165  -47.1385 H         1 UNK         0.0600 
    184 H184       -0.2652  -13.4861  -45.2566 H         1 UNK         0.3000 
    185 H185       -1.2635  -14.3133  -42.7013 H         1 UNK         0.0600 
    186 H186       -2.3907  -12.6044  -41.2891 H         1 UNK         0.0600 
    187 H187       -3.4117  -12.1241  -42.6414 H         1 UNK         0.0600 
    188 H188       -3.5726  -13.7293  -41.9310 H         1 UNK         0.0600 
    189 H189       -2.5283  -13.3886  -45.1776 H         1 UNK         0.3000 
    190 H190        0.3971  -20.2061  -45.9455 H         1 UNK         0.3000 
    191 H191       -1.5038  -18.6694  -47.2543 H         1 UNK         0.0600 
    192 H192       -1.2169  -19.4953  -44.3246 H         1 UNK         0.0600 
    193 H193       -2.3384  -18.2563  -44.8418 H         1 UNK         0.0600 
    194 H194       -0.6172  -18.0116  -45.0838 H         1 UNK         0.0600 
    195 H195       -1.9571  -21.8989  -45.9605 H         1 UNK         0.3000 
    196 H196       -4.7918  -21.9402  -45.7231 H         1 UNK         0.0600 
    197 H197       -4.4573  -24.4235  -45.7580 H         1 UNK         0.0600 
    198 H198       -3.3044  -23.6381  -44.6898 H         1 UNK         0.0600 
    199 H199       -2.7909  -24.1983  -46.2804 H         1 UNK         0.0600 
    200 H200       -2.7122  -22.0885  -48.5666 H         1 UNK         0.3000 
    201 H201       -4.7038  -23.2834  -50.3091 H         1 UNK         0.0600 
    202 H202       -3.0282  -22.7294  -52.0908 H         1 UNK         0.0600 
    203 H203       -2.3476  -23.6758  -50.7788 H         1 UNK         0.0600 
    204 H204       -2.0115  -21.9543  -50.8885 H         1 UNK         0.0600 
    205 H205       -4.5096  -20.1843  -48.9538 H         1 UNK         0.3000 
    206 H206       -5.4506  -18.5686  -51.1241 H         1 UNK         0.0600 
    207 H207       -4.4477  -17.6412  -49.0347 H         1 UNK         0.0600 
    208 H208       -6.0441  -16.9712  -49.3249 H         1 UNK         0.0600 
    209 H209       -5.8324  -18.2191  -48.1051 H         1 UNK         0.0600 
    210 H210       -7.0177  -21.0202  -49.2738 H         1 UNK         0.3000 
    211 H211       -9.7721  -20.1977  -49.6825 H         1 UNK         0.0600 
    212 H212       -8.5370  -22.8728  -48.8444 H         1 UNK         0.0600 
    213 H213      -10.2451  -22.4540  -48.7525 H         1 UNK         0.0600 
    214 H214       -9.0813  -21.6012  -47.7521 H         1 UNK         0.0600 
    215 H215       -8.7656  -19.8076  -52.0438 H         1 UNK         0.3000 
    216 H216       -9.0617  -20.0241  -54.2088 H         1 UNK         0.0600 
    217 H217      -11.0899  -21.1365  -55.0457 H         1 UNK         0.0600 
    218 H218      -11.4515  -20.3312  -53.5301 H         1 UNK         0.0600 
    219 H219      -11.2370  -22.0809  -53.5709 H         1 UNK         0.0600 
    220 H220       -7.1422  -22.0441  -52.8756 H         1 UNK         0.3000 
    221 H221       -6.9973  -24.1329  -54.9940 H         1 UNK         0.0600 
    222 H222       -5.4168  -23.8364  -52.3986 H         1 UNK         0.0600 
    223 H223       -6.8299  -24.8650  -52.6121 H         1 UNK         0.0600 
    224 H224       -5.3569  -25.1892  -53.5150 H         1 UNK         0.0600 
    225 H225       -6.6711  -22.0871  -56.3711 H         1 UNK         0.3000 
    226 H226       -4.4427  -20.4475  -56.2746 H         1 UNK         0.0600 
    227 H227       -6.4176  -20.0162  -57.6936 H         1 UNK         0.0600 
    228 H228       -4.9632  -19.9805  -58.6772 H         1 UNK         0.0600 
    229 H229       -6.0180  -21.3885  -58.7272 H         1 UNK         0.0600 
    230 H230       -4.6340  -23.6932  -57.6765 H         1 UNK         0.3000 
    231 H231       -2.1187  -23.6813  -59.0449 H         1 UNK         0.0600 
    232 H232       -2.4857  -26.1516  -59.1204 H         1 UNK         0.0600 
    233 H233       -3.9389  -25.2802  -59.5815 H         1 UNK         0.0600 
    234 H234       -3.8144  -26.0028  -57.9766 H         1 UNK         0.0600 
    235 H235       -2.9763  -24.1844  -55.6609 H         1 UNK         0.3000 
    236 H236       -0.3092  -25.2731  -54.9569 H         1 UNK         0.0600 
    237 H237       -2.2447  -26.3181  -53.8638 H         1 UNK         0.0600 
    238 H238       -1.3134  -25.4253  -52.6710 H         1 UNK         0.0600 
    239 H239       -2.8218  -24.7605  -53.2846 H         1 UNK         0.0600 
    240 H240       -2.3417  -22.3583  -54.5934 H         1 UNK         0.3000 
    241 H241       -0.4962  -20.8613  -53.0252 H         1 UNK         0.0600 
    242 H242        0.5938  -20.1161  -56.9508 H         1 UNK         0.3800 
    243 H243       -0.9290  -20.9250  -56.6726 H         1 UNK         0.3800 
    244 H244       -2.6648  -19.7366  -54.8537 H         1 UNK         0.0800 
    245 H245       -2.9973  -20.4014  -53.2826 H         1 UNK         0.0800 
    246 H246       -2.9859  -18.3344  -50.9943 H         1 UNK         0.0800 
    247 H247       -1.9747  -19.7436  -51.1754 H         1 UNK         0.0800 
@<TRIPOS>BOND
     1    1    2 1    
     2    1  127 1    
     3    1  128 1    
     4    1  129 1    
     5    2    3 2    
     6    2    4 am   BACKBONE|DICT|INTERRES
     7    4    5 1    
     8    4  130 1    
     9    5    6 1    
    10    5   65 1    
    11    5  131 1    
    12    6    7 1    
    13    6  132 1    
    14    6  133 1    
    15    7    8 1    
    16    8    9 1    
    17    8  134 1    
    18    8  135 1    
    19    9   10 ar   
    20    9   14 ar   
    21   10   11 ar   
    22   10  136 1    
    23   11   12 ar   
    24   11  126 1    
    25   12   13 ar   
    26   12  137 1    
    27   13   14 ar   
    28   13   15 1    
    29   14  138 1    
    30   15   16 1    
    31   15  139 1    
    32   15  140 1    
    33   16   17 1    
    34   17   18 1    
    35   17  141 1    
    36   17  142 1    
    37   18   19 1    
    38   18   67 1    
    39   18  143 1    
    40   19   20 am   BACKBONE|DICT|INTERRES
    41   19  144 1    
    42   20   21 2    
    43   20   22 1    
    44   22   23 1    
    45   22   24 1    
    46   22  145 1    
    47   23  146 1    
    48   23  147 1    
    49   23  148 1    
    50   24   25 am   BACKBONE|DICT|INTERRES
    51   24  149 1    
    52   25   26 2    
    53   25   27 1    
    54   27   28 1    
    55   27   29 1    
    56   27  150 1    
    57   28  151 1    
    58   28  152 1    
    59   28  153 1    
    60   29   30 am   BACKBONE|DICT|INTERRES
    61   29  154 1    
    62   30   31 2    
    63   30   32 1    
    64   32   33 1    
    65   32   34 1    
    66   32  155 1    
    67   33  156 1    
    68   33  157 1    
    69   33  158 1    
    70   34   35 am   BACKBONE|DICT|INTERRES
    71   34  159 1    
    72   35   36 2    
    73   35   37 1    
    74   37   38 1    
    75   37   39 1    
    76   37  160 1    
    77   38  161 1    
    78   38  162 1    
    79   38  163 1    
    80   39   40 am   BACKBONE|DICT|INTERRES
    81   39  164 1    
    82   40   41 2    
    83   40   42 1    
    84   42   43 1    
    85   42   44 1    
    86   42  165 1    
    87   43  166 1    
    88   43  167 1    
    89   43  168 1    
    90   44   45 am   BACKBONE|DICT|INTERRES
    91   44  169 1    
    92   45   46 2    
    93   45   47 1    
    94   47   48 1    
    95   47   49 1    
    96   47  170 1    
    97   48  171 1    
    98   48  172 1    
    99   48  173 1    
   100   49   50 am   BACKBONE|DICT|INTERRES
   101   49  174 1    
   102   50   51 2    
   103   50   52 1    
   104   52   53 1    
   105   52   54 1    
   106   52  175 1    
   107   53  176 1    
   108   53  177 1    
   109   53  178 1    
   110   54   55 am   BACKBONE|DICT|INTERRES
   111   54  179 1    
   112   55   56 2    
   113   55   57 1    
   114   57   58 1    
   115   57   59 1    
   116   57  180 1    
   117   58  181 1    
   118   58  182 1    
   119   58  183 1    
   120   59   60 am   BACKBONE|DICT|INTERRES
   121   59  184 1    
   122   60   61 2    
   123   60   62 1    
   124   62   63 1    
   125   62   64 1    
   126   62  185 1    
   127   63  186 1    
   128   63  187 1    
   129   63  188 1    
   130   64   65 am   BACKBONE|DICT|INTERRES
   131   64  189 1    
   132   65   66 2    
   133   67   68 2    
   134   67   69 am   BACKBONE|DICT|INTERRES
   135   69   70 1    
   136   69  190 1    
   137   70   71 1    
   138   70   72 1    
   139   70  191 1    
   140   71  192 1    
   141   71  193 1    
   142   71  194 1    
   143   72   73 2    
   144   72   74 am   BACKBONE|DICT|INTERRES
   145   74   75 1    
   146   74  195 1    
   147   75   76 1    
   148   75   77 1    
   149   75  196 1    
   150   76  197 1    
   151   76  198 1    
   152   76  199 1    
   153   77   78 2    
   154   77   79 am   BACKBONE|DICT|INTERRES
   155   79   80 1    
   156   79  200 1    
   157   80   81 1    
   158   80   82 1    
   159   80  201 1    
   160   81  202 1    
   161   81  203 1    
   162   81  204 1    
   163   82   83 2    
   164   82   84 am   BACKBONE|DICT|INTERRES
   165   84   85 1    
   166   84  205 1    
   167   85   86 1    
   168   85   87 1    
   169   85  206 1    
   170   86  207 1    
   171   86  208 1    
   172   86  209 1    
   173   87   88 2    
   174   87   89 am   BACKBONE|DICT|INTERRES
   175   89   90 1    
   176   89  210 1    
   177   90   91 1    
   178   90   92 1    
   179   90  211 1    
   180   91  212 1    
   181   91  213 1    
   182   91  214 1    
   183   92   93 2    
   184   92   94 am   BACKBONE|DICT|INTERRES
   185   94   95 1    
   186   94  215 1    
   187   95   96 1    
   188   95   97 1    
   189   95  216 1    
   190   96  217 1    
   191   96  218 1    
   192   96  219 1    
   193   97   98 2    
   194   97   99 am   BACKBONE|DICT|INTERRES
   195   99  100 1    
   196   99  220 1    
   197  100  101 1    
   198  100  102 1    
   199  100  221 1    
   200  101  222 1    
   201  101  223 1    
   202  101  224 1    
   203  102  103 2    
   204  102  104 am   BACKBONE|DICT|INTERRES
   205  104  105 1    
   206  104  225 1    
   207  105  106 1    
   208  105  107 1    
   209  105  226 1    
   210  106  227 1    
   211  106  228 1    
   212  106  229 1    
   213  107  108 2    
   214  107  109 am   BACKBONE|DICT|INTERRES
   215  109  110 1    
   216  109  230 1    
   217  110  111 1    
   218  110  112 1    
   219  110  231 1    
   220  111  232 1    
   221  111  233 1    
   222  111  234 1    
   223  112  113 2    
   224  112  114 am   BACKBONE|DICT|INTERRES
   225  114  115 1    
   226  114  235 1    
   227  115  116 1    
   228  115  117 1    
   229  115  236 1    
   230  116  237 1    
   231  116  238 1    
   232  116  239 1    
   233  117  118 2    
   234  117  119 am   BACKBONE|DICT|INTERRES
   235  119  120 1    
   236  119  240 1    
   237  120  121 1    
   238  120  124 1    
   239  120  241 1    
   240  121  122 am   BACKBONE|DICT|INTERRES
   241  121  123 2    
   242  122  242 1    
   243  122  243 1    
   244  124  125 1    
   245  124  244 1    
   246  124  245 1    
   247  125  126 1    
   248  126  246 1    
   249  126  247 1    
@<TRIPOS>SUBSTRUCTURE
     1 UNK         1 GROUP             0       ****    0 ROOT    
