@<TRIPOS>MOLECULE
3R540
247   249    1
SMALL
USER_CHARGES


@<TRIPOS>ATOM
      1 CA          6.8474  -10.7744  -49.1373 C.3       0 UNK        -0.1800 
      2 C           6.2314  -12.1380  -48.8567 C.2       0 UNK         0.5000 
      3 O           6.6769  -12.8360  -47.9458 O.2       0 UNK        -0.5000 
      4 N           5.2116  -12.5177  -49.6324 N.am      1 UNK        -0.5000 
      5 CA          4.4834  -13.7780  -49.5065 C.3       1 UNK         0.1400 
      6 C6          5.2243  -14.9624  -50.1832 C.3       23 UNK        -0.0398 
      7 S7          4.5275  -16.5841  -49.7106 S.3       23 UNK        -0.2404 
      8 C8          4.0070  -17.2291  -51.3313 C.3       23 UNK        -0.0205 
      9 C9          2.9191  -18.2798  -51.1847 C.ar      23 UNK        -0.0193 
     10 C10         1.5784  -17.9171  -51.3294 C.ar      23 UNK        -0.1150 
     11 C11         0.5606  -18.8705  -51.2063 C.ar      23 UNK        -0.0193 
     12 C12         0.9031  -20.1925  -50.9045 C.ar      23 UNK        -0.1150 
     13 C13         2.2409  -20.5693  -50.7460 C.ar      23 UNK        -0.0193 
     14 C14         3.2455  -19.6088  -50.9048 C.ar      23 UNK        -0.1150 
     15 C15         2.5969  -22.0171  -50.4274 C.3       23 UNK        -0.0205 
     16 S16         3.6596  -22.1869  -48.9546 S.3       23 UNK        -0.2404 
     17 C17         2.5247  -21.7395  -47.5984 C.3       23 UNK        -0.0398 
     18 CA          2.2054  -22.9475  -46.6853 C.3       11 UNK         0.1400 
     19 N           1.7927  -22.5151  -45.3473 N.am      11 UNK        -0.5000 
     20 C           1.6321  -23.3348  -44.2984 C.2       10 UNK         0.5000 
     21 O           1.9882  -24.5150  -44.2984 O.2       10 UNK        -0.5000 
     22 CA          0.9330  -22.7347  -43.0619 C.3       10 UNK         0.1400 
     23 CB          0.9620  -23.6602  -41.8279 C.3       10 UNK        -0.1800 
     24 N           1.4174  -21.3955  -42.7285 N.am      10 UNK        -0.5000 
     25 C           2.6504  -21.0342  -42.3461 C.2       9 UNK         0.5000 
     26 O           3.5811  -21.8253  -42.1879 O.2       9 UNK        -0.5000 
     27 CA          2.8963  -19.5296  -42.1046 C.3       9 UNK         0.1400 
     28 CB          3.8120  -18.9587  -43.1991 C.3       9 UNK        -0.1800 
     29 N           1.6668  -18.7332  -42.0559 N.am      9 UNK        -0.5000 
     30 C           0.7883  -18.7240  -41.0441 C.2       8 UNK         0.5000 
     31 O           0.9539  -19.3381  -39.9898 O.2       8 UNK        -0.5000 
     32 CA         -0.5141  -17.9293  -41.2663 C.3       8 UNK         0.1400 
     33 CB         -0.3168  -16.4463  -40.9186 C.3       8 UNK        -0.1800 
     34 N          -1.0314  -18.0488  -42.6329 N.am      8 UNK        -0.5000 
     35 C          -1.4809  -19.1881  -43.1806 C.2       7 UNK         0.5000 
     36 O          -1.5387  -20.2595  -42.5780 O.2       7 UNK        -0.5000 
     37 CA         -1.8813  -19.1389  -44.6654 C.3       7 UNK         0.1400 
     38 CB         -3.2867  -18.5427  -44.8396 C.3       7 UNK        -0.1800 
     39 N          -0.9162  -18.3908  -45.4708 N.am      7 UNK        -0.5000 
     40 C           0.3502  -18.7766  -45.6855 C.2       6 UNK         0.5000 
     41 O           0.8159  -19.8444  -45.2880 O.2       6 UNK        -0.5000 
     42 CA          1.2618  -17.7955  -46.4413 C.3       6 UNK         0.1400 
     43 CB          1.0754  -17.9402  -47.9536 C.3       6 UNK        -0.1800 
     44 N           1.0322  -16.4044  -46.0620 N.am      6 UNK        -0.5000 
     45 C           1.2463  -15.8954  -44.8426 C.2       5 UNK         0.5000 
     46 O           1.7061  -16.5407  -43.9027 O.2       5 UNK        -0.5000 
     47 CA          0.8190  -14.4351  -44.6240 C.3       5 UNK         0.1400 
     48 CB          1.8778  -13.4610  -45.1641 C.3       5 UNK        -0.1800 
     49 N          -0.4776  -14.1545  -45.2412 N.am      5 UNK        -0.5000 
     50 C          -1.6421  -14.6626  -44.8130 C.2       4 UNK         0.5000 
     51 O          -1.7476  -15.3913  -43.8262 O.2       4 UNK        -0.5000 
     52 CA         -2.8918  -14.3273  -45.6480 C.3       4 UNK         0.1400 
     53 CB         -3.4771  -12.9717  -45.2259 C.3       4 UNK        -0.1800 
     54 N          -2.6225  -14.3123  -47.0870 N.am      4 UNK        -0.5000 
     55 C          -2.3266  -15.4028  -47.8082 C.2       3 UNK         0.5000 
     56 O          -2.2680  -16.5374  -47.3357 O.2       3 UNK        -0.5000 
     57 CA         -1.9867  -15.1741  -49.2933 C.3       3 UNK         0.1400 
     58 CB         -3.2652  -15.0617  -50.1377 C.3       3 UNK        -0.1800 
     59 N          -1.1404  -13.9997  -49.5320 N.am      3 UNK        -0.5000 
     60 C           0.0808  -13.8331  -49.0090 C.2       2 UNK         0.5000 
     61 O           0.5839  -14.6118  -48.1974 O.2       2 UNK        -0.5000 
     62 CA          0.8499  -12.5630  -49.4168 C.3       2 UNK         0.1400 
     63 CB          0.4004  -11.3708  -48.5574 C.3       2 UNK        -0.1800 
     64 N           2.2904  -12.7513  -49.2404 N.am      2 UNK        -0.5000 
     65 C           3.0517  -13.5348  -50.0152 C.2       1 UNK         0.5000 
     66 O           2.6763  -14.0014  -51.0919 O.2       1 UNK        -0.5000 
     67 C           1.0954  -23.8313  -47.2884 C.2       11 UNK         0.5000 
     68 O          -0.0674  -23.4344  -47.2268 O.2       11 UNK        -0.5000 
     69 N           1.4548  -25.0015  -47.8337 N.am      12 UNK        -0.5000 
     70 CA          0.5451  -26.1021  -48.1849 C.3       12 UNK         0.1400 
     71 CB          1.3416  -27.2055  -48.8978 C.3       12 UNK        -0.1800 
     72 C          -0.6979  -25.7172  -49.0121 C.2       12 UNK         0.5000 
     73 O          -1.7964  -26.1816  -48.7074 O.2       12 UNK        -0.5000 
     74 N          -0.5092  -24.8517  -50.0163 N.am      13 UNK        -0.5000 
     75 CA         -1.5799  -24.3561  -50.8847 C.3       13 UNK         0.1400 
     76 CB         -0.9577  -23.7397  -52.1474 C.3       13 UNK        -0.1800 
     77 C          -2.5267  -23.3503  -50.1977 C.2       13 UNK         0.5000 
     78 O          -3.6761  -23.2346  -50.6187 O.2       13 UNK        -0.5000 
     79 N          -2.0365  -22.6495  -49.1670 N.am      14 UNK        -0.5000 
     80 CA         -2.7819  -21.6466  -48.4027 C.3       14 UNK         0.1400 
     81 CB         -1.8346  -20.4835  -48.0833 C.3       14 UNK        -0.1800 
     82 C          -3.3757  -22.2259  -47.1047 C.2       14 UNK         0.5000 
     83 O          -4.3322  -21.6708  -46.5662 O.2       14 UNK        -0.5000 
     84 N          -2.7990  -23.3311  -46.6175 N.am      15 UNK        -0.5000 
     85 CA         -3.2740  -24.1046  -45.4726 C.3       15 UNK         0.1400 
     86 CB         -2.1171  -24.9736  -44.9559 C.3       15 UNK        -0.1800 
     87 C          -4.4941  -24.9821  -45.8142 C.2       15 UNK         0.5000 
     88 O          -5.1913  -25.4287  -44.9020 O.2       15 UNK        -0.5000 
     89 N          -4.7384  -25.2159  -47.1113 N.am      16 UNK        -0.5000 
     90 CA         -5.8263  -26.0198  -47.6724 C.3       16 UNK         0.1400 
     91 CB         -5.4492  -26.3997  -49.1159 C.3       16 UNK        -0.1800 
     92 C          -7.2036  -25.3225  -47.5825 C.2       16 UNK         0.5000 
     93 O          -7.8773  -25.1443  -48.5998 O.2       16 UNK        -0.5000 
     94 N          -7.5918  -24.9397  -46.3586 N.am      17 UNK        -0.5000 
     95 CA         -8.8089  -24.2364  -45.9359 C.3       17 UNK         0.1400 
     96 CB        -10.0788  -25.0447  -46.2667 C.3       17 UNK        -0.1800 
     97 C          -8.9037  -22.7886  -46.4541 C.2       17 UNK         0.5000 
     98 O          -9.0108  -21.8631  -45.6484 O.2       17 UNK        -0.5000 
     99 N          -8.8559  -22.6167  -47.7779 N.am      18 UNK        -0.5000 
    100 CA        -8.7965  -21.3263  -48.4548 C.3       18 UNK         0.1400 
    101 CB        -9.4683  -21.4574  -49.8306 C.3       18 UNK        -0.1800 
    102 C         -7.3327  -20.8865  -48.6133 C.2       18 UNK         0.5000 
    103 O         -6.4640  -21.7297  -48.8409 O.2       18 UNK        -0.5000 
    104 N         -7.0977  -19.5694  -48.5421 N.am      19 UNK        -0.5000 
    105 CA        -5.7761  -18.9476  -48.6881 C.3       19 UNK         0.1400 
    106 CB        -5.8533  -17.4978  -48.1862 C.3       19 UNK        -0.1800 
    107 C         -5.2104  -19.0037  -50.1246 C.2       19 UNK         0.5000 
    108 O         -4.0052  -18.8284  -50.2936 O.2       19 UNK        -0.5000 
    109 N         -6.0881  -19.2683  -51.1057 N.am      20 UNK        -0.5000 
    110 CA        -5.8493  -19.4243  -52.5448 C.3       20 UNK         0.1400 
    111 CB        -4.7618  -20.4826  -52.8265 C.3       20 UNK        -0.1800 
    112 C         -5.5493  -18.1022  -53.2769 C.2       20 UNK         0.5000 
    113 O         -5.1650  -17.1023  -52.6678 O.2       20 UNK        -0.5000 
    114 N         -5.7250  -18.1315  -54.6035 N.am      21 UNK        -0.5000 
    115 CA        -5.4570  -17.0241  -55.5234 C.3       21 UNK         0.1400 
    116 CB        -6.4746  -17.0828  -56.6775 C.3       21 UNK        -0.1800 
    117 C         -3.9947  -17.0607  -56.0143 C.2       21 UNK         0.5000 
    118 O         -3.7381  -17.0332  -57.2193 O.2       21 UNK        -0.5000 
    119 N         -3.0600  -17.1556  -55.0634 N.am      22 UNK        -0.5000 
    120 CA        -1.6077  -17.2242  -55.2901 C.3       22 UNK         0.1400 
    121 C         -0.9322  -15.8760  -55.6841 C.2       22 UNK         0.5000 
    122 N         -1.6125  -14.7385  -55.6041 N.am      22 UNK        -0.7600 
    123 O          0.2271  -15.8653  -56.0891 O.2       22 UNK        -0.5000 
    124 C124       -0.8874  -17.9096  -54.1001 C.3       23 UNK        -0.0398 
    125 S125       -1.2471  -17.1208  -52.4932 S.3       23 UNK        -0.2404 
    126 C126       -0.9137  -18.4935  -51.3398 C.3       23 UNK        -0.0205 
    127 H127        6.3544  -10.2694  -49.9683 H         1 UNK         0.0600 
    128 H128        7.9034  -10.8836  -49.3844 H         1 UNK         0.0600 
    129 H129        6.7664  -10.1376  -48.2564 H         1 UNK         0.0600 
    130 H130        4.8727  -11.8974  -50.3560 H         1 UNK         0.3000 
    131 H131        4.3916  -14.0117  -48.4429 H         1 UNK         0.0600 
    132 H132        5.2427  -14.8440  -51.2675 H         1 UNK         0.0800 
    133 H133        6.2692  -14.9683  -49.8712 H         1 UNK         0.0800 
    134 H134        4.8705  -17.6506  -51.8478 H         1 UNK         0.0800 
    135 H135        3.6413  -16.4140  -51.9575 H         1 UNK         0.0800 
    136 H136        1.3334  -16.8830  -51.5267 H         1 UNK         0.1150 
    137 H137        0.1207  -20.9271  -50.7831 H         1 UNK         0.1150 
    138 H138        4.2825  -19.8919  -50.7909 H         1 UNK         0.1150 
    139 H139        1.6985  -22.6184  -50.2866 H         1 UNK         0.0800 
    140 H140        3.1194  -22.4410  -51.2858 H         1 UNK         0.0800 
    141 H141        1.6151  -21.2782  -47.9867 H         1 UNK         0.0800 
    142 H142        3.0249  -20.9604  -47.0211 H         1 UNK         0.0800 
    143 H143        3.1102  -23.5464  -46.5612 H         1 UNK         0.0600 
    144 H144        1.4447  -21.5607  -45.2726 H         1 UNK         0.3000 
    145 H145       -0.1126  -22.6070  -43.3450 H         1 UNK         0.0600 
    146 H146        0.4390  -23.2079  -40.9852 H         1 UNK         0.0600 
    147 H147        0.4702  -24.6098  -42.0422 H         1 UNK         0.0600 
    148 H148        1.9806  -23.8846  -41.5105 H         1 UNK         0.0600 
    149 H149        0.7389  -20.6554  -42.8512 H         1 UNK         0.3000 
    150 H150        3.4078  -19.4315  -41.1451 H         1 UNK         0.0600 
    151 H151        4.7614  -19.4941  -43.2365 H         1 UNK         0.0600 
    152 H152        4.0391  -17.9083  -43.0162 H         1 UNK         0.0600 
    153 H153        3.3525  -19.0361  -44.1847 H         1 UNK         0.0600 
    154 H154        1.4935  -18.1259  -42.8528 H         1 UNK         0.3000 
    155 H155       -1.2680  -18.3369  -40.5897 H         1 UNK         0.0600 
    156 H156        0.0387  -16.3292  -39.8942 H         1 UNK         0.0600 
    157 H157       -1.2529  -15.8940  -41.0036 H         1 UNK         0.0600 
    158 H158        0.4117  -15.9707  -41.5754 H         1 UNK         0.0600 
    159 H159       -1.0542  -17.1977  -43.1855 H         1 UNK         0.3000 
    160 H160       -1.9034  -20.1660  -45.0358 H         1 UNK         0.0600 
    161 H161       -3.6022  -18.5663  -45.8825 H         1 UNK         0.0600 
    162 H162       -3.3329  -17.5078  -44.5013 H         1 UNK         0.0600 
    163 H163       -4.0227  -19.1096  -44.2682 H         1 UNK         0.0600 
    164 H164       -1.2476  -17.5350  -45.9043 H         1 UNK         0.3000 
    165 H165        2.2973  -18.0423  -46.2001 H         1 UNK         0.0600 
    166 H166        1.7370  -17.2652  -48.4959 H         1 UNK         0.0600 
    167 H167        1.3068  -18.9531  -48.2794 H         1 UNK         0.0600 
    168 H168        0.0526  -17.7200  -48.2592 H         1 UNK         0.0600 
    169 H169        0.6995  -15.7837  -46.7974 H         1 UNK         0.3000 
    170 H170        0.7259  -14.2710  -43.5483 H         1 UNK         0.0600 
    171 H171        1.5909  -12.4253  -44.9817 H         1 UNK         0.0600 
    172 H172        2.8384  -13.6232  -44.6737 H         1 UNK         0.0600 
    173 H173        2.0356  -13.5825  -46.2354 H         1 UNK         0.0600 
    174 H174       -0.4685  -13.6185  -46.0954 H         1 UNK         0.3000 
    175 H175       -3.6399  -15.0979  -45.4502 H         1 UNK         0.0600 
    176 H176       -3.7042  -12.9607  -44.1589 H         1 UNK         0.0600 
    177 H177       -2.7839  -12.1529  -45.4227 H         1 UNK         0.0600 
    178 H178       -4.4058  -12.7611  -45.7566 H         1 UNK         0.0600 
    179 H179       -2.6422  -13.4159  -47.5501 H         1 UNK         0.3000 
    180 H180       -1.4262  -16.0446  -49.6340 H         1 UNK         0.0600 
    181 H181       -3.8608  -15.9720  -50.0650 H         1 UNK         0.0600 
    182 H182       -3.8920  -14.2283  -49.8189 H         1 UNK         0.0600 
    183 H183       -3.0322  -14.9223  -51.1934 H         1 UNK         0.0600 
    184 H184       -1.4973  -13.3120  -50.1793 H         1 UNK         0.3000 
    185 H185        0.6450  -12.3455  -50.4672 H         1 UNK         0.0600 
    186 H186       -0.6655  -11.1758  -48.6816 H         1 UNK         0.0600 
    187 H187        0.5805  -11.5467  -47.4960 H         1 UNK         0.0600 
    188 H188        0.9296  -10.4605  -48.8400 H         1 UNK         0.0600 
    189 H189        2.6839  -12.3969  -48.3814 H         1 UNK         0.3000 
    190 H190        2.4387  -25.2271  -47.8640 H         1 UNK         0.3000 
    191 H191        0.1789  -26.5128  -47.2419 H         1 UNK         0.0600 
    192 H192        2.1368  -27.5932  -48.2608 H         1 UNK         0.0600 
    193 H193        1.7969  -26.8412  -49.8195 H         1 UNK         0.0600 
    194 H194        0.6987  -28.0473  -49.1590 H         1 UNK         0.0600 
    195 H195        0.4261  -24.5223  -50.1999 H         1 UNK         0.3000 
    196 H196       -2.1881  -25.2089  -51.1946 H         1 UNK         0.0600 
    197 H197       -1.7295  -23.3617  -52.8195 H         1 UNK         0.0600 
    198 H198       -0.2953  -22.9084  -51.9098 H         1 UNK         0.0600 
    199 H199       -0.3802  -24.4793  -52.7023 H         1 UNK         0.0600 
    200 H200       -1.1107  -22.8717  -48.8190 H         1 UNK         0.3000 
    201 H201       -3.6068  -21.2641  -49.0054 H         1 UNK         0.0600 
    202 H202       -2.3739  -19.6588  -47.6182 H         1 UNK         0.0600 
    203 H203       -1.0350  -20.7897  -47.4085 H         1 UNK         0.0600 
    204 H204       -1.3746  -20.0922  -48.9874 H         1 UNK         0.0600 
    205 H205       -1.9329  -23.6439  -47.0452 H         1 UNK         0.3000 
    206 H206       -3.5691  -23.4140  -44.6799 H         1 UNK         0.0600 
    207 H207       -1.2586  -24.3631  -44.6792 H         1 UNK         0.0600 
    208 H208       -2.4143  -25.5376  -44.0709 H         1 UNK         0.0600 
    209 H209       -1.7870  -25.6903  -45.7089 H         1 UNK         0.0600 
    210 H210       -4.1112  -24.7950  -47.7814 H         1 UNK         0.3000 
    211 H211       -5.9000  -26.9439  -47.0956 H         1 UNK         0.0600 
    212 H212       -6.2075  -27.0421  -49.5651 H         1 UNK         0.0600 
    213 H213       -4.5054  -26.9446  -49.1467 H         1 UNK         0.0600 
    214 H214       -5.3461  -25.5169  -49.7486 H         1 UNK         0.0600 
    215 H215       -6.9196  -25.1109  -45.6148 H         1 UNK         0.3000 
    216 H216       -8.7433  -24.1737  -44.8485 H         1 UNK         0.0600 
    217 H217      -10.9656  -24.5536  -45.8645 H         1 UNK         0.0600 
    218 H218      -10.0342  -26.0425  -45.8302 H         1 UNK         0.0600 
    219 H219      -10.2296  -25.1558  -47.3406 H         1 UNK         0.0600 
    220 H220       -8.6540  -23.4373  -48.3432 H         1 UNK         0.3000 
    221 H221       -9.3388  -20.5784  -47.8723 H         1 UNK         0.0600 
    222 H222       -8.9572  -22.1877  -50.4598 H         1 UNK         0.0600 
    223 H223      -10.5079  -21.7703  -49.7325 H         1 UNK         0.0600 
    224 H224       -9.4646  -20.5049  -50.3616 H         1 UNK         0.0600 
    225 H225       -7.8687  -18.9425  -48.3614 H         1 UNK         0.3000 
    226 H226       -5.0787  -19.4858  -48.0437 H         1 UNK         0.0600 
    227 H227       -4.8667  -17.0360  -48.1905 H         1 UNK         0.0600 
    228 H228       -6.5070  -16.8877  -48.8107 H         1 UNK         0.0600 
    229 H229       -6.2215  -17.4519  -47.1611 H         1 UNK         0.0600 
    230 H230       -7.0524  -19.3629  -50.8252 H         1 UNK         0.3000 
    231 H231       -6.7893  -19.8026  -52.9495 H         1 UNK         0.0600 
    232 H232       -4.9641  -21.4079  -52.2869 H         1 UNK         0.0600 
    233 H233       -3.7691  -20.1370  -52.5372 H         1 UNK         0.0600 
    234 H234       -4.7184  -20.7304  -53.8873 H         1 UNK         0.0600 
    235 H235       -6.0113  -18.9985  -55.0354 H         1 UNK         0.3000 
    236 H236       -5.5999  -16.0732  -55.0058 H         1 UNK         0.0600 
    237 H237       -7.4972  -17.0280  -56.3035 H         1 UNK         0.0600 
    238 H238       -6.3376  -16.2462  -57.3640 H         1 UNK         0.0600 
    239 H239       -6.3777  -18.0029  -57.2552 H         1 UNK         0.0600 
    240 H240       -3.3531  -17.1507  -54.0941 H         1 UNK         0.3000 
    241 H241       -1.4555  -17.8729  -56.1549 H         1 UNK         0.0600 
    242 H242       -1.1677  -13.8740  -55.8695 H         1 UNK         0.3800 
    243 H243       -2.5619  -14.7329  -55.2689 H         1 UNK         0.3800 
    244 H244       -1.2013  -18.9530  -54.0499 H         1 UNK         0.0800 
    245 H245        0.1934  -17.9334  -54.2506 H         1 UNK         0.0800 
    246 H246       -1.5037  -19.3590  -51.6449 H         1 UNK         0.0800 
    247 H247       -1.2844  -18.2097  -50.3559 H         1 UNK         0.0800 
@<TRIPOS>BOND
     1    1    2 1    
     2    1  127 1    
     3    1  128 1    
     4    1  129 1    
     5    2    3 2    
     6    2    4 am   BACKBONE|DICT|INTERRES
     7    4    5 1    
     8    4  130 1    
     9    5    6 1    
    10    5   65 1    
    11    5  131 1    
    12    6    7 1    
    13    6  132 1    
    14    6  133 1    
    15    7    8 1    
    16    8    9 1    
    17    8  134 1    
    18    8  135 1    
    19    9   10 ar   
    20    9   14 ar   
    21   10   11 ar   
    22   10  136 1    
    23   11   12 ar   
    24   11  126 1    
    25   12   13 ar   
    26   12  137 1    
    27   13   14 ar   
    28   13   15 1    
    29   14  138 1    
    30   15   16 1    
    31   15  139 1    
    32   15  140 1    
    33   16   17 1    
    34   17   18 1    
    35   17  141 1    
    36   17  142 1    
    37   18   19 1    
    38   18   67 1    
    39   18  143 1    
    40   19   20 am   BACKBONE|DICT|INTERRES
    41   19  144 1    
    42   20   21 2    
    43   20   22 1    
    44   22   23 1    
    45   22   24 1    
    46   22  145 1    
    47   23  146 1    
    48   23  147 1    
    49   23  148 1    
    50   24   25 am   BACKBONE|DICT|INTERRES
    51   24  149 1    
    52   25   26 2    
    53   25   27 1    
    54   27   28 1    
    55   27   29 1    
    56   27  150 1    
    57   28  151 1    
    58   28  152 1    
    59   28  153 1    
    60   29   30 am   BACKBONE|DICT|INTERRES
    61   29  154 1    
    62   30   31 2    
    63   30   32 1    
    64   32   33 1    
    65   32   34 1    
    66   32  155 1    
    67   33  156 1    
    68   33  157 1    
    69   33  158 1    
    70   34   35 am   BACKBONE|DICT|INTERRES
    71   34  159 1    
    72   35   36 2    
    73   35   37 1    
    74   37   38 1    
    75   37   39 1    
    76   37  160 1    
    77   38  161 1    
    78   38  162 1    
    79   38  163 1    
    80   39   40 am   BACKBONE|DICT|INTERRES
    81   39  164 1    
    82   40   41 2    
    83   40   42 1    
    84   42   43 1    
    85   42   44 1    
    86   42  165 1    
    87   43  166 1    
    88   43  167 1    
    89   43  168 1    
    90   44   45 am   BACKBONE|DICT|INTERRES
    91   44  169 1    
    92   45   46 2    
    93   45   47 1    
    94   47   48 1    
    95   47   49 1    
    96   47  170 1    
    97   48  171 1    
    98   48  172 1    
    99   48  173 1    
   100   49   50 am   BACKBONE|DICT|INTERRES
   101   49  174 1    
   102   50   51 2    
   103   50   52 1    
   104   52   53 1    
   105   52   54 1    
   106   52  175 1    
   107   53  176 1    
   108   53  177 1    
   109   53  178 1    
   110   54   55 am   BACKBONE|DICT|INTERRES
   111   54  179 1    
   112   55   56 2    
   113   55   57 1    
   114   57   58 1    
   115   57   59 1    
   116   57  180 1    
   117   58  181 1    
   118   58  182 1    
   119   58  183 1    
   120   59   60 am   BACKBONE|DICT|INTERRES
   121   59  184 1    
   122   60   61 2    
   123   60   62 1    
   124   62   63 1    
   125   62   64 1    
   126   62  185 1    
   127   63  186 1    
   128   63  187 1    
   129   63  188 1    
   130   64   65 am   BACKBONE|DICT|INTERRES
   131   64  189 1    
   132   65   66 2    
   133   67   68 2    
   134   67   69 am   BACKBONE|DICT|INTERRES
   135   69   70 1    
   136   69  190 1    
   137   70   71 1    
   138   70   72 1    
   139   70  191 1    
   140   71  192 1    
   141   71  193 1    
   142   71  194 1    
   143   72   73 2    
   144   72   74 am   BACKBONE|DICT|INTERRES
   145   74   75 1    
   146   74  195 1    
   147   75   76 1    
   148   75   77 1    
   149   75  196 1    
   150   76  197 1    
   151   76  198 1    
   152   76  199 1    
   153   77   78 2    
   154   77   79 am   BACKBONE|DICT|INTERRES
   155   79   80 1    
   156   79  200 1    
   157   80   81 1    
   158   80   82 1    
   159   80  201 1    
   160   81  202 1    
   161   81  203 1    
   162   81  204 1    
   163   82   83 2    
   164   82   84 am   BACKBONE|DICT|INTERRES
   165   84   85 1    
   166   84  205 1    
   167   85   86 1    
   168   85   87 1    
   169   85  206 1    
   170   86  207 1    
   171   86  208 1    
   172   86  209 1    
   173   87   88 2    
   174   87   89 am   BACKBONE|DICT|INTERRES
   175   89   90 1    
   176   89  210 1    
   177   90   91 1    
   178   90   92 1    
   179   90  211 1    
   180   91  212 1    
   181   91  213 1    
   182   91  214 1    
   183   92   93 2    
   184   92   94 am   BACKBONE|DICT|INTERRES
   185   94   95 1    
   186   94  215 1    
   187   95   96 1    
   188   95   97 1    
   189   95  216 1    
   190   96  217 1    
   191   96  218 1    
   192   96  219 1    
   193   97   98 2    
   194   97   99 am   BACKBONE|DICT|INTERRES
   195   99  100 1    
   196   99  220 1    
   197  100  101 1    
   198  100  102 1    
   199  100  221 1    
   200  101  222 1    
   201  101  223 1    
   202  101  224 1    
   203  102  103 2    
   204  102  104 am   BACKBONE|DICT|INTERRES
   205  104  105 1    
   206  104  225 1    
   207  105  106 1    
   208  105  107 1    
   209  105  226 1    
   210  106  227 1    
   211  106  228 1    
   212  106  229 1    
   213  107  108 2    
   214  107  109 am   BACKBONE|DICT|INTERRES
   215  109  110 1    
   216  109  230 1    
   217  110  111 1    
   218  110  112 1    
   219  110  231 1    
   220  111  232 1    
   221  111  233 1    
   222  111  234 1    
   223  112  113 2    
   224  112  114 am   BACKBONE|DICT|INTERRES
   225  114  115 1    
   226  114  235 1    
   227  115  116 1    
   228  115  117 1    
   229  115  236 1    
   230  116  237 1    
   231  116  238 1    
   232  116  239 1    
   233  117  118 2    
   234  117  119 am   BACKBONE|DICT|INTERRES
   235  119  120 1    
   236  119  240 1    
   237  120  121 1    
   238  120  124 1    
   239  120  241 1    
   240  121  122 am   BACKBONE|DICT|INTERRES
   241  121  123 2    
   242  122  242 1    
   243  122  243 1    
   244  124  125 1    
   245  124  244 1    
   246  124  245 1    
   247  125  126 1    
   248  126  246 1    
   249  126  247 1    
@<TRIPOS>SUBSTRUCTURE
     1 UNK         1 GROUP             0       ****    0 ROOT    
