@<TRIPOS>MOLECULE
3R540
247   249    1
SMALL
USER_CHARGES


@<TRIPOS>ATOM
      1 CA         -2.7691  -15.8073  -46.6199 C.3       0 UNK        -0.1800 
      2 C          -2.0305  -15.0097  -47.6818 C.2       0 UNK         0.5000 
      3 O          -2.5753  -14.0431  -48.2146 O.2       0 UNK        -0.5000 
      4 N          -0.7968  -15.4249  -48.0002 N.am      1 UNK        -0.5000 
      5 CA          0.0461  -14.8213  -49.0392 C.3       1 UNK         0.1400 
      6 C6          1.2774  -15.6966  -49.3769 C.3       23 UNK        -0.0398 
      7 S7          0.8130  -17.2743  -50.1634 S.3       23 UNK        -0.2404 
      8 C8          2.3821  -18.1837  -50.0422 C.3       23 UNK        -0.0205 
      9 C9          2.4865  -19.2647  -51.1075 C.ar      23 UNK        -0.0193 
     10 C10         3.3178  -19.0797  -52.2155 C.ar      23 UNK        -0.1150 
     11 C11         3.4499  -20.0797  -53.1834 C.ar      23 UNK        -0.0193 
     12 C12         2.7365  -21.2727  -53.0412 C.ar      23 UNK        -0.1150 
     13 C13         1.9055  -21.4720  -51.9348 C.ar      23 UNK        -0.0193 
     14 C14         1.7761  -20.4606  -50.9769 C.ar      23 UNK        -0.1150 
     15 C15         1.1475  -22.7803  -51.7768 C.3       23 UNK        -0.0205 
     16 S16         2.1866  -24.1198  -51.0980 S.3       23 UNK        -0.2404 
     17 C17         2.6097  -23.5373  -49.4163 C.3       23 UNK        -0.0398 
     18 CA          1.6058  -24.0083  -48.3344 C.3       11 UNK         0.1400 
     19 N           2.1972  -24.0347  -46.9962 N.am      11 UNK        -0.5000 
     20 C           1.6088  -24.5623  -45.9110 C.2       10 UNK         0.5000 
     21 O           0.5277  -25.1511  -45.9308 O.2       10 UNK        -0.5000 
     22 CA          2.3210  -24.3205  -44.5658 C.3       10 UNK         0.1400 
     23 CB          3.3784  -25.4038  -44.3074 C.3       10 UNK        -0.1800 
     24 N           2.9468  -22.9952  -44.4940 N.am      10 UNK        -0.5000 
     25 C           2.2675  -21.8453  -44.5849 C.2       9 UNK         0.5000 
     26 O           1.0352  -21.7860  -44.6788 O.2       9 UNK        -0.5000 
     27 CA          3.0960  -20.5543  -44.6474 C.3       9 UNK         0.1400 
     28 CB          3.8020  -20.4110  -46.0090 C.3       9 UNK        -0.1800 
     29 N           2.1614  -19.4599  -44.4609 N.am      9 UNK        -0.5000 
     30 C           2.4168  -18.2070  -44.0823 C.2       8 UNK         0.5000 
     31 O           3.5472  -17.7572  -43.8976 O.2       8 UNK        -0.5000 
     32 CA          1.1793  -17.3118  -43.8649 C.3       8 UNK         0.1400 
     33 CB          0.9206  -16.4464  -45.1081 C.3       8 UNK        -0.1800 
     34 N          -0.0355  -18.0808  -43.5650 N.am      8 UNK        -0.5000 
     35 C          -0.2461  -18.7824  -42.4427 C.2       7 UNK         0.5000 
     36 O           0.5361  -18.7907  -41.4914 O.2       7 UNK        -0.5000 
     37 CA         -1.5539  -19.5978  -42.3858 C.3       7 UNK         0.1400 
     38 CB         -1.7293  -20.3577  -41.0593 C.3       7 UNK        -0.1800 
     39 N          -2.7371  -18.7658  -42.6133 N.am      7 UNK        -0.5000 
     40 C          -3.1867  -18.3895  -43.8164 C.2       6 UNK         0.5000 
     41 O          -2.6013  -18.6401  -44.8695 O.2       6 UNK        -0.5000 
     42 CA         -4.4830  -17.5755  -43.8406 C.3       6 UNK         0.1400 
     43 CB         -5.6481  -18.3184  -43.1600 C.3       6 UNK        -0.1800 
     44 N          -4.2719  -16.2690  -43.2248 N.am      6 UNK        -0.5000 
     45 C          -4.9527  -15.1632  -43.5541 C.2       5 UNK         0.5000 
     46 O          -5.8628  -15.1479  -44.3838 O.2       5 UNK        -0.5000 
     47 CA         -4.5689  -13.8469  -42.8475 C.3       5 UNK         0.1400 
     48 CB         -5.6265  -13.4784  -41.7949 C.3       5 UNK        -0.1800 
     49 N          -3.2530  -13.8648  -42.2032 N.am      5 UNK        -0.5000 
     50 C          -2.0807  -13.8614  -42.8490 C.2       4 UNK         0.5000 
     51 O          -1.9674  -13.8855  -44.0774 O.2       4 UNK        -0.5000 
     52 CA         -0.8272  -13.8491  -41.9644 C.3       4 UNK         0.1400 
     53 CB         -0.6900  -15.1628  -41.1734 C.3       4 UNK        -0.1800 
     54 N           0.3385  -13.6450  -42.8161 N.am      4 UNK        -0.5000 
     55 C           1.5209  -13.1676  -42.4178 C.2       3 UNK         0.5000 
     56 O           1.7853  -12.9002  -41.2447 O.2       3 UNK        -0.5000 
     57 CA          2.5982  -12.9438  -43.4983 C.3       3 UNK         0.1400 
     58 CB          3.6761  -14.0357  -43.4190 C.3       3 UNK        -0.1800 
     59 N           2.1018  -12.8652  -44.8783 N.am      3 UNK        -0.5000 
     60 C           1.3751  -11.8487  -45.3669 C.2       2 UNK         0.5000 
     61 O           0.8961  -10.9510  -44.6742 O.2       2 UNK        -0.5000 
     62 CA          1.1896  -11.8104  -46.8903 C.3       2 UNK         0.1400 
     63 CB          2.4893  -11.2910  -47.5451 C.3       2 UNK        -0.1800 
     64 N           0.7985  -13.1232  -47.4154 N.am      2 UNK        -0.5000 
     65 C           0.4837  -13.3815  -48.6940 C.2       1 UNK         0.5000 
     66 O           0.5120  -12.5390  -49.5923 O.2       1 UNK        -0.5000 
     67 C           0.3195  -23.1622  -48.3594 C.2       11 UNK         0.5000 
     68 O          -0.6845  -23.6282  -48.8865 O.2       11 UNK        -0.5000 
     69 N           0.3545  -21.9551  -47.7723 N.am      12 UNK        -0.5000 
     70 CA         -0.7839  -21.0304  -47.7233 C.3       12 UNK         0.1400 
     71 CB         -0.3379  -19.6788  -47.1486 C.3       12 UNK        -0.1800 
     72 C          -1.9753  -21.5951  -46.9298 C.2       12 UNK         0.5000 
     73 O          -3.1194  -21.4362  -47.3596 O.2       12 UNK        -0.5000 
     74 N          -1.6750  -22.2872  -45.8216 N.am      13 UNK        -0.5000 
     75 CA         -2.6436  -23.0289  -45.0174 C.3       13 UNK         0.1400 
     76 CB         -1.9651  -23.5407  -43.7368 C.3       13 UNK        -0.1800 
     77 C          -3.2868  -24.1863  -45.8055 C.2       13 UNK         0.5000 
     78 O          -4.5145  -24.2770  -45.8543 O.2       13 UNK        -0.5000 
     79 N          -2.4505  -25.0207  -46.4431 N.am      14 UNK        -0.5000 
     80 CA         -2.8707  -26.1472  -47.2845 C.3       14 UNK         0.1400 
     81 CB         -1.6374  -26.9687  -47.6883 C.3       14 UNK        -0.1800 
     82 C          -3.6644  -25.7146  -48.5331 C.2       14 UNK         0.5000 
     83 O          -4.5978  -26.4082  -48.9366 O.2       14 UNK        -0.5000 
     84 N          -3.3048  -24.5529  -49.0909 N.am      15 UNK        -0.5000 
     85 CA         -3.9456  -23.8892  -50.2243 C.3       15 UNK         0.1400 
     86 CB         -2.9352  -22.9184  -50.8580 C.3       15 UNK        -0.1800 
     87 C          -5.2612  -23.1636  -49.8754 C.2       15 UNK         0.5000 
     88 O          -5.7552  -22.4128  -50.7174 O.2       15 UNK        -0.5000 
     89 N          -5.7984  -23.3850  -48.6657 N.am      16 UNK        -0.5000 
     90 CA         -7.0662  -22.8689  -48.1446 C.3       16 UNK         0.1400 
     91 CB         -8.2580  -23.4228  -48.9541 C.3       16 UNK        -0.1800 
     92 C          -7.0621  -21.3335  -48.0445 C.2       16 UNK         0.5000 
     93 O          -7.8572  -20.6628  -48.7040 O.2       16 UNK        -0.5000 
     94 N          -6.1313  -20.8160  -47.2308 N.am      17 UNK        -0.5000 
     95 CA         -5.8550  -19.3935  -47.0033 C.3       17 UNK         0.1400 
     96 CB         -7.0705  -18.6752  -46.3772 C.3       17 UNK        -0.1800 
     97 C          -5.3255  -18.7049  -48.2758 C.2       17 UNK         0.5000 
     98 O          -5.7712  -17.6130  -48.6307 O.2       17 UNK        -0.5000 
     99 N          -4.3801  -19.3873  -48.9366 N.am      18 UNK        -0.5000 
    100 CA        -3.6844  -18.9916  -50.1630 C.3       18 UNK         0.1400 
    101 CB        -2.8022  -17.7534  -49.9118 C.3       18 UNK        -0.1800 
    102 C         -4.5959  -18.8244  -51.3979 C.2       18 UNK         0.5000 
    103 O         -4.2244  -18.1162  -52.3343 O.2       18 UNK        -0.5000 
    104 N         -5.7516  -19.5024  -51.4172 N.am      19 UNK        -0.5000 
    105 CA        -6.6710  -19.5210  -52.5575 C.3       19 UNK         0.1400 
    106 CB        -8.0116  -20.1348  -52.1270 C.3       19 UNK        -0.1800 
    107 C         -6.0855  -20.2735  -53.7681 C.2       19 UNK         0.5000 
    108 O         -6.2999  -19.8564  -54.9065 O.2       19 UNK        -0.5000 
    109 N         -5.3341  -21.3465  -53.4910 N.am      20 UNK        -0.5000 
    110 CA        -4.6420  -22.1796  -54.4771 C.3       20 UNK         0.1400 
    111 CB        -4.9857  -23.6530  -54.1946 C.3       20 UNK        -0.1800 
    112 C         -3.1153  -21.9391  -54.4905 C.2       20 UNK         0.5000 
    113 O         -2.3752  -22.7947  -54.9791 O.2       20 UNK        -0.5000 
    114 N         -2.6551  -20.8034  -53.9424 N.am      21 UNK        -0.5000 
    115 CA        -1.2453  -20.3971  -53.9398 C.3       21 UNK         0.1400 
    116 CB        -1.0378  -19.2796  -52.9063 C.3       21 UNK        -0.1800 
    117 C         -0.7524  -19.9571  -55.3331 C.2       21 UNK         0.5000 
    118 O         -1.5572  -19.7720  -56.2499 O.2       21 UNK        -0.5000 
    119 N          0.5699  -19.7897  -55.4635 N.am      22 UNK        -0.5000 
    120 CA         1.2446  -19.4250  -56.7207 C.3       22 UNK         0.1400 
    121 C          0.9811  -17.9803  -57.2483 C.2       22 UNK         0.5000 
    122 N          0.3882  -17.0823  -56.4708 N.am      22 UNK        -0.7600 
    123 O          1.3117  -17.6747  -58.3911 O.2       22 UNK        -0.5000 
    124 C124        2.7559  -19.7720  -56.6778 C.3       23 UNK        -0.0398 
    125 S125        3.7546  -18.7048  -55.5767 S.3       23 UNK        -0.2404 
    126 C126        4.4049  -19.8805  -54.3499 C.3       23 UNK        -0.0205 
    127 H127       -3.5128  -15.1806  -46.1292 H         1 UNK         0.0600 
    128 H128       -2.0851  -16.1755  -45.8567 H         1 UNK         0.0600 
    129 H129       -3.2819  -16.6582  -47.0674 H         1 UNK         0.0600 
    130 H130       -0.4249  -16.2535  -47.5627 H         1 UNK         0.3000 
    131 H131       -0.5639  -14.7494  -49.9429 H         1 UNK         0.0600 
    132 H132        1.9416  -15.1762  -50.0701 H         1 UNK         0.0800 
    133 H133        1.8645  -15.8981  -48.4791 H         1 UNK         0.0800 
    134 H134        2.4694  -18.6299  -49.0508 H         1 UNK         0.0800 
    135 H135        3.2160  -17.4865  -50.1381 H         1 UNK         0.0800 
    136 H136        3.8756  -18.1598  -52.3219 H         1 UNK         0.1150 
    137 H137        2.8438  -22.0568  -53.7778 H         1 UNK         0.1150 
    138 H138        1.1297  -20.6032  -50.1235 H         1 UNK         0.1150 
    139 H139        0.2625  -22.6348  -51.1591 H         1 UNK         0.0800 
    140 H140        0.7748  -23.0993  -52.7512 H         1 UNK         0.0800 
    141 H141        2.7541  -22.4572  -49.3994 H         1 UNK         0.0800 
    142 H142        3.5925  -23.9578  -49.1989 H         1 UNK         0.0800 
    143 H143        1.3220  -25.0381  -48.5638 H         1 UNK         0.0600 
    144 H144        3.0876  -23.5748  -46.8804 H         1 UNK         0.3000 
    145 H145        1.5677  -24.3807  -43.7773 H         1 UNK         0.0600 
    146 H146        3.8324  -25.2846  -43.3236 H         1 UNK         0.0600 
    147 H147        2.9325  -26.3989  -44.3397 H         1 UNK         0.0600 
    148 H148        4.1755  -25.3768  -45.0514 H         1 UNK         0.0600 
    149 H149        3.9534  -22.9722  -44.4134 H         1 UNK         0.3000 
    150 H150        3.8256  -20.5577  -43.8353 H         1 UNK         0.0600 
    151 H151        4.4994  -21.2311  -46.1822 H         1 UNK         0.0600 
    152 H152        4.3773  -19.4864  -46.0589 H         1 UNK         0.0600 
    153 H153        3.0895  -20.4013  -46.8347 H         1 UNK         0.0600 
    154 H154        1.1966  -19.7585  -44.5290 H         1 UNK         0.3000 
    155 H155        1.3914  -16.6543  -43.0195 H         1 UNK         0.0600 
    156 H156        0.6551  -17.0593  -45.9695 H         1 UNK         0.0600 
    157 H157        1.8060  -15.8713  -45.3794 H         1 UNK         0.0600 
    158 H158        0.1114  -15.7387  -44.9314 H         1 UNK         0.0600 
    159 H159       -0.7536  -18.1216  -44.2811 H         1 UNK         0.3000 
    160 H160       -1.4904  -20.3418  -43.1828 H         1 UNK         0.0600 
    161 H161       -2.6304  -20.9712  -41.0737 H         1 UNK         0.0600 
    162 H162       -1.7991  -19.6767  -40.2103 H         1 UNK         0.0600 
    163 H163       -0.8877  -21.0275  -40.8776 H         1 UNK         0.0600 
    164 H164       -3.2613  -18.5058  -41.7907 H         1 UNK         0.3000 
    165 H165       -4.7334  -17.4295  -44.8925 H         1 UNK         0.0600 
    166 H166       -6.5938  -17.8044  -43.3327 H         1 UNK         0.0600 
    167 H167       -5.7527  -19.3302  -43.5536 H         1 UNK         0.0600 
    168 H168       -5.5083  -18.3966  -42.0816 H         1 UNK         0.0600 
    169 H169       -3.5166  -16.1932  -42.5596 H         1 UNK         0.3000 
    170 H170       -4.5608  -13.0645  -43.6096 H         1 UNK         0.0600 
    171 H171       -6.6198  -13.4171  -42.2418 H         1 UNK         0.0600 
    172 H172       -5.6723  -14.2182  -40.9947 H         1 UNK         0.0600 
    173 H173       -5.4154  -12.5080  -41.3453 H         1 UNK         0.0600 
    174 H174       -3.2539  -13.8470  -41.1933 H         1 UNK         0.3000 
    175 H175       -0.9113  -13.0097  -41.2710 H         1 UNK         0.0600 
    176 H176       -0.7245  -16.0252  -41.8350 H         1 UNK         0.0600 
    177 H177        0.2468  -15.2044  -40.6177 H         1 UNK         0.0600 
    178 H178       -1.4970  -15.2747  -40.4490 H         1 UNK         0.0600 
    179 H179        0.1539  -13.7661  -43.8030 H         1 UNK         0.3000 
    180 H180        3.0770  -11.9895  -43.2683 H         1 UNK         0.0600 
    181 H181        3.2713  -15.0198  -43.6501 H         1 UNK         0.0600 
    182 H182        4.1078  -14.0886  -42.4186 H         1 UNK         0.0600 
    183 H183        4.4938  -13.8368  -44.1119 H         1 UNK         0.0600 
    184 H184        2.4973  -13.5280  -45.5280 H         1 UNK         0.3000 
    185 H185        0.3828  -11.1066  -47.1049 H         1 UNK         0.0600 
    186 H186        2.8438  -10.3858  -47.0499 H         1 UNK         0.0600 
    187 H187        3.2906  -12.0286  -47.4905 H         1 UNK         0.0600 
    188 H188        2.3436  -11.0332  -48.5933 H         1 UNK         0.0600 
    189 H189        0.6625  -13.8537  -46.7326 H         1 UNK         0.3000 
    190 H190        1.1941  -21.6665  -47.2959 H         1 UNK         0.3000 
    191 H191       -1.1175  -20.8623  -48.7490 H         1 UNK         0.0600 
    192 H192       -0.0404  -19.7659  -46.1056 H         1 UNK         0.0600 
    193 H193       -1.1512  -18.9541  -47.1891 H         1 UNK         0.0600 
    194 H194        0.4988  -19.2623  -47.7079 H         1 UNK         0.0600 
    195 H195       -0.7045  -22.3319  -45.5285 H         1 UNK         0.3000 
    196 H196       -3.4369  -22.3361  -44.7285 H         1 UNK         0.0600 
    197 H197       -2.6775  -24.0706  -43.1036 H         1 UNK         0.0600 
    198 H198       -1.5554  -22.7206  -43.1487 H         1 UNK         0.0600 
    199 H199       -1.1479  -24.2276  -43.9578 H         1 UNK         0.0600 
    200 H200       -1.4494  -24.8837  -46.3446 H         1 UNK         0.3000 
    201 H201       -3.5232  -26.7843  -46.6842 H         1 UNK         0.0600 
    202 H202       -1.1135  -27.3498  -46.8115 H         1 UNK         0.0600 
    203 H203       -0.9305  -26.3734  -48.2673 H         1 UNK         0.0600 
    204 H204       -1.9209  -27.8280  -48.2973 H         1 UNK         0.0600 
    205 H205       -2.4636  -24.1005  -48.7404 H         1 UNK         0.3000 
    206 H206       -4.1966  -24.6496  -50.9655 H         1 UNK         0.0600 
    207 H207       -2.0703  -23.4536  -51.2493 H         1 UNK         0.0600 
    208 H208       -3.3700  -22.3662  -51.6864 H         1 UNK         0.0600 
    209 H209       -2.5814  -22.1855  -50.1347 H         1 UNK         0.0600 
    210 H210       -5.2792  -23.9742  -48.0277 H         1 UNK         0.3000 
    211 H211       -7.1588  -23.2488  -47.1259 H         1 UNK         0.0600 
    212 H212       -8.2523  -23.0705  -49.9860 H         1 UNK         0.0600 
    213 H213       -9.2051  -23.1137  -48.5107 H         1 UNK         0.0600 
    214 H214       -8.2479  -24.5125  -48.9728 H         1 UNK         0.0600 
    215 H215       -5.4715  -21.4552  -46.8064 H         1 UNK         0.3000 
    216 H216       -5.0396  -19.3612  -46.2803 H         1 UNK         0.0600 
    217 H217       -6.8147  -17.6567  -46.0835 H         1 UNK         0.0600 
    218 H218       -7.4211  -19.1943  -45.4857 H         1 UNK         0.0600 
    219 H219       -7.9071  -18.6054  -47.0726 H         1 UNK         0.0600 
    220 H220       -4.0718  -20.2619  -48.5186 H         1 UNK         0.3000 
    221 H221       -3.0210  -19.8226  -50.3989 H         1 UNK         0.0600 
    222 H222       -3.4009  -16.8667  -49.7039 H         1 UNK         0.0600 
    223 H223       -2.1297  -17.9128  -49.0708 H         1 UNK         0.0600 
    224 H224       -2.1813  -17.5242  -50.7776 H         1 UNK         0.0600 
    225 H225       -5.9853  -20.1051  -50.6381 H         1 UNK         0.3000 
    226 H226       -6.8547  -18.4889  -52.8632 H         1 UNK         0.0600 
    227 H227       -8.7246  -20.1343  -52.9523 H         1 UNK         0.0600 
    228 H228       -7.8961  -21.1664  -51.7932 H         1 UNK         0.0600 
    229 H229       -8.4586  -19.5688  -51.3096 H         1 UNK         0.0600 
    230 H230       -5.2713  -21.6388  -52.5205 H         1 UNK         0.3000 
    231 H231       -4.9993  -21.9454  -55.4816 H         1 UNK         0.0600 
    232 H232       -6.0643  -23.8107  -54.1848 H         1 UNK         0.0600 
    233 H233       -4.5916  -23.9813  -53.2338 H         1 UNK         0.0600 
    234 H234       -4.5718  -24.3092  -54.9612 H         1 UNK         0.0600 
    235 H235       -3.3249  -20.1198  -53.6198 H         1 UNK         0.3000 
    236 H236       -0.6445  -21.2560  -53.6365 H         1 UNK         0.0600 
    237 H237       -1.2661  -19.6303  -51.9014 H         1 UNK         0.0600 
    238 H238       -0.0026  -18.9371  -52.8881 H         1 UNK         0.0600 
    239 H239       -1.6616  -18.4116  -53.1194 H         1 UNK         0.0600 
    240 H240        1.1717  -19.9141  -54.6617 H         1 UNK         0.3000 
    241 H241        0.8127  -20.0749  -57.4846 H         1 UNK         0.0600 
    242 H242        0.2181  -16.1540  -56.8243 H         1 UNK         0.3800 
    243 H243        0.1118  -17.3219  -55.5330 H         1 UNK         0.3800 
    244 H244        2.8819  -20.8172  -56.3931 H         1 UNK         0.0800 
    245 H245        3.1789  -19.6963  -57.6809 H         1 UNK         0.0800 
    246 H246        4.6494  -20.8303  -54.8279 H         1 UNK         0.0800 
    247 H247        5.3485  -19.4900  -53.9660 H         1 UNK         0.0800 
@<TRIPOS>BOND
     1    1    2 1    
     2    1  127 1    
     3    1  128 1    
     4    1  129 1    
     5    2    3 2    
     6    2    4 am   BACKBONE|DICT|INTERRES
     7    4    5 1    
     8    4  130 1    
     9    5    6 1    
    10    5   65 1    
    11    5  131 1    
    12    6    7 1    
    13    6  132 1    
    14    6  133 1    
    15    7    8 1    
    16    8    9 1    
    17    8  134 1    
    18    8  135 1    
    19    9   10 ar   
    20    9   14 ar   
    21   10   11 ar   
    22   10  136 1    
    23   11   12 ar   
    24   11  126 1    
    25   12   13 ar   
    26   12  137 1    
    27   13   14 ar   
    28   13   15 1    
    29   14  138 1    
    30   15   16 1    
    31   15  139 1    
    32   15  140 1    
    33   16   17 1    
    34   17   18 1    
    35   17  141 1    
    36   17  142 1    
    37   18   19 1    
    38   18   67 1    
    39   18  143 1    
    40   19   20 am   BACKBONE|DICT|INTERRES
    41   19  144 1    
    42   20   21 2    
    43   20   22 1    
    44   22   23 1    
    45   22   24 1    
    46   22  145 1    
    47   23  146 1    
    48   23  147 1    
    49   23  148 1    
    50   24   25 am   BACKBONE|DICT|INTERRES
    51   24  149 1    
    52   25   26 2    
    53   25   27 1    
    54   27   28 1    
    55   27   29 1    
    56   27  150 1    
    57   28  151 1    
    58   28  152 1    
    59   28  153 1    
    60   29   30 am   BACKBONE|DICT|INTERRES
    61   29  154 1    
    62   30   31 2    
    63   30   32 1    
    64   32   33 1    
    65   32   34 1    
    66   32  155 1    
    67   33  156 1    
    68   33  157 1    
    69   33  158 1    
    70   34   35 am   BACKBONE|DICT|INTERRES
    71   34  159 1    
    72   35   36 2    
    73   35   37 1    
    74   37   38 1    
    75   37   39 1    
    76   37  160 1    
    77   38  161 1    
    78   38  162 1    
    79   38  163 1    
    80   39   40 am   BACKBONE|DICT|INTERRES
    81   39  164 1    
    82   40   41 2    
    83   40   42 1    
    84   42   43 1    
    85   42   44 1    
    86   42  165 1    
    87   43  166 1    
    88   43  167 1    
    89   43  168 1    
    90   44   45 am   BACKBONE|DICT|INTERRES
    91   44  169 1    
    92   45   46 2    
    93   45   47 1    
    94   47   48 1    
    95   47   49 1    
    96   47  170 1    
    97   48  171 1    
    98   48  172 1    
    99   48  173 1    
   100   49   50 am   BACKBONE|DICT|INTERRES
   101   49  174 1    
   102   50   51 2    
   103   50   52 1    
   104   52   53 1    
   105   52   54 1    
   106   52  175 1    
   107   53  176 1    
   108   53  177 1    
   109   53  178 1    
   110   54   55 am   BACKBONE|DICT|INTERRES
   111   54  179 1    
   112   55   56 2    
   113   55   57 1    
   114   57   58 1    
   115   57   59 1    
   116   57  180 1    
   117   58  181 1    
   118   58  182 1    
   119   58  183 1    
   120   59   60 am   BACKBONE|DICT|INTERRES
   121   59  184 1    
   122   60   61 2    
   123   60   62 1    
   124   62   63 1    
   125   62   64 1    
   126   62  185 1    
   127   63  186 1    
   128   63  187 1    
   129   63  188 1    
   130   64   65 am   BACKBONE|DICT|INTERRES
   131   64  189 1    
   132   65   66 2    
   133   67   68 2    
   134   67   69 am   BACKBONE|DICT|INTERRES
   135   69   70 1    
   136   69  190 1    
   137   70   71 1    
   138   70   72 1    
   139   70  191 1    
   140   71  192 1    
   141   71  193 1    
   142   71  194 1    
   143   72   73 2    
   144   72   74 am   BACKBONE|DICT|INTERRES
   145   74   75 1    
   146   74  195 1    
   147   75   76 1    
   148   75   77 1    
   149   75  196 1    
   150   76  197 1    
   151   76  198 1    
   152   76  199 1    
   153   77   78 2    
   154   77   79 am   BACKBONE|DICT|INTERRES
   155   79   80 1    
   156   79  200 1    
   157   80   81 1    
   158   80   82 1    
   159   80  201 1    
   160   81  202 1    
   161   81  203 1    
   162   81  204 1    
   163   82   83 2    
   164   82   84 am   BACKBONE|DICT|INTERRES
   165   84   85 1    
   166   84  205 1    
   167   85   86 1    
   168   85   87 1    
   169   85  206 1    
   170   86  207 1    
   171   86  208 1    
   172   86  209 1    
   173   87   88 2    
   174   87   89 am   BACKBONE|DICT|INTERRES
   175   89   90 1    
   176   89  210 1    
   177   90   91 1    
   178   90   92 1    
   179   90  211 1    
   180   91  212 1    
   181   91  213 1    
   182   91  214 1    
   183   92   93 2    
   184   92   94 am   BACKBONE|DICT|INTERRES
   185   94   95 1    
   186   94  215 1    
   187   95   96 1    
   188   95   97 1    
   189   95  216 1    
   190   96  217 1    
   191   96  218 1    
   192   96  219 1    
   193   97   98 2    
   194   97   99 am   BACKBONE|DICT|INTERRES
   195   99  100 1    
   196   99  220 1    
   197  100  101 1    
   198  100  102 1    
   199  100  221 1    
   200  101  222 1    
   201  101  223 1    
   202  101  224 1    
   203  102  103 2    
   204  102  104 am   BACKBONE|DICT|INTERRES
   205  104  105 1    
   206  104  225 1    
   207  105  106 1    
   208  105  107 1    
   209  105  226 1    
   210  106  227 1    
   211  106  228 1    
   212  106  229 1    
   213  107  108 2    
   214  107  109 am   BACKBONE|DICT|INTERRES
   215  109  110 1    
   216  109  230 1    
   217  110  111 1    
   218  110  112 1    
   219  110  231 1    
   220  111  232 1    
   221  111  233 1    
   222  111  234 1    
   223  112  113 2    
   224  112  114 am   BACKBONE|DICT|INTERRES
   225  114  115 1    
   226  114  235 1    
   227  115  116 1    
   228  115  117 1    
   229  115  236 1    
   230  116  237 1    
   231  116  238 1    
   232  116  239 1    
   233  117  118 2    
   234  117  119 am   BACKBONE|DICT|INTERRES
   235  119  120 1    
   236  119  240 1    
   237  120  121 1    
   238  120  124 1    
   239  120  241 1    
   240  121  122 am   BACKBONE|DICT|INTERRES
   241  121  123 2    
   242  122  242 1    
   243  122  243 1    
   244  124  125 1    
   245  124  244 1    
   246  124  245 1    
   247  125  126 1    
   248  126  246 1    
   249  126  247 1    
@<TRIPOS>SUBSTRUCTURE
     1 UNK         1 GROUP             0       ****    0 ROOT    
