@<TRIPOS>MOLECULE
3R540
247   249    1
SMALL
USER_CHARGES


@<TRIPOS>ATOM
      1 CA          4.3490  -12.0799  -53.4346 C.3       0 UNK        -0.1800 
      2 C           3.6783  -11.8277  -52.0915 C.2       0 UNK         0.5000 
      3 O           2.8521  -10.9214  -51.9790 O.2       0 UNK        -0.5000 
      4 N           4.0375  -12.6173  -51.0730 N.am      1 UNK        -0.5000 
      5 CA          3.4439  -12.5883  -49.7337 C.3       1 UNK         0.1400 
      6 C6          4.3452  -13.2987  -48.6878 C.3       23 UNK        -0.0398 
      7 S7          4.8362  -15.0055  -49.1301 S.3       23 UNK        -0.2404 
      8 C8          3.6277  -15.9655  -48.1704 C.3       23 UNK        -0.0205 
      9 C9          3.4229  -17.3520  -48.7523 C.ar      23 UNK        -0.0193 
     10 C10         2.6391  -17.5126  -49.8984 C.ar      23 UNK        -0.1150 
     11 C11         2.4172  -18.7825  -50.4354 C.ar      23 UNK        -0.0193 
     12 C12         3.0019  -19.8941  -49.8249 C.ar      23 UNK        -0.1150 
     13 C13         3.7736  -19.7498  -48.6673 C.ar      23 UNK        -0.0193 
     14 C14         3.9843  -18.4740  -48.1359 C.ar      23 UNK        -0.1150 
     15 C15         4.3645  -20.9776  -47.9875 C.3       23 UNK        -0.0205 
     16 S16         3.2926  -21.6091  -46.6545 S.3       23 UNK        -0.2404 
     17 C17         1.7365  -21.8904  -47.5618 C.3       23 UNK        -0.0398 
     18 CA          0.7503  -22.8338  -46.8403 C.3       11 UNK         0.1400 
     19 N           0.3125  -22.3177  -45.5402 N.am      11 UNK        -0.5000 
     20 C          -0.4602  -22.9916  -44.6761 C.2       10 UNK         0.5000 
     21 O          -0.8469  -24.1465  -44.8563 O.2       10 UNK        -0.5000 
     22 CA         -0.9302  -22.2268  -43.4286 C.3       10 UNK         0.1400 
     23 CB          0.1744  -22.1664  -42.3626 C.3       10 UNK        -0.1800 
     24 N          -1.3790  -20.8751  -43.7609 N.am      10 UNK        -0.5000 
     25 C          -2.4966  -20.6008  -44.4489 C.2       9 UNK         0.5000 
     26 O          -3.2806  -21.4596  -44.8503 O.2       9 UNK        -0.5000 
     27 CA         -2.7697  -19.1207  -44.7704 C.3       9 UNK         0.1400 
     28 CB         -3.4886  -18.4346  -43.5989 C.3       9 UNK        -0.1800 
     29 N          -1.5558  -18.3723  -45.0909 N.am      9 UNK        -0.5000 
     30 C          -0.7751  -18.6030  -46.1555 C.2       8 UNK         0.5000 
     31 O          -0.9773  -19.4891  -46.9830 O.2       8 UNK        -0.5000 
     32 CA          0.4756  -17.7186  -46.2751 C.3       8 UNK         0.1400 
     33 CB          0.0779  -16.3319  -46.7969 C.3       8 UNK        -0.1800 
     34 N           1.2088  -17.5714  -45.0129 N.am      8 UNK        -0.5000 
     35 C           1.6947  -18.5899  -44.2841 C.2       7 UNK         0.5000 
     36 O           1.4759  -19.7723  -44.5482 O.2       7 UNK        -0.5000 
     37 CA          2.5168  -18.2457  -43.0256 C.3       7 UNK         0.1400 
     38 CB          3.6248  -19.2820  -42.7430 C.3       7 UNK        -0.1800 
     39 N           3.0492  -16.8794  -43.0111 N.am      7 UNK        -0.5000 
     40 C           3.9924  -16.3464  -43.8053 C.2       6 UNK         0.5000 
     41 O           4.5750  -16.9737  -44.6894 O.2       6 UNK        -0.5000 
     42 CA          4.3371  -14.8564  -43.5883 C.3       6 UNK         0.1400 
     43 CB          4.2745  -14.0710  -44.9093 C.3       6 UNK        -0.1800 
     44 N           3.4318  -14.2214  -42.6294 N.am      6 UNK        -0.5000 
     45 C           3.6822  -14.0388  -41.3253 C.2       5 UNK         0.5000 
     46 O           4.7564  -14.3127  -40.7899 O.2       5 UNK        -0.5000 
     47 CA          2.5275  -13.4823  -40.4648 C.3       5 UNK         0.1400 
     48 CB          2.6816  -11.9650  -40.2795 C.3       5 UNK        -0.1800 
     49 N           1.1999  -13.7584  -41.0217 N.am      5 UNK        -0.5000 
     50 C           0.6578  -14.9768  -41.1638 C.2       4 UNK         0.5000 
     51 O           1.1964  -16.0117  -40.7738 O.2       4 UNK        -0.5000 
     52 CA         -0.6687  -15.0611  -41.9441 C.3       4 UNK         0.1400 
     53 CB         -1.8674  -15.0412  -40.9852 C.3       4 UNK        -0.1800 
     54 N          -0.8212  -13.9931  -42.9381 N.am      4 UNK        -0.5000 
     55 C          -0.0335  -13.8342  -44.0092 C.2       3 UNK         0.5000 
     56 O           0.9070  -14.5853  -44.2840 O.2       3 UNK        -0.5000 
     57 CA         -0.2986  -12.5992  -44.8769 C.3       3 UNK         0.1400 
     58 CB          0.5826  -11.4284  -44.4120 C.3       3 UNK        -0.1800 
     59 N           0.0133  -12.9086  -46.2696 N.am      3 UNK        -0.5000 
     60 C          -0.7578  -12.5886  -47.3163 C.2       2 UNK         0.5000 
     61 O          -1.8063  -11.9488  -47.2179 O.2       2 UNK        -0.5000 
     62 CA         -0.2468  -13.0270  -48.7005 C.3       2 UNK         0.1400 
     63 CB         -1.1002  -12.4772  -49.8637 C.3       2 UNK        -0.1800 
     64 N           1.1526  -12.6287  -48.8547 N.am      2 UNK        -0.5000 
     65 C           2.0043  -13.1526  -49.7438 C.2       1 UNK         0.5000 
     66 O           1.6995  -14.0562  -50.5264 O.2       1 UNK        -0.5000 
     67 C          -0.4488  -23.1305  -47.7624 C.2       11 UNK         0.5000 
     68 O          -0.5067  -24.2084  -48.3527 O.2       11 UNK        -0.5000 
     69 N          -1.3946  -22.1847  -47.8437 N.am      12 UNK        -0.5000 
     70 CA         -2.6204  -22.2925  -48.6319 C.3       12 UNK         0.1400 
     71 CB         -3.3549  -20.9454  -48.5992 C.3       12 UNK        -0.1800 
     72 C          -3.5332  -23.4396  -48.1615 C.2       12 UNK         0.5000 
     73 O          -4.0632  -24.1718  -48.9965 O.2       12 UNK        -0.5000 
     74 N          -3.6696  -23.6065  -46.8380 N.am      13 UNK        -0.5000 
     75 CA         -4.4021  -24.7112  -46.2182 C.3       13 UNK         0.1400 
     76 CB         -4.5495  -24.4575  -44.7108 C.3       13 UNK        -0.1800 
     77 C          -3.7491  -26.0805  -46.4805 C.2       13 UNK         0.5000 
     78 O          -4.4626  -27.0397  -46.7747 O.2       13 UNK        -0.5000 
     79 N          -2.4121  -26.1432  -46.3956 N.am      14 UNK        -0.5000 
     80 CA         -1.6192  -27.3425  -46.6738 C.3       14 UNK         0.1400 
     81 CB         -0.1718  -27.1230  -46.2076 C.3       14 UNK        -0.1800 
     82 C          -1.6598  -27.7575  -48.1567 C.2       14 UNK         0.5000 
     83 O          -1.7620  -28.9494  -48.4504 O.2       14 UNK        -0.5000 
     84 N          -1.5966  -26.7705  -49.0607 N.am      15 UNK        -0.5000 
     85 CA         -1.6977  -26.9568  -50.5099 C.3       15 UNK         0.1400 
     86 CB         -1.2350  -25.6704  -51.2116 C.3       15 UNK        -0.1800 
     87 C          -3.1144  -27.3418  -50.9814 C.2       15 UNK         0.5000 
     88 O          -3.2413  -27.9941  -52.0188 O.2       15 UNK        -0.5000 
     89 N          -4.1310  -26.9302  -50.2092 N.am      16 UNK        -0.5000 
     90 CA         -5.5733  -27.0157  -50.4587 C.3       16 UNK         0.1400 
     91 CB         -6.0242  -28.4595  -50.7624 C.3       16 UNK        -0.1800 
     92 C          -6.0472  -26.0161  -51.5337 C.2       16 UNK         0.5000 
     93 O          -5.2335  -25.4399  -52.2598 O.2       16 UNK        -0.5000 
     94 N          -7.3731  -25.8048  -51.5838 N.am      17 UNK        -0.5000 
     95 CA         -8.0693  -24.7798  -52.3773 C.3       17 UNK         0.1400 
     96 CB         -7.9643  -25.0747  -53.8886 C.3       17 UNK        -0.1800 
     97 C          -7.5924  -23.3615  -51.9974 C.2       17 UNK         0.5000 
     98 O          -7.2270  -22.5656  -52.8630 O.2       17 UNK        -0.5000 
     99 N          -7.5759  -23.0991  -50.6823 N.am      18 UNK        -0.5000 
    100 CA        -6.8991  -21.9776  -50.0231 C.3       18 UNK         0.1400 
    101 CB        -7.0194  -22.1623  -48.5014 C.3       18 UNK        -0.1800 
    102 C         -7.3509  -20.5598  -50.4303 C.2       18 UNK         0.5000 
    103 O         -6.6595  -19.5953  -50.1015 O.2       18 UNK        -0.5000 
    104 N         -8.4890  -20.4481  -51.1260 N.am      19 UNK        -0.5000 
    105 CA        -8.9807  -19.2048  -51.7179 C.3       19 UNK         0.1400 
    106 CB       -10.4693  -19.3742  -52.0594 C.3       19 UNK        -0.1800 
    107 C         -8.1867  -18.7710  -52.9684 C.2       19 UNK         0.5000 
    108 O         -8.1945  -17.5837  -53.2974 O.2       19 UNK        -0.5000 
    109 N         -7.5349  -19.7216  -53.6536 N.am      20 UNK        -0.5000 
    110 CA        -6.7049  -19.4659  -54.8294 C.3       20 UNK         0.1400 
    111 CB        -6.6304  -20.7439  -55.6793 C.3       20 UNK        -0.1800 
    112 C         -5.2940  -19.0131  -54.4175 C.2       20 UNK         0.5000 
    113 O         -4.7605  -19.5045  -53.4194 O.2       20 UNK        -0.5000 
    114 N         -4.7043  -18.1132  -55.2183 N.am      21 UNK        -0.5000 
    115 CA        -3.3646  -17.5356  -55.0581 C.3       21 UNK         0.1400 
    116 CB        -2.2843  -18.5936  -55.3826 C.3       21 UNK        -0.1800 
    117 C         -3.1957  -16.8576  -53.6804 C.2       21 UNK         0.5000 
    118 O         -3.8948  -15.8814  -53.4035 O.2       21 UNK        -0.5000 
    119 N         -2.2957  -17.3884  -52.8457 N.am      22 UNK        -0.5000 
    120 CA        -2.0997  -16.9989  -51.4411 C.3       22 UNK         0.1400 
    121 C         -3.2144  -17.4788  -50.4618 C.2       22 UNK         0.5000 
    122 N         -4.1592  -18.3118  -50.8811 N.am      22 UNK        -0.7600 
    123 O         -3.2335  -17.0615  -49.3072 O.2       22 UNK        -0.5000 
    124 C124       -0.6787  -17.3714  -50.9421 C.3       23 UNK        -0.0398 
    125 S125       -0.2164  -19.1198  -51.2230 S.3       23 UNK        -0.2404 
    126 C126        1.5434  -18.9608  -51.6684 C.3       23 UNK        -0.0205 
    127 H127        5.0625  -12.9028  -53.3832 H         1 UNK         0.0600 
    128 H128        4.8824  -11.1874  -53.7618 H         1 UNK         0.0600 
    129 H129        3.6000  -12.3263  -54.1872 H         1 UNK         0.0600 
    130 H130        4.6919  -13.3704  -51.2319 H         1 UNK         0.3000 
    131 H131        3.3750  -11.5393  -49.4366 H         1 UNK         0.0600 
    132 H132        5.2645  -12.7238  -48.5686 H         1 UNK         0.0800 
    133 H133        3.8761  -13.2896  -47.7033 H         1 UNK         0.0800 
    134 H134        3.9496  -16.0268  -47.1312 H         1 UNK         0.0800 
    135 H135        2.6726  -15.4458  -48.1713 H         1 UNK         0.0800 
    136 H136        2.1989  -16.6450  -50.3685 H         1 UNK         0.1150 
    137 H137        2.8357  -20.8774  -50.2411 H         1 UNK         0.1150 
    138 H138        4.5735  -18.3567  -47.2366 H         1 UNK         0.1150 
    139 H139        4.5368  -21.7695  -48.7180 H         1 UNK         0.0800 
    140 H140        5.3416  -20.7326  -47.5688 H         1 UNK         0.0800 
    141 H141        1.9917  -22.3066  -48.5378 H         1 UNK         0.0800 
    142 H142        1.2702  -20.9208  -47.7468 H         1 UNK         0.0800 
    143 H143        1.2615  -23.7814  -46.6578 H         1 UNK         0.0600 
    144 H144        0.6219  -21.3802  -45.2974 H         1 UNK         0.3000 
    145 H145       -1.7771  -22.7701  -43.0038 H         1 UNK         0.0600 
    146 H146       -0.1712  -21.6547  -41.4643 H         1 UNK         0.0600 
    147 H147        0.4819  -23.1702  -42.0670 H         1 UNK         0.0600 
    148 H148        1.0622  -21.6479  -42.7240 H         1 UNK         0.0600 
    149 H149       -0.7497  -20.1192  -43.5356 H         1 UNK         0.3000 
    150 H150       -3.4251  -19.0856  -45.6432 H         1 UNK         0.0600 
    151 H151       -4.4112  -18.9593  -43.3470 H         1 UNK         0.0600 
    152 H152       -3.7578  -17.4079  -43.8477 H         1 UNK         0.0600 
    153 H153       -2.8687  -18.4112  -42.7016 H         1 UNK         0.0600 
    154 H154       -1.2953  -17.6311  -44.4589 H         1 UNK         0.3000 
    155 H155        1.1511  -18.1842  -46.9955 H         1 UNK         0.0600 
    156 H156        0.9329  -15.6620  -46.8359 H         1 UNK         0.0600 
    157 H157       -0.6787  -15.8652  -46.1658 H         1 UNK         0.0600 
    158 H158       -0.3390  -16.3982  -47.7997 H         1 UNK         0.0600 
    159 H159        1.3931  -16.6231  -44.7067 H         1 UNK         0.3000 
    160 H160        1.8119  -18.2960  -42.1951 H         1 UNK         0.0600 
    161 H161        4.3175  -19.3737  -43.5800 H         1 UNK         0.0600 
    162 H162        3.2005  -20.2709  -42.5669 H         1 UNK         0.0600 
    163 H163        4.1995  -19.0151  -41.8562 H         1 UNK         0.0600 
    164 H164        2.6352  -16.2794  -42.3082 H         1 UNK         0.3000 
    165 H165        5.3634  -14.8125  -43.2188 H         1 UNK         0.0600 
    166 H166        3.2972  -14.1567  -45.3844 H         1 UNK         0.0600 
    167 H167        4.4778  -13.0120  -44.7494 H         1 UNK         0.0600 
    168 H168        5.0196  -14.4374  -45.6162 H         1 UNK         0.0600 
    169 H169        2.5080  -14.0086  -42.9843 H         1 UNK         0.3000 
    170 H170        2.5886  -13.9580  -39.4838 H         1 UNK         0.0600 
    171 H171        3.6502  -11.7212  -39.8408 H         1 UNK         0.0600 
    172 H172        2.6084  -11.4340  -41.2296 H         1 UNK         0.0600 
    173 H173        1.9158  -11.5688  -39.6124 H         1 UNK         0.0600 
    174 H174        0.6823  -12.9639  -41.3669 H         1 UNK         0.3000 
    175 H175       -0.6734  -16.0155  -42.4750 H         1 UNK         0.0600 
    176 H176       -1.9336  -14.0977  -40.4419 H         1 UNK         0.0600 
    177 H177       -2.8047  -15.1869  -41.5228 H         1 UNK         0.0600 
    178 H178       -1.7906  -15.8408  -40.2471 H         1 UNK         0.0600 
    179 H179       -1.5664  -13.3312  -42.7733 H         1 UNK         0.3000 
    180 H180       -1.3498  -12.3237  -44.7685 H         1 UNK         0.0600 
    181 H181        1.6444  -11.6689  -44.4845 H         1 UNK         0.0600 
    182 H182        0.3742  -11.1655  -43.3743 H         1 UNK         0.0600 
    183 H183        0.4007  -10.5380  -45.0141 H         1 UNK         0.0600 
    184 H184        0.8328  -13.4839  -46.4039 H         1 UNK         0.3000 
    185 H185       -0.3066  -14.1165  -48.7237 H         1 UNK         0.0600 
    186 H186       -0.7608  -12.8602  -50.8260 H         1 UNK         0.0600 
    187 H187       -2.1454  -12.7700  -49.7563 H         1 UNK         0.0600 
    188 H188       -1.0635  -11.3881  -49.9060 H         1 UNK         0.0600 
    189 H189        1.4613  -11.8874  -48.2398 H         1 UNK         0.3000 
    190 H190       -1.2498  -21.2992  -47.3629 H         1 UNK         0.3000 
    191 H191       -2.3319  -22.4972  -49.6649 H         1 UNK         0.0600 
    192 H192       -2.7098  -20.1401  -48.9507 H         1 UNK         0.0600 
    193 H193       -3.6906  -20.6904  -47.5940 H         1 UNK         0.0600 
    194 H194       -4.2275  -20.9530  -49.2474 H         1 UNK         0.0600 
    195 H195       -3.2487  -22.9310  -46.2077 H         1 UNK         0.3000 
    196 H196       -5.4028  -24.7347  -46.6542 H         1 UNK         0.0600 
    197 H197       -5.0904  -25.2719  -44.2273 H         1 UNK         0.0600 
    198 H198       -5.1060  -23.5399  -44.5195 H         1 UNK         0.0600 
    199 H199       -3.5797  -24.3689  -44.2202 H         1 UNK         0.0600 
    200 H200       -1.8989  -25.3181  -46.1005 H         1 UNK         0.3000 
    201 H201       -2.0395  -28.1638  -46.0896 H         1 UNK         0.0600 
    202 H202       -0.1304  -26.9133  -45.1387 H         1 UNK         0.0600 
    203 H203        0.2982  -26.2890  -46.7293 H         1 UNK         0.0600 
    204 H204        0.4365  -28.0098  -46.3892 H         1 UNK         0.0600 
    205 H205       -1.4350  -25.8203  -48.7358 H         1 UNK         0.3000 
    206 H206       -1.0216  -27.7645  -50.7978 H         1 UNK         0.0600 
    207 H207       -0.2069  -25.4233  -50.9464 H         1 UNK         0.0600 
    208 H208       -1.2753  -25.7792  -52.2961 H         1 UNK         0.0600 
    209 H209       -1.8643  -24.8208  -50.9428 H         1 UNK         0.0600 
    210 H210       -3.8842  -26.3300  -49.4318 H         1 UNK         0.3000 
    211 H211       -6.0389  -26.7123  -49.5197 H         1 UNK         0.0600 
    212 H212       -5.7057  -28.7887  -51.7516 H         1 UNK         0.0600 
    213 H213       -7.1106  -28.5446  -50.7310 H         1 UNK         0.0600 
    214 H214       -5.6248  -29.1601  -50.0288 H         1 UNK         0.0600 
    215 H215       -7.9616  -26.3353  -50.9565 H         1 UNK         0.3000 
    216 H216       -9.1244  -24.8348  -52.1054 H         1 UNK         0.0600 
    217 H217       -8.3165  -26.0799  -54.1191 H         1 UNK         0.0600 
    218 H218       -6.9405  -24.9863  -54.2529 H         1 UNK         0.0600 
    219 H219       -8.5739  -24.3765  -54.4634 H         1 UNK         0.0600 
    220 H220       -7.9216  -23.8168  -50.0628 H         1 UNK         0.3000 
    221 H221       -5.8474  -22.0607  -50.2991 H         1 UNK         0.0600 
    222 H222       -8.0574  -22.1026  -48.1723 H         1 UNK         0.0600 
    223 H223       -6.6230  -23.1273  -48.1865 H         1 UNK         0.0600 
    224 H224       -6.4601  -21.3947  -47.9648 H         1 UNK         0.0600 
    225 H225       -8.9908  -21.2931  -51.3541 H         1 UNK         0.3000 
    226 H226       -8.8898  -18.4079  -50.9766 H         1 UNK         0.0600 
    227 H227      -11.0533  -19.6154  -51.1709 H         1 UNK         0.0600 
    228 H228      -10.8812  -18.4549  -52.4779 H         1 UNK         0.0600 
    229 H229      -10.6263  -20.1675  -52.7915 H         1 UNK         0.0600 
    230 H230       -7.5107  -20.6703  -53.2906 H         1 UNK         0.3000 
    231 H231       -7.1710  -18.6828  -55.4313 H         1 UNK         0.0600 
    232 H232       -6.0669  -20.5701  -56.5968 H         1 UNK         0.0600 
    233 H233       -7.6245  -21.0864  -55.9667 H         1 UNK         0.0600 
    234 H234       -6.1385  -21.5561  -55.1426 H         1 UNK         0.0600 
    235 H235       -5.2338  -17.7533  -56.0000 H         1 UNK         0.3000 
    236 H236       -3.2774  -16.7401  -55.7996 H         1 UNK         0.0600 
    237 H237       -2.4105  -18.9770  -56.3951 H         1 UNK         0.0600 
    238 H238       -1.2828  -18.1648  -55.3275 H         1 UNK         0.0600 
    239 H239       -2.3211  -19.4464  -54.7037 H         1 UNK         0.0600 
    240 H240       -1.7885  -18.2108  -53.1387 H         1 UNK         0.3000 
    241 H241       -2.1584  -15.9091  -51.4070 H         1 UNK         0.0600 
    242 H242       -4.1709  -18.6628  -51.8345 H         1 UNK         0.3800 
    243 H243       -4.9051  -18.6013  -50.2605 H         1 UNK         0.3800 
    244 H244        0.0404  -16.7287  -51.4508 H         1 UNK         0.0800 
    245 H245       -0.5630  -17.1512  -49.8822 H         1 UNK         0.0800 
    246 H246        1.6873  -18.1317  -52.3626 H         1 UNK         0.0800 
    247 H247        1.8468  -19.8590  -52.2083 H         1 UNK         0.0800 
@<TRIPOS>BOND
     1    1    2 1    
     2    1  127 1    
     3    1  128 1    
     4    1  129 1    
     5    2    3 2    
     6    2    4 am   BACKBONE|DICT|INTERRES
     7    4    5 1    
     8    4  130 1    
     9    5    6 1    
    10    5   65 1    
    11    5  131 1    
    12    6    7 1    
    13    6  132 1    
    14    6  133 1    
    15    7    8 1    
    16    8    9 1    
    17    8  134 1    
    18    8  135 1    
    19    9   10 ar   
    20    9   14 ar   
    21   10   11 ar   
    22   10  136 1    
    23   11   12 ar   
    24   11  126 1    
    25   12   13 ar   
    26   12  137 1    
    27   13   14 ar   
    28   13   15 1    
    29   14  138 1    
    30   15   16 1    
    31   15  139 1    
    32   15  140 1    
    33   16   17 1    
    34   17   18 1    
    35   17  141 1    
    36   17  142 1    
    37   18   19 1    
    38   18   67 1    
    39   18  143 1    
    40   19   20 am   BACKBONE|DICT|INTERRES
    41   19  144 1    
    42   20   21 2    
    43   20   22 1    
    44   22   23 1    
    45   22   24 1    
    46   22  145 1    
    47   23  146 1    
    48   23  147 1    
    49   23  148 1    
    50   24   25 am   BACKBONE|DICT|INTERRES
    51   24  149 1    
    52   25   26 2    
    53   25   27 1    
    54   27   28 1    
    55   27   29 1    
    56   27  150 1    
    57   28  151 1    
    58   28  152 1    
    59   28  153 1    
    60   29   30 am   BACKBONE|DICT|INTERRES
    61   29  154 1    
    62   30   31 2    
    63   30   32 1    
    64   32   33 1    
    65   32   34 1    
    66   32  155 1    
    67   33  156 1    
    68   33  157 1    
    69   33  158 1    
    70   34   35 am   BACKBONE|DICT|INTERRES
    71   34  159 1    
    72   35   36 2    
    73   35   37 1    
    74   37   38 1    
    75   37   39 1    
    76   37  160 1    
    77   38  161 1    
    78   38  162 1    
    79   38  163 1    
    80   39   40 am   BACKBONE|DICT|INTERRES
    81   39  164 1    
    82   40   41 2    
    83   40   42 1    
    84   42   43 1    
    85   42   44 1    
    86   42  165 1    
    87   43  166 1    
    88   43  167 1    
    89   43  168 1    
    90   44   45 am   BACKBONE|DICT|INTERRES
    91   44  169 1    
    92   45   46 2    
    93   45   47 1    
    94   47   48 1    
    95   47   49 1    
    96   47  170 1    
    97   48  171 1    
    98   48  172 1    
    99   48  173 1    
   100   49   50 am   BACKBONE|DICT|INTERRES
   101   49  174 1    
   102   50   51 2    
   103   50   52 1    
   104   52   53 1    
   105   52   54 1    
   106   52  175 1    
   107   53  176 1    
   108   53  177 1    
   109   53  178 1    
   110   54   55 am   BACKBONE|DICT|INTERRES
   111   54  179 1    
   112   55   56 2    
   113   55   57 1    
   114   57   58 1    
   115   57   59 1    
   116   57  180 1    
   117   58  181 1    
   118   58  182 1    
   119   58  183 1    
   120   59   60 am   BACKBONE|DICT|INTERRES
   121   59  184 1    
   122   60   61 2    
   123   60   62 1    
   124   62   63 1    
   125   62   64 1    
   126   62  185 1    
   127   63  186 1    
   128   63  187 1    
   129   63  188 1    
   130   64   65 am   BACKBONE|DICT|INTERRES
   131   64  189 1    
   132   65   66 2    
   133   67   68 2    
   134   67   69 am   BACKBONE|DICT|INTERRES
   135   69   70 1    
   136   69  190 1    
   137   70   71 1    
   138   70   72 1    
   139   70  191 1    
   140   71  192 1    
   141   71  193 1    
   142   71  194 1    
   143   72   73 2    
   144   72   74 am   BACKBONE|DICT|INTERRES
   145   74   75 1    
   146   74  195 1    
   147   75   76 1    
   148   75   77 1    
   149   75  196 1    
   150   76  197 1    
   151   76  198 1    
   152   76  199 1    
   153   77   78 2    
   154   77   79 am   BACKBONE|DICT|INTERRES
   155   79   80 1    
   156   79  200 1    
   157   80   81 1    
   158   80   82 1    
   159   80  201 1    
   160   81  202 1    
   161   81  203 1    
   162   81  204 1    
   163   82   83 2    
   164   82   84 am   BACKBONE|DICT|INTERRES
   165   84   85 1    
   166   84  205 1    
   167   85   86 1    
   168   85   87 1    
   169   85  206 1    
   170   86  207 1    
   171   86  208 1    
   172   86  209 1    
   173   87   88 2    
   174   87   89 am   BACKBONE|DICT|INTERRES
   175   89   90 1    
   176   89  210 1    
   177   90   91 1    
   178   90   92 1    
   179   90  211 1    
   180   91  212 1    
   181   91  213 1    
   182   91  214 1    
   183   92   93 2    
   184   92   94 am   BACKBONE|DICT|INTERRES
   185   94   95 1    
   186   94  215 1    
   187   95   96 1    
   188   95   97 1    
   189   95  216 1    
   190   96  217 1    
   191   96  218 1    
   192   96  219 1    
   193   97   98 2    
   194   97   99 am   BACKBONE|DICT|INTERRES
   195   99  100 1    
   196   99  220 1    
   197  100  101 1    
   198  100  102 1    
   199  100  221 1    
   200  101  222 1    
   201  101  223 1    
   202  101  224 1    
   203  102  103 2    
   204  102  104 am   BACKBONE|DICT|INTERRES
   205  104  105 1    
   206  104  225 1    
   207  105  106 1    
   208  105  107 1    
   209  105  226 1    
   210  106  227 1    
   211  106  228 1    
   212  106  229 1    
   213  107  108 2    
   214  107  109 am   BACKBONE|DICT|INTERRES
   215  109  110 1    
   216  109  230 1    
   217  110  111 1    
   218  110  112 1    
   219  110  231 1    
   220  111  232 1    
   221  111  233 1    
   222  111  234 1    
   223  112  113 2    
   224  112  114 am   BACKBONE|DICT|INTERRES
   225  114  115 1    
   226  114  235 1    
   227  115  116 1    
   228  115  117 1    
   229  115  236 1    
   230  116  237 1    
   231  116  238 1    
   232  116  239 1    
   233  117  118 2    
   234  117  119 am   BACKBONE|DICT|INTERRES
   235  119  120 1    
   236  119  240 1    
   237  120  121 1    
   238  120  124 1    
   239  120  241 1    
   240  121  122 am   BACKBONE|DICT|INTERRES
   241  121  123 2    
   242  122  242 1    
   243  122  243 1    
   244  124  125 1    
   245  124  244 1    
   246  124  245 1    
   247  125  126 1    
   248  126  246 1    
   249  126  247 1    
@<TRIPOS>SUBSTRUCTURE
     1 UNK         1 GROUP             0       ****    0 ROOT    
