@<TRIPOS>MOLECULE
3R540
247   249    1
SMALL
USER_CHARGES


@<TRIPOS>ATOM
      1 CA          7.6639  -13.8425  -46.2035 C.3       0 UNK        -0.1800 
      2 C           6.1485  -13.7343  -46.1207 C.2       0 UNK         0.5000 
      3 O           5.5526  -14.1926  -45.1473 O.2       0 UNK        -0.5000 
      4 N           5.5205  -13.1097  -47.1247 N.am      1 UNK        -0.5000 
      5 CA          4.0678  -12.9272  -47.2612 C.3       1 UNK         0.1400 
      6 C6          3.6642  -12.8055  -48.7612 C.3       23 UNK        -0.0398 
      7 S7          2.0968  -13.6622  -49.1378 S.3       23 UNK        -0.2404 
      8 C8          2.6465  -14.9435  -50.3157 C.3       23 UNK        -0.0205 
      9 C9          1.6499  -16.0860  -50.5065 C.ar      23 UNK        -0.0193 
     10 C10         0.2683  -15.8641  -50.5530 C.ar      23 UNK        -0.1150 
     11 C11        -0.6199  -16.9266  -50.7484 C.ar      23 UNK        -0.0193 
     12 C12        -0.1198  -18.2212  -50.9219 C.ar      23 UNK        -0.1150 
     13 C13         1.2580  -18.4571  -50.8840 C.ar      23 UNK        -0.0193 
     14 C14         2.1322  -17.3876  -50.6730 C.ar      23 UNK        -0.1150 
     15 C15         1.8174  -19.8568  -51.0941 C.3       23 UNK        -0.0205 
     16 S16         2.0604  -20.7398  -49.5191 S.3       23 UNK        -0.2404 
     17 C17         0.3770  -21.3621  -49.2158 C.3       23 UNK        -0.0398 
     18 CA          0.3362  -22.5279  -48.1990 C.3       11 UNK         0.1400 
     19 N           0.6605  -22.0981  -46.8367 N.am      11 UNK        -0.5000 
     20 C           0.7720  -22.9129  -45.7775 C.2       10 UNK         0.5000 
     21 O           0.6705  -24.1384  -45.8373 O.2       10 UNK        -0.5000 
     22 CA          0.9687  -22.2386  -44.4097 C.3       10 UNK         0.1400 
     23 CB          2.4280  -21.8032  -44.2061 C.3       10 UNK        -0.1800 
     24 N           0.0784  -21.0910  -44.2384 N.am      10 UNK        -0.5000 
     25 C          -1.2540  -21.1800  -44.1191 C.2       9 UNK         0.5000 
     26 O          -1.8717  -22.2437  -44.1076 O.2       9 UNK        -0.5000 
     27 CA         -2.0324  -19.8559  -44.0428 C.3       9 UNK         0.1400 
     28 CB         -2.0597  -19.3241  -42.6027 C.3       9 UNK        -0.1800 
     29 N          -1.4882  -18.8386  -44.9440 N.am      9 UNK        -0.5000 
     30 C          -1.5566  -18.9299  -46.2809 C.2       8 UNK         0.5000 
     31 O          -2.0840  -19.8696  -46.8741 O.2       8 UNK        -0.5000 
     32 CA         -0.8969  -17.8135  -47.1037 C.3       8 UNK         0.1400 
     33 CB         -1.8590  -16.6287  -47.2664 C.3       8 UNK        -0.1800 
     34 N           0.3809  -17.3460  -46.5677 N.am      8 UNK        -0.5000 
     35 C           1.4611  -18.1191  -46.3791 C.2       7 UNK         0.5000 
     36 O           1.4547  -19.3426  -46.5065 O.2       7 UNK        -0.5000 
     37 CA          2.7599  -17.4192  -45.9580 C.3       7 UNK         0.1400 
     38 CB          3.4272  -16.7543  -47.1675 C.3       7 UNK        -0.1800 
     39 N           2.4915  -16.4163  -44.9303 N.am      7 UNK        -0.5000 
     40 C           2.8260  -16.5555  -43.6410 C.2       6 UNK         0.5000 
     41 O           3.4999  -17.4888  -43.2021 O.2       6 UNK        -0.5000 
     42 CA          2.2935  -15.4947  -42.6567 C.3       6 UNK         0.1400 
     43 CB          3.3484  -14.4082  -42.4181 C.3       6 UNK        -0.1800 
     44 N           1.0339  -14.8652  -43.0647 N.am      6 UNK        -0.5000 
     45 C          -0.1168  -15.5268  -43.2588 C.2       5 UNK         0.5000 
     46 O          -0.2339  -16.7475  -43.1536 O.2       5 UNK        -0.5000 
     47 CA         -1.3451  -14.7037  -43.6767 C.3       5 UNK         0.1400 
     48 CB         -2.0496  -14.1360  -42.4358 C.3       5 UNK        -0.1800 
     49 N          -1.0917  -13.6101  -44.6152 N.am      5 UNK        -0.5000 
     50 C          -0.3656  -13.6186  -45.7407 C.2       4 UNK         0.5000 
     51 O           0.3469  -14.5574  -46.1003 O.2       4 UNK        -0.5000 
     52 CA         -0.4445  -12.3459  -46.6060 C.3       4 UNK         0.1400 
     53 CB         -1.7947  -12.2392  -47.3391 C.3       4 UNK        -0.1800 
     54 N          -0.1121  -11.1238  -45.8680 N.am      4 UNK        -0.5000 
     55 C          -0.7573  -10.5490  -44.8406 C.2       3 UNK         0.5000 
     56 O          -1.8809  -10.8883  -44.4642 O.2       3 UNK        -0.5000 
     57 CA          0.0163   -9.4539  -44.0700 C.3       3 UNK         0.1400 
     58 CB         -0.4298   -9.3432  -42.5971 C.3       3 UNK        -0.1800 
     59 N           1.4760   -9.6116  -44.1522 N.am      3 UNK        -0.5000 
     60 C           2.1978  -10.6824  -43.7856 C.2       2 UNK         0.5000 
     61 O           1.7303  -11.6924  -43.2529 O.2       2 UNK        -0.5000 
     62 CA          3.6908  -10.6377  -44.1554 C.3       2 UNK         0.1400 
     63 CB          4.5853  -10.7939  -42.9161 C.3       2 UNK        -0.1800 
     64 N           4.0290  -11.6693  -45.1370 N.am      2 UNK        -0.5000 
     65 C           3.5357  -11.7656  -46.3802 C.2       1 UNK         0.5000 
     66 O           2.7157  -10.9648  -46.8348 O.2       1 UNK        -0.5000 
     67 C          -1.0284  -23.2426  -48.2564 C.2       11 UNK         0.5000 
     68 O          -1.1109  -24.3450  -48.7996 O.2       11 UNK        -0.5000 
     69 N          -2.0646  -22.6221  -47.6740 N.am      12 UNK        -0.5000 
     70 CA         -3.4212  -23.1643  -47.6289 C.3       12 UNK         0.1400 
     71 CB         -4.3938  -22.1060  -47.0904 C.3       12 UNK        -0.1800 
     72 C          -3.5255  -24.4687  -46.8220 C.2       12 UNK         0.5000 
     73 O          -4.2171  -25.3884  -47.2573 O.2       12 UNK        -0.5000 
     74 N          -2.8123  -24.5481  -45.6891 N.am      13 UNK        -0.5000 
     75 CA         -2.7194  -25.7497  -44.8583 C.3       13 UNK         0.1400 
     76 CB         -2.0119  -25.4161  -43.5365 C.3       13 UNK        -0.1800 
     77 C          -2.0124  -26.9165  -45.5713 C.2       13 UNK         0.5000 
     78 O          -2.4533  -28.0586  -45.4393 O.2       13 UNK        -0.5000 
     79 N          -0.9465  -26.6103  -46.3246 N.am      14 UNK        -0.5000 
     80 CA         -0.1995  -27.5779  -47.1277 C.3       14 UNK         0.1400 
     81 CB          1.1214  -26.9484  -47.5967 C.3       14 UNK        -0.1800 
     82 C          -1.0113  -28.1055  -48.3247 C.2       14 UNK         0.5000 
     83 O          -0.9935  -29.3093  -48.5855 O.2       14 UNK        -0.5000 
     84 N          -1.7100  -27.2018  -49.0251 N.am      15 UNK        -0.5000 
     85 CA         -2.5471  -27.5267  -50.1811 C.3       15 UNK         0.1400 
     86 CB         -2.8387  -26.2395  -50.9653 C.3       15 UNK        -0.1800 
     87 C          -3.8714  -28.2154  -49.8059 C.2       15 UNK         0.5000 
     88 O          -4.3822  -29.0039  -50.6021 O.2       15 UNK        -0.5000 
     89 N          -4.4141  -27.8721  -48.6276 N.am      16 UNK        -0.5000 
     90 CA         -5.7608  -28.1935  -48.1402 C.3       16 UNK         0.1400 
     91 CB         -5.9286  -29.7101  -47.9113 C.3       16 UNK        -0.1800 
     92 C          -6.8559  -27.5790  -49.0411 C.2       16 UNK         0.5000 
     93 O          -7.8875  -28.2062  -49.2898 O.2       16 UNK        -0.5000 
     94 N          -6.5911  -26.3625  -49.5317 N.am      17 UNK        -0.5000 
     95 CA         -7.3792  -25.6147  -50.5061 C.3       17 UNK         0.1400 
     96 CB         -7.2475  -26.2687  -51.8975 C.3       17 UNK        -0.1800 
     97 C          -6.8715  -24.1635  -50.5317 C.2       17 UNK         0.5000 
     98 O          -5.8907  -23.8457  -49.8541 O.2       17 UNK        -0.5000 
     99 N          -7.5253  -23.3076  -51.3277 N.am      18 UNK        -0.5000 
    100 CA        -7.1265  -21.9200  -51.5786 C.3       18 UNK         0.1400 
    101 CB        -8.3263  -21.1493  -52.1582 C.3       18 UNK        -0.1800 
    102 C         -5.8903  -21.8536  -52.4997 C.2       18 UNK         0.5000 
    103 O         -6.0170  -21.5813  -53.6964 O.2       18 UNK        -0.5000 
    104 N         -4.7202  -22.1554  -51.9250 N.am      19 UNK        -0.5000 
    105 CA        -3.4081  -22.1593  -52.5693 C.3       19 UNK         0.1400 
    106 CB        -2.3465  -22.4868  -51.5145 C.3       19 UNK        -0.1800 
    107 C         -3.0825  -20.8154  -53.2413 C.2       19 UNK         0.5000 
    108 O         -3.2171  -19.7724  -52.6023 O.2       19 UNK        -0.5000 
    109 N         -2.6932  -20.8707  -54.5229 N.am      20 UNK        -0.5000 
    110 CA        -2.4030  -19.7270  -55.4004 C.3       20 UNK         0.1400 
    111 CB        -1.1285  -18.9936  -54.9294 C.3       20 UNK        -0.1800 
    112 C         -3.6046  -18.7719  -55.6032 C.2       20 UNK         0.5000 
    113 O         -3.4063  -17.6087  -55.9571 O.2       20 UNK        -0.5000 
    114 N         -4.8258  -19.2876  -55.3843 N.am      21 UNK        -0.5000 
    115 CA        -6.1097  -18.5801  -55.3820 C.3       21 UNK         0.1400 
    116 CB        -6.4435  -18.0180  -56.7802 C.3       21 UNK        -0.1800 
    117 C         -6.2176  -17.5266  -54.2575 C.2       21 UNK         0.5000 
    118 O         -6.8997  -16.5139  -54.4277 O.2       21 UNK        -0.5000 
    119 N         -5.5603  -17.7864  -53.1221 N.am      22 UNK        -0.5000 
    120 CA        -5.5486  -16.9307  -51.9309 C.3       22 UNK         0.1400 
    121 C         -5.5268  -17.7594  -50.6145 C.2       22 UNK         0.5000 
    122 N         -5.4485  -17.1137  -49.4577 N.am      22 UNK        -0.7600 
    123 O         -5.6282  -18.9835  -50.6159 O.2       22 UNK        -0.5000 
    124 C124       -4.4736  -15.8070  -52.0157 C.3       23 UNK        -0.0398 
    125 S125       -2.7737  -16.3625  -52.4011 S.3       23 UNK        -0.2404 
    126 C126       -2.1197  -16.6759  -50.7364 C.3       23 UNK        -0.0205 
    127 H127        8.0543  -13.3873  -47.1140 H         1 UNK         0.0600 
    128 H128        7.9651  -14.8899  -46.1904 H         1 UNK         0.0600 
    129 H129        8.1224  -13.3439  -45.3495 H         1 UNK         0.0600 
    130 H130        6.0766  -12.7129  -47.8689 H         1 UNK         0.3000 
    131 H131        3.6001  -13.8282  -46.8598 H         1 UNK         0.0600 
    132 H132        4.4390  -13.2371  -49.3957 H         1 UNK         0.0800 
    133 H133        3.5919  -11.7666  -49.0872 H         1 UNK         0.0800 
    134 H134        2.8393  -14.4782  -51.2830 H         1 UNK         0.0800 
    135 H135        3.5983  -15.3482  -49.9681 H         1 UNK         0.0800 
    136 H136       -0.1213  -14.8636  -50.4315 H         1 UNK         0.1150 
    137 H137       -0.8052  -19.0417  -51.0847 H         1 UNK         0.1150 
    138 H138        3.1971  -17.5720  -50.6477 H         1 UNK         0.1150 
    139 H139        1.1703  -20.4311  -51.7587 H         1 UNK         0.0800 
    140 H140        2.7799  -19.7896  -51.6035 H         1 UNK         0.0800 
    141 H141       -0.0139  -21.6935  -50.1767 H         1 UNK         0.0800 
    142 H142       -0.2552  -20.5350  -48.8902 H         1 UNK         0.0800 
    143 H143        1.0892  -23.2622  -48.4932 H         1 UNK         0.0600 
    144 H144        0.8122  -21.1007  -46.7029 H         1 UNK         0.3000 
    145 H145        0.7256  -22.9726  -43.6384 H         1 UNK         0.0600 
    146 H146        2.5755  -21.3693  -43.2171 H         1 UNK         0.0600 
    147 H147        3.1023  -22.6562  -44.2910 H         1 UNK         0.0600 
    148 H148        2.7410  -21.0652  -44.9449 H         1 UNK         0.0600 
    149 H149        0.4974  -20.1749  -44.3075 H         1 UNK         0.3000 
    150 H150       -3.0622  -20.0574  -44.3456 H         1 UNK         0.0600 
    151 H151       -2.5332  -20.0424  -41.9324 H         1 UNK         0.0600 
    152 H152       -2.6238  -18.3937  -42.5350 H         1 UNK         0.0600 
    153 H153       -1.0549  -19.1361  -42.2228 H         1 UNK         0.0600 
    154 H154       -1.0059  -18.0560  -44.5138 H         1 UNK         0.3000 
    155 H155       -0.6926  -18.2194  -48.0953 H         1 UNK         0.0600 
    156 H156       -1.4162  -15.8426  -47.8775 H         1 UNK         0.0600 
    157 H157       -2.7841  -16.9417  -47.7516 H         1 UNK         0.0600 
    158 H158       -2.1275  -16.1922  -46.3061 H         1 UNK         0.0600 
    159 H159        0.4598  -16.3411  -46.4321 H         1 UNK         0.3000 
    160 H160        3.4413  -18.1867  -45.5853 H         1 UNK         0.0600 
    161 H161        2.7801  -15.9954  -47.6024 H         1 UNK         0.0600 
    162 H162        3.6440  -17.4870  -47.9459 H         1 UNK         0.0600 
    163 H163        4.3688  -16.2807  -46.8904 H         1 UNK         0.0600 
    164 H164        1.8976  -15.6384  -45.1937 H         1 UNK         0.3000 
    165 H165        2.1098  -16.0011  -41.7070 H         1 UNK         0.0600 
    166 H166        3.0272  -13.7075  -41.6474 H         1 UNK         0.0600 
    167 H167        4.2955  -14.8410  -42.0936 H         1 UNK         0.0600 
    168 H168        3.5411  -13.8435  -43.3296 H         1 UNK         0.0600 
    169 H169        1.0503  -13.8600  -43.1942 H         1 UNK         0.3000 
    170 H170       -2.0387  -15.3883  -44.1655 H         1 UNK         0.0600 
    171 H171       -2.2752  -14.9244  -41.7162 H         1 UNK         0.0600 
    172 H172       -1.4313  -13.3934  -41.9296 H         1 UNK         0.0600 
    173 H173       -2.9937  -13.6598  -42.7012 H         1 UNK         0.0600 
    174 H174       -1.5844  -12.7426  -44.4193 H         1 UNK         0.3000 
    175 H175        0.3267  -12.4341  -47.3676 H         1 UNK         0.0600 
    176 H176       -1.9626  -13.1166  -47.9650 H         1 UNK         0.0600 
    177 H177       -2.6360  -12.1675  -46.6497 H         1 UNK         0.0600 
    178 H178       -1.8194  -11.3659  -47.9908 H         1 UNK         0.0600 
    179 H179        0.8198  -10.7760  -46.0714 H         1 UNK         0.3000 
    180 H180       -0.2221   -8.5103  -44.5624 H         1 UNK         0.0600 
    181 H181       -0.2859  -10.2810  -42.0595 H         1 UNK         0.0600 
    182 H182       -1.4869   -9.0846  -42.5255 H         1 UNK         0.0600 
    183 H183        0.1282   -8.5672  -42.0732 H         1 UNK         0.0600 
    184 H184        1.9600   -8.8536  -44.6138 H         1 UNK         0.3000 
    185 H185        3.9154   -9.6691  -44.6068 H         1 UNK         0.0600 
    186 H186        4.3680  -10.0188  -42.1802 H         1 UNK         0.0600 
    187 H187        4.4414  -11.7568  -42.4274 H         1 UNK         0.0600 
    188 H188        5.6399  -10.7068  -43.1779 H         1 UNK         0.0600 
    189 H189        4.6600  -12.4021  -44.8320 H         1 UNK         0.3000 
    190 H190       -1.9356  -21.6982  -47.2677 H         1 UNK         0.3000 
    191 H191       -3.7040  -23.3935  -48.6563 H         1 UNK         0.0600 
    192 H192       -4.1309  -21.7960  -46.0784 H         1 UNK         0.0600 
    193 H193       -5.4139  -22.4915  -47.0662 H         1 UNK         0.0600 
    194 H194       -4.3986  -21.2189  -47.7243 H         1 UNK         0.0600 
    195 H195       -2.3044  -23.7312  -45.3640 H         1 UNK         0.3000 
    196 H196       -3.7359  -26.0731  -44.6249 H         1 UNK         0.0600 
    197 H197       -1.9256  -26.3003  -42.9038 H         1 UNK         0.0600 
    198 H198       -2.5667  -24.6667  -42.9718 H         1 UNK         0.0600 
    199 H199       -1.0053  -25.0316  -43.7048 H         1 UNK         0.0600 
    200 H200       -0.6155  -25.6509  -46.3431 H         1 UNK         0.3000 
    201 H201        0.0431  -28.4301  -46.4895 H         1 UNK         0.0600 
    202 H202        1.7381  -26.6514  -46.7484 H         1 UNK         0.0600 
    203 H203        0.9521  -26.0636  -48.2110 H         1 UNK         0.0600 
    204 H204        1.7025  -27.6552  -48.1903 H         1 UNK         0.0600 
    205 H205       -1.6236  -26.2182  -48.7825 H         1 UNK         0.3000 
    206 H206       -1.9903  -28.2036  -50.8325 H         1 UNK         0.0600 
    207 H207       -1.9154  -25.7624  -51.2940 H         1 UNK         0.0600 
    208 H208       -3.4339  -26.4467  -51.8556 H         1 UNK         0.0600 
    209 H209       -3.3946  -25.5231  -50.3589 H         1 UNK         0.0600 
    210 H210       -3.9361  -27.1617  -48.0823 H         1 UNK         0.3000 
    211 H211       -5.8559  -27.7040  -47.1700 H         1 UNK         0.0600 
    212 H212       -5.9229  -30.2680  -48.8478 H         1 UNK         0.0600 
    213 H213       -6.8732  -29.9251  -47.4106 H         1 UNK         0.0600 
    214 H214       -5.1306  -30.1027  -47.2810 H         1 UNK         0.0600 
    215 H215       -5.7605  -25.8721  -49.2174 H         1 UNK         0.3000 
    216 H216       -8.4246  -25.6087  -50.1922 H         1 UNK         0.0600 
    217 H217       -6.2099  -26.2827  -52.2340 H         1 UNK         0.0600 
    218 H218       -7.8301  -25.7342  -52.6481 H         1 UNK         0.0600 
    219 H219       -7.6076  -27.2974  -51.8924 H         1 UNK         0.0600 
    220 H220       -8.3058  -23.6477  -51.8703 H         1 UNK         0.3000 
    221 H221       -6.8609  -21.4525  -50.6279 H         1 UNK         0.0600 
    222 H222       -9.1637  -21.1422  -51.4605 H         1 UNK         0.0600 
    223 H223       -8.6737  -21.5837  -53.0964 H         1 UNK         0.0600 
    224 H224       -8.0593  -20.1098  -52.3548 H         1 UNK         0.0600 
    225 H225       -4.7439  -22.4222  -50.9487 H         1 UNK         0.3000 
    226 H226       -3.4124  -22.9511  -53.3207 H         1 UNK         0.0600 
    227 H227       -2.5533  -23.4362  -51.0266 H         1 UNK         0.0600 
    228 H228       -1.3563  -22.5586  -51.9655 H         1 UNK         0.0600 
    229 H229       -2.3113  -21.7188  -50.7406 H         1 UNK         0.0600 
    230 H230       -2.6290  -21.7771  -54.9654 H         1 UNK         0.3000 
    231 H231       -2.1917  -20.1475  -56.3844 H         1 UNK         0.0600 
    232 H232       -1.2753  -18.5011  -53.9681 H         1 UNK         0.0600 
    233 H233       -0.8277  -18.2274  -55.6446 H         1 UNK         0.0600 
    234 H234       -0.2917  -19.6840  -54.8251 H         1 UNK         0.0600 
    235 H235       -4.8795  -20.2477  -55.0650 H         1 UNK         0.3000 
    236 H236       -6.8627  -19.3346  -55.1504 H         1 UNK         0.0600 
    237 H237       -7.4675  -17.6445  -56.8156 H         1 UNK         0.0600 
    238 H238       -5.7874  -17.1918  -57.0547 H         1 UNK         0.0600 
    239 H239       -6.3543  -18.7877  -57.5467 H         1 UNK         0.0600 
    240 H240       -4.9984  -18.6273  -53.0374 H         1 UNK         0.3000 
    241 H241       -6.5200  -16.4348  -51.8884 H         1 UNK         0.0600 
    242 H242       -5.4619  -17.6546  -48.6080 H         1 UNK         0.3800 
    243 H243       -5.4239  -16.1085  -49.4033 H         1 UNK         0.3800 
    244 H244       -4.4631  -15.1943  -51.1141 H         1 UNK         0.0800 
    245 H245       -4.7600  -15.1203  -52.8131 H         1 UNK         0.0800 
    246 H246       -2.6296  -17.5381  -50.3047 H         1 UNK         0.0800 
    247 H247       -2.3477  -15.8236  -50.0957 H         1 UNK         0.0800 
@<TRIPOS>BOND
     1    1    2 1    
     2    1  127 1    
     3    1  128 1    
     4    1  129 1    
     5    2    3 2    
     6    2    4 am   BACKBONE|DICT|INTERRES
     7    4    5 1    
     8    4  130 1    
     9    5    6 1    
    10    5   65 1    
    11    5  131 1    
    12    6    7 1    
    13    6  132 1    
    14    6  133 1    
    15    7    8 1    
    16    8    9 1    
    17    8  134 1    
    18    8  135 1    
    19    9   10 ar   
    20    9   14 ar   
    21   10   11 ar   
    22   10  136 1    
    23   11   12 ar   
    24   11  126 1    
    25   12   13 ar   
    26   12  137 1    
    27   13   14 ar   
    28   13   15 1    
    29   14  138 1    
    30   15   16 1    
    31   15  139 1    
    32   15  140 1    
    33   16   17 1    
    34   17   18 1    
    35   17  141 1    
    36   17  142 1    
    37   18   19 1    
    38   18   67 1    
    39   18  143 1    
    40   19   20 am   BACKBONE|DICT|INTERRES
    41   19  144 1    
    42   20   21 2    
    43   20   22 1    
    44   22   23 1    
    45   22   24 1    
    46   22  145 1    
    47   23  146 1    
    48   23  147 1    
    49   23  148 1    
    50   24   25 am   BACKBONE|DICT|INTERRES
    51   24  149 1    
    52   25   26 2    
    53   25   27 1    
    54   27   28 1    
    55   27   29 1    
    56   27  150 1    
    57   28  151 1    
    58   28  152 1    
    59   28  153 1    
    60   29   30 am   BACKBONE|DICT|INTERRES
    61   29  154 1    
    62   30   31 2    
    63   30   32 1    
    64   32   33 1    
    65   32   34 1    
    66   32  155 1    
    67   33  156 1    
    68   33  157 1    
    69   33  158 1    
    70   34   35 am   BACKBONE|DICT|INTERRES
    71   34  159 1    
    72   35   36 2    
    73   35   37 1    
    74   37   38 1    
    75   37   39 1    
    76   37  160 1    
    77   38  161 1    
    78   38  162 1    
    79   38  163 1    
    80   39   40 am   BACKBONE|DICT|INTERRES
    81   39  164 1    
    82   40   41 2    
    83   40   42 1    
    84   42   43 1    
    85   42   44 1    
    86   42  165 1    
    87   43  166 1    
    88   43  167 1    
    89   43  168 1    
    90   44   45 am   BACKBONE|DICT|INTERRES
    91   44  169 1    
    92   45   46 2    
    93   45   47 1    
    94   47   48 1    
    95   47   49 1    
    96   47  170 1    
    97   48  171 1    
    98   48  172 1    
    99   48  173 1    
   100   49   50 am   BACKBONE|DICT|INTERRES
   101   49  174 1    
   102   50   51 2    
   103   50   52 1    
   104   52   53 1    
   105   52   54 1    
   106   52  175 1    
   107   53  176 1    
   108   53  177 1    
   109   53  178 1    
   110   54   55 am   BACKBONE|DICT|INTERRES
   111   54  179 1    
   112   55   56 2    
   113   55   57 1    
   114   57   58 1    
   115   57   59 1    
   116   57  180 1    
   117   58  181 1    
   118   58  182 1    
   119   58  183 1    
   120   59   60 am   BACKBONE|DICT|INTERRES
   121   59  184 1    
   122   60   61 2    
   123   60   62 1    
   124   62   63 1    
   125   62   64 1    
   126   62  185 1    
   127   63  186 1    
   128   63  187 1    
   129   63  188 1    
   130   64   65 am   BACKBONE|DICT|INTERRES
   131   64  189 1    
   132   65   66 2    
   133   67   68 2    
   134   67   69 am   BACKBONE|DICT|INTERRES
   135   69   70 1    
   136   69  190 1    
   137   70   71 1    
   138   70   72 1    
   139   70  191 1    
   140   71  192 1    
   141   71  193 1    
   142   71  194 1    
   143   72   73 2    
   144   72   74 am   BACKBONE|DICT|INTERRES
   145   74   75 1    
   146   74  195 1    
   147   75   76 1    
   148   75   77 1    
   149   75  196 1    
   150   76  197 1    
   151   76  198 1    
   152   76  199 1    
   153   77   78 2    
   154   77   79 am   BACKBONE|DICT|INTERRES
   155   79   80 1    
   156   79  200 1    
   157   80   81 1    
   158   80   82 1    
   159   80  201 1    
   160   81  202 1    
   161   81  203 1    
   162   81  204 1    
   163   82   83 2    
   164   82   84 am   BACKBONE|DICT|INTERRES
   165   84   85 1    
   166   84  205 1    
   167   85   86 1    
   168   85   87 1    
   169   85  206 1    
   170   86  207 1    
   171   86  208 1    
   172   86  209 1    
   173   87   88 2    
   174   87   89 am   BACKBONE|DICT|INTERRES
   175   89   90 1    
   176   89  210 1    
   177   90   91 1    
   178   90   92 1    
   179   90  211 1    
   180   91  212 1    
   181   91  213 1    
   182   91  214 1    
   183   92   93 2    
   184   92   94 am   BACKBONE|DICT|INTERRES
   185   94   95 1    
   186   94  215 1    
   187   95   96 1    
   188   95   97 1    
   189   95  216 1    
   190   96  217 1    
   191   96  218 1    
   192   96  219 1    
   193   97   98 2    
   194   97   99 am   BACKBONE|DICT|INTERRES
   195   99  100 1    
   196   99  220 1    
   197  100  101 1    
   198  100  102 1    
   199  100  221 1    
   200  101  222 1    
   201  101  223 1    
   202  101  224 1    
   203  102  103 2    
   204  102  104 am   BACKBONE|DICT|INTERRES
   205  104  105 1    
   206  104  225 1    
   207  105  106 1    
   208  105  107 1    
   209  105  226 1    
   210  106  227 1    
   211  106  228 1    
   212  106  229 1    
   213  107  108 2    
   214  107  109 am   BACKBONE|DICT|INTERRES
   215  109  110 1    
   216  109  230 1    
   217  110  111 1    
   218  110  112 1    
   219  110  231 1    
   220  111  232 1    
   221  111  233 1    
   222  111  234 1    
   223  112  113 2    
   224  112  114 am   BACKBONE|DICT|INTERRES
   225  114  115 1    
   226  114  235 1    
   227  115  116 1    
   228  115  117 1    
   229  115  236 1    
   230  116  237 1    
   231  116  238 1    
   232  116  239 1    
   233  117  118 2    
   234  117  119 am   BACKBONE|DICT|INTERRES
   235  119  120 1    
   236  119  240 1    
   237  120  121 1    
   238  120  124 1    
   239  120  241 1    
   240  121  122 am   BACKBONE|DICT|INTERRES
   241  121  123 2    
   242  122  242 1    
   243  122  243 1    
   244  124  125 1    
   245  124  244 1    
   246  124  245 1    
   247  125  126 1    
   248  126  246 1    
   249  126  247 1    
@<TRIPOS>SUBSTRUCTURE
     1 UNK         1 GROUP             0       ****    0 ROOT    
