@<TRIPOS>MOLECULE
3R540
247   249    1
SMALL
USER_CHARGES


@<TRIPOS>ATOM
      1 CA          1.7503   -9.8409  -49.5855 C.3       0 UNK        -0.1800 
      2 C           2.0335  -11.0841  -48.7554 C.2       0 UNK         0.5000 
      3 O           3.0889  -11.1780  -48.1283 O.2       0 UNK        -0.5000 
      4 N           1.0878  -12.0333  -48.7266 N.am      1 UNK        -0.5000 
      5 CA          1.1919  -13.3112  -48.0066 C.3       1 UNK         0.1400 
      6 C6          0.1302  -14.3361  -48.4681 C.3       23 UNK        -0.0398 
      7 S7         -1.6074  -13.7865  -48.3423 S.3       23 UNK        -0.2404 
      8 C8         -2.2990  -14.3878  -49.9200 C.3       23 UNK        -0.0205 
      9 C9         -2.4770  -15.9026  -49.9532 C.ar      23 UNK        -0.0193 
     10 C10        -1.4167  -16.7300  -50.3334 C.ar      23 UNK        -0.1150 
     11 C11        -1.5841  -18.1134  -50.4048 C.ar      23 UNK        -0.0193 
     12 C12        -2.8326  -18.6709  -50.1204 C.ar      23 UNK        -0.1150 
     13 C13        -3.9108  -17.8624  -49.7399 C.ar      23 UNK        -0.0193 
     14 C14        -3.7169  -16.4782  -49.6523 C.ar      23 UNK        -0.1150 
     15 C15        -5.3095  -18.4280  -49.4784 C.3       23 UNK        -0.0205 
     16 S16        -5.4045  -20.2311  -49.1659 S.3       23 UNK        -0.2404 
     17 C17        -5.0754  -20.3239  -47.3736 C.3       23 UNK        -0.0398 
     18 CA         -3.6667  -20.8698  -47.0130 C.3       11 UNK         0.1400 
     19 N          -3.1512  -20.2738  -45.7743 N.am      11 UNK        -0.5000 
     20 C          -3.7167  -20.2682  -44.5561 C.2       10 UNK         0.5000 
     21 O          -4.7182  -20.9233  -44.2669 O.2       10 UNK        -0.5000 
     22 CA         -3.0729  -19.3726  -43.4794 C.3       10 UNK         0.1400 
     23 CB         -2.1229  -20.1979  -42.5987 C.3       10 UNK        -0.1800 
     24 N          -2.3464  -18.2331  -44.0387 N.am      10 UNK        -0.5000 
     25 C          -2.8910  -17.2458  -44.7656 C.2       9 UNK         0.5000 
     26 O          -4.1029  -17.1076  -44.9344 O.2       9 UNK        -0.5000 
     27 CA         -1.9135  -16.2738  -45.4551 C.3       9 UNK         0.1400 
     28 CB         -1.7776  -14.9847  -44.6313 C.3       9 UNK        -0.1800 
     29 N          -0.5907  -16.8634  -45.7197 N.am      9 UNK        -0.5000 
     30 C          -0.3977  -17.8860  -46.5688 C.2       8 UNK         0.5000 
     31 O          -1.3076  -18.4464  -47.1741 O.2       8 UNK        -0.5000 
     32 CA          1.0295  -18.4269  -46.7207 C.3       8 UNK         0.1400 
     33 CB          2.0294  -17.3707  -47.2116 C.3       8 UNK        -0.1800 
     34 N           1.5038  -19.0291  -45.4791 N.am      8 UNK        -0.5000 
     35 C           1.1108  -20.2289  -45.0287 C.2       7 UNK         0.5000 
     36 O           0.2528  -20.9229  -45.5783 O.2       7 UNK        -0.5000 
     37 CA          1.7970  -20.7576  -43.7627 C.3       7 UNK         0.1400 
     38 CB          3.1883  -21.3194  -44.0950 C.3       7 UNK        -0.1800 
     39 N           1.9158  -19.7303  -42.7287 N.am      7 UNK        -0.5000 
     40 C           1.5451  -19.9050  -41.4521 C.2       6 UNK         0.5000 
     41 O           1.0759  -20.9567  -41.0150 O.2       6 UNK        -0.5000 
     42 CA          1.7288  -18.7221  -40.4793 C.3       6 UNK         0.1400 
     43 CB          2.9558  -18.9526  -39.5834 C.3       6 UNK        -0.1800 
     44 N           1.8607  -17.4158  -41.1239 N.am      6 UNK        -0.5000 
     45 C           0.9102  -16.8065  -41.8431 C.2       5 UNK         0.5000 
     46 O          -0.1983  -17.2880  -42.0710 O.2       5 UNK        -0.5000 
     47 CA          1.2693  -15.4329  -42.4334 C.3       5 UNK         0.1400 
     48 CB          0.8619  -14.3283  -41.4468 C.3       5 UNK        -0.1800 
     49 N           2.6704  -15.2505  -42.8253 N.am      5 UNK        -0.5000 
     50 C           3.3824  -16.0567  -43.6289 C.2       4 UNK         0.5000 
     51 O           3.0003  -17.1699  -43.9988 O.2       4 UNK        -0.5000 
     52 CA          4.7245  -15.4932  -44.1236 C.3       4 UNK         0.1400 
     53 CB          5.3254  -16.2975  -45.2908 C.3       4 UNK        -0.1800 
     54 N           4.5346  -14.1039  -44.5366 N.am      4 UNK        -0.5000 
     55 C           5.3695  -13.0907  -44.2712 C.2       3 UNK         0.5000 
     56 O           6.4370  -13.2284  -43.6726 O.2       3 UNK        -0.5000 
     57 CA          4.9486  -11.6807  -44.7410 C.3       3 UNK         0.1400 
     58 CB          5.7226  -11.2877  -46.0082 C.3       3 UNK        -0.1800 
     59 N           3.5127  -11.5472  -45.0025 N.am      3 UNK        -0.5000 
     60 C           2.5535  -11.6071  -44.0654 C.2       2 UNK         0.5000 
     61 O           2.7930  -11.7043  -42.8621 O.2       2 UNK        -0.5000 
     62 CA          1.0837  -11.5980  -44.5429 C.3       2 UNK         0.1400 
     63 CB          0.4567  -10.2124  -44.3311 C.3       2 UNK        -0.1800 
     64 N           0.9133  -11.9858  -45.9441 N.am      2 UNK        -0.5000 
     65 C           1.2493  -13.1726  -46.4693 C.2       1 UNK         0.5000 
     66 O           1.6557  -14.1171  -45.7917 O.2       1 UNK        -0.5000 
     67 C          -3.6069  -22.4143  -47.0348 C.2       11 UNK         0.5000 
     68 O          -3.2562  -22.9991  -48.0611 O.2       11 UNK        -0.5000 
     69 N          -3.9372  -23.0532  -45.9061 N.am      12 UNK        -0.5000 
     70 CA         -3.9977  -24.5004  -45.7059 C.3       12 UNK         0.1400 
     71 CB         -4.5532  -24.7866  -44.3034 C.3       12 UNK        -0.1800 
     72 C          -2.6570  -25.2232  -45.9143 C.2       12 UNK         0.5000 
     73 O          -2.6535  -26.3461  -46.4173 O.2       12 UNK        -0.5000 
     74 N          -1.5498  -24.5758  -45.5317 N.am      13 UNK        -0.5000 
     75 CA         -0.2051  -25.1282  -45.6780 C.3       13 UNK         0.1400 
     76 CB          0.7214  -24.5171  -44.6162 C.3       13 UNK        -0.1800 
     77 C           0.3507  -24.8966  -47.0918 C.2       13 UNK         0.5000 
     78 O           0.8212  -25.8427  -47.7238 O.2       13 UNK        -0.5000 
     79 N           0.3048  -23.6397  -47.5524 N.am      14 UNK        -0.5000 
     80 CA          0.9570  -23.2062  -48.7873 C.3       14 UNK         0.1400 
     81 CB          1.1898  -21.6918  -48.7172 C.3       14 UNK        -0.1800 
     82 C           0.1928  -23.5657  -50.0725 C.2       14 UNK         0.5000 
     83 O           0.8355  -23.8092  -51.0944 O.2       14 UNK        -0.5000 
     84 N          -1.1449  -23.5541  -50.0203 N.am      15 UNK        -0.5000 
     85 CA         -2.0111  -23.6611  -51.1976 C.3       15 UNK         0.1400 
     86 CB         -2.6483  -22.2868  -51.4476 C.3       15 UNK        -0.1800 
     87 C          -3.0930  -24.7439  -51.0524 C.2       15 UNK         0.5000 
     88 O          -3.9944  -24.8030  -51.8881 O.2       15 UNK        -0.5000 
     89 N          -3.0249  -25.5595  -49.9888 N.am      16 UNK        -0.5000 
     90 CA         -4.0029  -26.5974  -49.6275 C.3       16 UNK         0.1400 
     91 CB         -3.9758  -27.7519  -50.6514 C.3       16 UNK        -0.1800 
     92 C          -5.4270  -26.0392  -49.3938 C.2       16 UNK         0.5000 
     93 O          -6.4107  -26.7471  -49.6132 O.2       16 UNK        -0.5000 
     94 N          -5.4989  -24.7690  -48.9666 N.am      17 UNK        -0.5000 
     95 CA         -6.6957  -23.9572  -48.7232 C.3       17 UNK         0.1400 
     96 CB         -7.6034  -24.5900  -47.6471 C.3       17 UNK        -0.1800 
     97 C          -7.4753  -23.5612  -49.9960 C.2       17 UNK         0.5000 
     98 O          -8.5716  -23.0111  -49.8752 O.2       17 UNK        -0.5000 
     99 N          -6.9091  -23.8017  -51.1869 N.am      18 UNK        -0.5000 
    100 CA        -7.4351  -23.2996  -52.4534 C.3       18 UNK         0.1400 
    101 CB        -7.0290  -24.2475  -53.5900 C.3       18 UNK        -0.1800 
    102 C         -6.9059  -21.8739  -52.6783 C.2       18 UNK         0.5000 
    103 O         -5.7001  -21.6521  -52.5577 O.2       18 UNK        -0.5000 
    104 N         -7.8206  -20.9393  -52.9688 N.am      19 UNK        -0.5000 
    105 CA        -7.6049  -19.4910  -53.0341 C.3       19 UNK         0.1400 
    106 CB        -8.9168  -18.8145  -53.4667 C.3       19 UNK        -0.1800 
    107 C         -6.4277  -19.0627  -53.9344 C.2       19 UNK         0.5000 
    108 O         -6.5830  -18.9888  -55.1548 O.2       19 UNK        -0.5000 
    109 N         -5.2760  -18.8049  -53.2975 N.am      20 UNK        -0.5000 
    110 CA        -4.0021  -18.3796  -53.8857 C.3       20 UNK         0.1400 
    111 CB        -4.1197  -16.9601  -54.4765 C.3       20 UNK        -0.1800 
    112 C         -3.3955  -19.3962  -54.8781 C.2       20 UNK         0.5000 
    113 O         -2.6268  -19.0079  -55.7611 O.2       20 UNK        -0.5000 
    114 N         -3.7011  -20.6917  -54.6975 N.am      21 UNK        -0.5000 
    115 CA        -3.1876  -21.7928  -55.5263 C.3       21 UNK         0.1400 
    116 CB        -4.0014  -23.0640  -55.2530 C.3       21 UNK        -0.1800 
    117 C         -1.6722  -22.0513  -55.3687 C.2       21 UNK         0.5000 
    118 O         -1.0980  -22.8050  -56.1554 O.2       21 UNK        -0.5000 
    119 N         -1.0498  -21.3914  -54.3853 N.am      22 UNK        -0.5000 
    120 CA         0.4009  -21.2084  -54.2422 C.3       22 UNK         0.1400 
    121 C          1.0773  -20.4362  -55.4174 C.2       22 UNK         0.5000 
    122 N          0.3503  -19.6554  -56.2109 N.am      22 UNK        -0.7600 
    123 O          2.2834  -20.5559  -55.6143 O.2       22 UNK        -0.5000 
    124 C124        0.7448  -20.5482  -52.8795 C.3       23 UNK        -0.0398 
    125 S125       -0.1697  -18.9868  -52.5946 S.3       23 UNK        -0.2404 
    126 C126       -0.4183  -19.0052  -50.7954 C.3       23 UNK        -0.0205 
    127 H127        2.5125   -9.7237  -50.3558 H         1 UNK         0.0600 
    128 H128        1.7662   -8.9549  -48.9510 H         1 UNK         0.0600 
    129 H129        0.7772   -9.8929  -50.0743 H         1 UNK         0.0600 
    130 H130        0.2273  -11.8941  -49.2380 H         1 UNK         0.3000 
    131 H131        2.1611  -13.7344  -48.2803 H         1 UNK         0.0600 
    132 H132        0.2239  -15.2696  -47.9173 H         1 UNK         0.0800 
    133 H133        0.3481  -14.5815  -49.5061 H         1 UNK         0.0800 
    134 H134       -1.6652  -14.0664  -50.7479 H         1 UNK         0.0800 
    135 H135       -3.2630  -13.9025  -50.0794 H         1 UNK         0.0800 
    136 H136       -0.4587  -16.3061  -50.5923 H         1 UNK         0.1150 
    137 H137       -2.9546  -19.7386  -50.2033 H         1 UNK         0.1150 
    138 H138       -4.5438  -15.8407  -49.3723 H         1 UNK         0.1150 
    139 H139       -5.7753  -17.8928  -48.6497 H         1 UNK         0.0800 
    140 H140       -5.9222  -18.2064  -50.3514 H         1 UNK         0.0800 
    141 H141       -5.8610  -20.9163  -46.9013 H         1 UNK         0.0800 
    142 H142       -5.1955  -19.3206  -46.9626 H         1 UNK         0.0800 
    143 H143       -2.9694  -20.5318  -47.7807 H         1 UNK         0.0600 
    144 H144       -2.3245  -19.7023  -45.9155 H         1 UNK         0.3000 
    145 H145       -3.8753  -18.9819  -42.8506 H         1 UNK         0.0600 
    146 H146       -1.7092  -19.5956  -41.7898 H         1 UNK         0.0600 
    147 H147       -2.6452  -21.0386  -42.1405 H         1 UNK         0.0600 
    148 H148       -1.2911  -20.6045  -43.1736 H         1 UNK         0.0600 
    149 H149       -1.3483  -18.2110  -43.8799 H         1 UNK         0.3000 
    150 H150       -2.3475  -16.0112  -46.4222 H         1 UNK         0.0600 
    151 H151       -2.7199  -14.4358  -44.6274 H         1 UNK         0.0600 
    152 H152       -1.0219  -14.3186  -45.0432 H         1 UNK         0.0600 
    153 H153       -1.5288  -15.1930  -43.5912 H         1 UNK         0.0600 
    154 H154        0.2043  -16.4542  -45.2513 H         1 UNK         0.3000 
    155 H155        0.9985  -19.2024  -47.4854 H         1 UNK         0.0600 
    156 H156        2.1146  -16.5342  -46.5209 H         1 UNK         0.0600 
    157 H157        1.7364  -16.9792  -48.1855 H         1 UNK         0.0600 
    158 H158        3.0230  -17.8031  -47.3293 H         1 UNK         0.0600 
    159 H159        2.1856  -18.4863  -44.9548 H         1 UNK         0.3000 
    160 H160        1.1796  -21.5818  -43.4016 H         1 UNK         0.0600 
    161 H161        3.8669  -20.5376  -44.4387 H         1 UNK         0.0600 
    162 H162        3.1293  -22.0746  -44.8801 H         1 UNK         0.0600 
    163 H163        3.6381  -21.7926  -43.2220 H         1 UNK         0.0600 
    164 H164        2.2793  -18.8271  -43.0125 H         1 UNK         0.3000 
    165 H165        0.8419  -18.6891  -39.8432 H         1 UNK         0.0600 
    166 H166        3.0480  -18.1702  -38.8299 H         1 UNK         0.0600 
    167 H167        2.8817  -19.9033  -39.0536 H         1 UNK         0.0600 
    168 H168        3.8788  -18.9719  -40.1644 H         1 UNK         0.0600 
    169 H169        2.7460  -16.9440  -41.0128 H         1 UNK         0.3000 
    170 H170        0.6900  -15.3111  -43.3468 H         1 UNK         0.0600 
    171 H171       -0.1836  -14.4315  -41.1525 H         1 UNK         0.0600 
    172 H172        1.4635  -14.3615  -40.5377 H         1 UNK         0.0600 
    173 H173        0.9725  -13.3379  -41.8822 H         1 UNK         0.0600 
    174 H174        3.0798  -14.3598  -42.5794 H         1 UNK         0.3000 
    175 H175        5.4107  -15.5471  -43.2763 H         1 UNK         0.0600 
    176 H176        4.6775  -16.2744  -46.1672 H         1 UNK         0.0600 
    177 H177        6.2963  -15.8978  -45.5834 H         1 UNK         0.0600 
    178 H178        5.4747  -17.3423  -45.0154 H         1 UNK         0.0600 
    179 H179        3.6582  -13.9091  -45.0090 H         1 UNK         0.3000 
    180 H180        5.2135  -10.9791  -43.9474 H         1 UNK         0.0600 
    181 H181        5.4983  -11.9583  -46.8388 H         1 UNK         0.0600 
    182 H182        6.7993  -11.3246  -45.8376 H         1 UNK         0.0600 
    183 H183        5.4780  -10.2728  -46.3222 H         1 UNK         0.0600 
    184 H184        3.2418  -11.4549  -45.9751 H         1 UNK         0.3000 
    185 H185        0.5350  -12.3193  -43.9357 H         1 UNK         0.0600 
    186 H186        0.5347   -9.9032  -43.2878 H         1 UNK         0.0600 
    187 H187        0.9497   -9.4514  -44.9373 H         1 UNK         0.0600 
    188 H188       -0.6026  -10.2148  -44.5890 H         1 UNK         0.0600 
    189 H189        0.5952  -11.2663  -46.5765 H         1 UNK         0.3000 
    190 H190       -4.2375  -22.4728  -45.1265 H         1 UNK         0.3000 
    191 H191       -4.6990  -24.9098  -46.4308 H         1 UNK         0.0600 
    192 H192       -5.5510  -24.3644  -44.1820 H         1 UNK         0.0600 
    193 H193       -3.9149  -24.3674  -43.5247 H         1 UNK         0.0600 
    194 H194       -4.6313  -25.8598  -44.1240 H         1 UNK         0.0600 
    195 H195       -1.6352  -23.6497  -45.1397 H         1 UNK         0.3000 
    196 H196       -0.2377  -26.2060  -45.5022 H         1 UNK         0.0600 
    197 H197        1.7264  -24.9349  -44.6875 H         1 UNK         0.0600 
    198 H198        0.3557  -24.7179  -43.6091 H         1 UNK         0.0600 
    199 H199        0.8070  -23.4388  -44.7332 H         1 UNK         0.0600 
    200 H200       -0.0823  -22.9128  -46.9655 H         1 UNK         0.3000 
    201 H201        1.9358  -23.6873  -48.8489 H         1 UNK         0.0600 
    202 H202        1.8722  -21.4413  -47.9050 H         1 UNK         0.0600 
    203 H203        0.2546  -21.1568  -48.5492 H         1 UNK         0.0600 
    204 H204        1.6321  -21.3126  -49.6394 H         1 UNK         0.0600 
    205 H205       -1.6166  -23.3431  -49.1459 H         1 UNK         0.3000 
    206 H206       -1.4331  -23.9304  -52.0837 H         1 UNK         0.0600 
    207 H207       -1.8941  -21.5116  -51.5511 H         1 UNK         0.0600 
    208 H208       -3.2254  -22.2873  -52.3680 H         1 UNK         0.0600 
    209 H209       -3.3235  -22.0050  -50.6396 H         1 UNK         0.0600 
    210 H210       -2.2549  -25.4347  -49.3471 H         1 UNK         0.3000 
    211 H211       -3.6804  -27.0093  -48.6725 H         1 UNK         0.0600 
    212 H212       -4.3643  -27.4436  -51.6224 H         1 UNK         0.0600 
    213 H213       -4.5820  -28.5917  -50.3100 H         1 UNK         0.0600 
    214 H214       -2.9622  -28.1247  -50.7981 H         1 UNK         0.0600 
    215 H215       -4.6210  -24.2739  -48.8417 H         1 UNK         0.3000 
    216 H216       -6.3258  -23.0188  -48.3116 H         1 UNK         0.0600 
    217 H217       -8.3937  -23.9002  -47.3493 H         1 UNK         0.0600 
    218 H218       -7.0432  -24.8399  -46.7469 H         1 UNK         0.0600 
    219 H219       -8.0874  -25.4985  -48.0055 H         1 UNK         0.0600 
    220 H220       -5.9773  -24.1994  -51.2216 H         1 UNK         0.3000 
    221 H221       -8.5263  -23.2766  -52.4165 H         1 UNK         0.0600 
    222 H222       -5.9502  -24.3863  -53.6339 H         1 UNK         0.0600 
    223 H223       -7.4816  -25.2304  -53.4587 H         1 UNK         0.0600 
    224 H224       -7.3551  -23.8637  -54.5573 H         1 UNK         0.0600 
    225 H225       -8.7803  -21.2351  -53.0698 H         1 UNK         0.3000 
    226 H226       -7.3904  -19.1580  -52.0173 H         1 UNK         0.0600 
    227 H227       -9.7171  -19.0103  -52.7527 H         1 UNK         0.0600 
    228 H228       -8.7965  -17.7320  -53.5282 H         1 UNK         0.0600 
    229 H229       -9.2472  -19.1642  -54.4456 H         1 UNK         0.0600 
    230 H230       -5.2432  -18.9884  -52.3047 H         1 UNK         0.3000 
    231 H231       -3.2960  -18.3245  -53.0562 H         1 UNK         0.0600 
    232 H232       -3.1434  -16.5801  -54.7799 H         1 UNK         0.0600 
    233 H233       -4.5224  -16.2613  -53.7432 H         1 UNK         0.0600 
    234 H234       -4.7666  -16.9389  -55.3539 H         1 UNK         0.0600 
    235 H235       -4.3422  -20.9436  -53.9506 H         1 UNK         0.3000 
    236 H236       -3.3494  -21.5174  -56.5705 H         1 UNK         0.0600 
    237 H237       -3.6982  -23.8743  -55.9169 H         1 UNK         0.0600 
    238 H238       -3.8699  -23.4154  -54.2311 H         1 UNK         0.0600 
    239 H239       -5.0644  -22.8901  -55.4187 H         1 UNK         0.0600 
    240 H240       -1.6126  -20.7881  -53.8054 H         1 UNK         0.3000 
    241 H241        0.8443  -22.2059  -54.2435 H         1 UNK         0.0600 
    242 H242       -0.6398  -19.5156  -56.0423 H         1 UNK         0.3800 
    243 H243        0.7994  -19.1651  -56.9678 H         1 UNK         0.3800 
    244 H244        0.5084  -21.2505  -52.0811 H         1 UNK         0.0800 
    245 H245        1.8156  -20.3561  -52.7919 H         1 UNK         0.0800 
    246 H246       -0.5994  -20.0201  -50.4452 H         1 UNK         0.0800 
    247 H247        0.4927  -18.6683  -50.2988 H         1 UNK         0.0800 
@<TRIPOS>BOND
     1    1    2 1    
     2    1  127 1    
     3    1  128 1    
     4    1  129 1    
     5    2    3 2    
     6    2    4 am   BACKBONE|DICT|INTERRES
     7    4    5 1    
     8    4  130 1    
     9    5    6 1    
    10    5   65 1    
    11    5  131 1    
    12    6    7 1    
    13    6  132 1    
    14    6  133 1    
    15    7    8 1    
    16    8    9 1    
    17    8  134 1    
    18    8  135 1    
    19    9   10 ar   
    20    9   14 ar   
    21   10   11 ar   
    22   10  136 1    
    23   11   12 ar   
    24   11  126 1    
    25   12   13 ar   
    26   12  137 1    
    27   13   14 ar   
    28   13   15 1    
    29   14  138 1    
    30   15   16 1    
    31   15  139 1    
    32   15  140 1    
    33   16   17 1    
    34   17   18 1    
    35   17  141 1    
    36   17  142 1    
    37   18   19 1    
    38   18   67 1    
    39   18  143 1    
    40   19   20 am   BACKBONE|DICT|INTERRES
    41   19  144 1    
    42   20   21 2    
    43   20   22 1    
    44   22   23 1    
    45   22   24 1    
    46   22  145 1    
    47   23  146 1    
    48   23  147 1    
    49   23  148 1    
    50   24   25 am   BACKBONE|DICT|INTERRES
    51   24  149 1    
    52   25   26 2    
    53   25   27 1    
    54   27   28 1    
    55   27   29 1    
    56   27  150 1    
    57   28  151 1    
    58   28  152 1    
    59   28  153 1    
    60   29   30 am   BACKBONE|DICT|INTERRES
    61   29  154 1    
    62   30   31 2    
    63   30   32 1    
    64   32   33 1    
    65   32   34 1    
    66   32  155 1    
    67   33  156 1    
    68   33  157 1    
    69   33  158 1    
    70   34   35 am   BACKBONE|DICT|INTERRES
    71   34  159 1    
    72   35   36 2    
    73   35   37 1    
    74   37   38 1    
    75   37   39 1    
    76   37  160 1    
    77   38  161 1    
    78   38  162 1    
    79   38  163 1    
    80   39   40 am   BACKBONE|DICT|INTERRES
    81   39  164 1    
    82   40   41 2    
    83   40   42 1    
    84   42   43 1    
    85   42   44 1    
    86   42  165 1    
    87   43  166 1    
    88   43  167 1    
    89   43  168 1    
    90   44   45 am   BACKBONE|DICT|INTERRES
    91   44  169 1    
    92   45   46 2    
    93   45   47 1    
    94   47   48 1    
    95   47   49 1    
    96   47  170 1    
    97   48  171 1    
    98   48  172 1    
    99   48  173 1    
   100   49   50 am   BACKBONE|DICT|INTERRES
   101   49  174 1    
   102   50   51 2    
   103   50   52 1    
   104   52   53 1    
   105   52   54 1    
   106   52  175 1    
   107   53  176 1    
   108   53  177 1    
   109   53  178 1    
   110   54   55 am   BACKBONE|DICT|INTERRES
   111   54  179 1    
   112   55   56 2    
   113   55   57 1    
   114   57   58 1    
   115   57   59 1    
   116   57  180 1    
   117   58  181 1    
   118   58  182 1    
   119   58  183 1    
   120   59   60 am   BACKBONE|DICT|INTERRES
   121   59  184 1    
   122   60   61 2    
   123   60   62 1    
   124   62   63 1    
   125   62   64 1    
   126   62  185 1    
   127   63  186 1    
   128   63  187 1    
   129   63  188 1    
   130   64   65 am   BACKBONE|DICT|INTERRES
   131   64  189 1    
   132   65   66 2    
   133   67   68 2    
   134   67   69 am   BACKBONE|DICT|INTERRES
   135   69   70 1    
   136   69  190 1    
   137   70   71 1    
   138   70   72 1    
   139   70  191 1    
   140   71  192 1    
   141   71  193 1    
   142   71  194 1    
   143   72   73 2    
   144   72   74 am   BACKBONE|DICT|INTERRES
   145   74   75 1    
   146   74  195 1    
   147   75   76 1    
   148   75   77 1    
   149   75  196 1    
   150   76  197 1    
   151   76  198 1    
   152   76  199 1    
   153   77   78 2    
   154   77   79 am   BACKBONE|DICT|INTERRES
   155   79   80 1    
   156   79  200 1    
   157   80   81 1    
   158   80   82 1    
   159   80  201 1    
   160   81  202 1    
   161   81  203 1    
   162   81  204 1    
   163   82   83 2    
   164   82   84 am   BACKBONE|DICT|INTERRES
   165   84   85 1    
   166   84  205 1    
   167   85   86 1    
   168   85   87 1    
   169   85  206 1    
   170   86  207 1    
   171   86  208 1    
   172   86  209 1    
   173   87   88 2    
   174   87   89 am   BACKBONE|DICT|INTERRES
   175   89   90 1    
   176   89  210 1    
   177   90   91 1    
   178   90   92 1    
   179   90  211 1    
   180   91  212 1    
   181   91  213 1    
   182   91  214 1    
   183   92   93 2    
   184   92   94 am   BACKBONE|DICT|INTERRES
   185   94   95 1    
   186   94  215 1    
   187   95   96 1    
   188   95   97 1    
   189   95  216 1    
   190   96  217 1    
   191   96  218 1    
   192   96  219 1    
   193   97   98 2    
   194   97   99 am   BACKBONE|DICT|INTERRES
   195   99  100 1    
   196   99  220 1    
   197  100  101 1    
   198  100  102 1    
   199  100  221 1    
   200  101  222 1    
   201  101  223 1    
   202  101  224 1    
   203  102  103 2    
   204  102  104 am   BACKBONE|DICT|INTERRES
   205  104  105 1    
   206  104  225 1    
   207  105  106 1    
   208  105  107 1    
   209  105  226 1    
   210  106  227 1    
   211  106  228 1    
   212  106  229 1    
   213  107  108 2    
   214  107  109 am   BACKBONE|DICT|INTERRES
   215  109  110 1    
   216  109  230 1    
   217  110  111 1    
   218  110  112 1    
   219  110  231 1    
   220  111  232 1    
   221  111  233 1    
   222  111  234 1    
   223  112  113 2    
   224  112  114 am   BACKBONE|DICT|INTERRES
   225  114  115 1    
   226  114  235 1    
   227  115  116 1    
   228  115  117 1    
   229  115  236 1    
   230  116  237 1    
   231  116  238 1    
   232  116  239 1    
   233  117  118 2    
   234  117  119 am   BACKBONE|DICT|INTERRES
   235  119  120 1    
   236  119  240 1    
   237  120  121 1    
   238  120  124 1    
   239  120  241 1    
   240  121  122 am   BACKBONE|DICT|INTERRES
   241  121  123 2    
   242  122  242 1    
   243  122  243 1    
   244  124  125 1    
   245  124  244 1    
   246  124  245 1    
   247  125  126 1    
   248  126  246 1    
   249  126  247 1    
@<TRIPOS>SUBSTRUCTURE
     1 UNK         1 GROUP             0       ****    0 ROOT    
