@<TRIPOS>MOLECULE
3R540
247   249    1
SMALL
USER_CHARGES


@<TRIPOS>ATOM
      1 CA          3.5435  -19.2188  -46.1377 C.3       0 UNK        -0.1800 
      2 C           4.0001  -17.9147  -46.7773 C.2       0 UNK         0.5000 
      3 O           5.0521  -17.8778  -47.4148 O.2       0 UNK        -0.5000 
      4 N           3.2047  -16.8522  -46.5996 N.am      1 UNK        -0.5000 
      5 CA          3.4267  -15.4857  -47.0985 C.3       1 UNK         0.1400 
      6 C6          3.5570  -15.3710  -48.6433 C.3       23 UNK        -0.0398 
      7 S7          2.2379  -16.2651  -49.5309 S.3       23 UNK        -0.2404 
      8 C8          1.1092  -14.9321  -50.0311 C.3       23 UNK        -0.0205 
      9 C9         -0.1156  -15.5076  -50.7280 C.ar      23 UNK        -0.0193 
     10 C10         0.0243  -16.1477  -51.9628 C.ar      23 UNK        -0.1150 
     11 C11        -1.0813  -16.7035  -52.6113 C.ar      23 UNK        -0.0193 
     12 C12        -2.3406  -16.6046  -52.0114 C.ar      23 UNK        -0.1150 
     13 C13        -2.5045  -15.9467  -50.7869 C.ar      23 UNK        -0.0193 
     14 C14        -1.3840  -15.4040  -50.1484 C.ar      23 UNK        -0.1150 
     15 C15        -3.8961  -15.7484  -50.1941 C.3       23 UNK        -0.0205 
     16 S16        -4.9365  -17.2468  -50.2599 S.3       23 UNK        -0.2404 
     17 C17        -4.9160  -17.8604  -48.5462 C.3       23 UNK        -0.0398 
     18 CA         -4.1091  -19.1711  -48.4041 C.3       11 UNK         0.1400 
     19 N          -2.6747  -18.9452  -48.6025 N.am      11 UNK        -0.5000 
     20 C          -1.7291  -19.8918  -48.6622 C.2       10 UNK         0.5000 
     21 O          -1.9744  -21.0974  -48.6740 O.2       10 UNK        -0.5000 
     22 CA         -0.2652  -19.4122  -48.6275 C.3       10 UNK         0.1400 
     23 CB          0.3225  -19.3715  -50.0426 C.3       10 UNK        -0.1800 
     24 N          -0.1078  -18.1030  -47.9807 N.am      10 UNK        -0.5000 
     25 C          -0.3867  -17.8623  -46.6922 C.2       9 UNK         0.5000 
     26 O          -0.7558  -18.7341  -45.9056 O.2       9 UNK        -0.5000 
     27 CA         -0.3513  -16.4033  -46.2311 C.3       9 UNK         0.1400 
     28 CB         -1.7693  -15.8057  -46.2910 C.3       9 UNK        -0.1800 
     29 N           0.1614  -16.3184  -44.8643 N.am      9 UNK        -0.5000 
     30 C           0.6751  -15.2035  -44.3231 C.2       8 UNK         0.5000 
     31 O           0.8142  -14.1552  -44.9528 O.2       8 UNK        -0.5000 
     32 CA          1.1195  -15.2384  -42.8456 C.3       8 UNK         0.1400 
     33 CB          0.0532  -14.5979  -41.9455 C.3       8 UNK        -0.1800 
     34 N           1.4236  -16.5711  -42.3322 N.am      8 UNK        -0.5000 
     35 C           2.4286  -17.3505  -42.7493 C.2       7 UNK         0.5000 
     36 O           3.2329  -17.0026  -43.6117 O.2       7 UNK        -0.5000 
     37 CA          2.5580  -18.7549  -42.1269 C.3       7 UNK         0.1400 
     38 CB          3.8521  -18.8696  -41.3066 C.3       7 UNK        -0.1800 
     39 N           1.4184  -19.1504  -41.2938 N.am      7 UNK        -0.5000 
     40 C           0.1864  -19.4106  -41.7555 C.2       6 UNK         0.5000 
     41 O          -0.1199  -19.3146  -42.9403 O.2       6 UNK        -0.5000 
     42 CA         -0.8913  -19.8111  -40.7309 C.3       6 UNK         0.1400 
     43 CB         -1.0754  -21.3357  -40.7139 C.3       6 UNK        -0.1800 
     44 N          -0.5937  -19.3423  -39.3767 N.am      6 UNK        -0.5000 
     45 C          -0.6753  -18.0630  -38.9872 C.2       5 UNK         0.5000 
     46 O          -1.0915  -17.1605  -39.7176 O.2       5 UNK        -0.5000 
     47 CA         -0.2053  -17.7276  -37.5522 C.3       5 UNK         0.1400 
     48 CB          0.6438  -18.8403  -36.8959 C.3       5 UNK        -0.1800 
     49 N           0.5096  -16.4474  -37.4759 N.am      5 UNK        -0.5000 
     50 C           1.5787  -16.0766  -38.1961 C.2       4 UNK         0.5000 
     51 O           2.1080  -16.7899  -39.0495 O.2       4 UNK        -0.5000 
     52 CA          2.1439  -14.6795  -37.8685 C.3       4 UNK         0.1400 
     53 CB          3.1702  -14.7529  -36.7208 C.3       4 UNK        -0.1800 
     54 N           2.6867  -13.9618  -39.0293 N.am      4 UNK        -0.5000 
     55 C           3.7834  -14.2311  -39.7518 C.2       3 UNK         0.5000 
     56 O           4.5767  -15.1504  -39.5315 O.2       3 UNK        -0.5000 
     57 CA          4.0633  -13.2623  -40.9080 C.3       3 UNK         0.1400 
     58 CB          4.8217  -12.0165  -40.4155 C.3       3 UNK        -0.1800 
     59 N           4.8500  -13.9567  -41.9196 N.am      3 UNK        -0.5000 
     60 C           4.8935  -13.6469  -43.2187 C.2       2 UNK         0.5000 
     61 O           4.2905  -12.6872  -43.7025 O.2       2 UNK        -0.5000 
     62 CA          5.7241  -14.5578  -44.1432 C.3       2 UNK         0.1400 
     63 CB          6.5061  -15.6650  -43.4068 C.3       2 UNK        -0.1800 
     64 N           4.8151  -15.1843  -45.0942 N.am      2 UNK        -0.5000 
     65 C           4.5634  -14.7614  -46.3399 C.2       1 UNK         0.5000 
     66 O           5.1727  -13.8367  -46.8812 O.2       1 UNK        -0.5000 
     67 C          -4.4439  -19.8427  -47.0525 C.2       11 UNK         0.5000 
     68 O          -5.5051  -20.4570  -46.9498 O.2       11 UNK        -0.5000 
     69 N          -3.5591  -19.7255  -46.0532 N.am      12 UNK        -0.5000 
     70 CA         -3.7012  -20.3678  -44.7487 C.3       12 UNK         0.1400 
     71 CB         -3.4931  -19.3222  -43.6436 C.3       12 UNK        -0.1800 
     72 C          -2.7224  -21.5445  -44.6027 C.2       12 UNK         0.5000 
     73 O          -3.1242  -22.5978  -44.1078 O.2       12 UNK        -0.5000 
     74 N          -1.4680  -21.3618  -45.0412 N.am      13 UNK        -0.5000 
     75 CA         -0.4012  -22.3576  -44.9180 C.3       13 UNK         0.1400 
     76 CB          0.9583  -21.7023  -45.2099 C.3       13 UNK        -0.1800 
     77 C          -0.5928  -23.5919  -45.8176 C.2       13 UNK         0.5000 
     78 O          -0.3081  -24.7054  -45.3744 O.2       13 UNK        -0.5000 
     79 N          -1.0431  -23.3743  -47.0603 N.am      14 UNK        -0.5000 
     80 CA         -1.1554  -24.4072  -48.0949 C.3       14 UNK         0.1400 
     81 CB         -0.1581  -24.0725  -49.2184 C.3       14 UNK        -0.1800 
     82 C          -2.5787  -24.5343  -48.6666 C.2       14 UNK         0.5000 
     83 O          -2.8248  -25.4583  -49.4426 O.2       14 UNK        -0.5000 
     84 N          -3.4746  -23.6015  -48.3063 N.am      15 UNK        -0.5000 
     85 CA         -4.8163  -23.4013  -48.8685 C.3       15 UNK         0.1400 
     86 CB         -5.7440  -24.5881  -48.5355 C.3       15 UNK        -0.1800 
     87 C          -4.7703  -23.0701  -50.3757 C.2       15 UNK         0.5000 
     88 O          -5.6231  -23.5305  -51.1345 O.2       15 UNK        -0.5000 
     89 N          -3.7555  -22.2922  -50.7845 N.am      16 UNK        -0.5000 
     90 CA         -3.3468  -22.0858  -52.1772 C.3       16 UNK         0.1400 
     91 CB         -2.1194  -21.1657  -52.2164 C.3       16 UNK        -0.1800 
     92 C          -4.4359  -21.5628  -53.1300 C.2       16 UNK         0.5000 
     93 O          -4.4491  -21.9617  -54.2950 O.2       16 UNK        -0.5000 
     94 N          -5.3261  -20.6924  -52.6384 N.am      17 UNK        -0.5000 
     95 CA         -6.4473  -20.1622  -53.4179 C.3       17 UNK         0.1400 
     96 CB         -6.9775  -18.8819  -52.7589 C.3       17 UNK        -0.1800 
     97 C          -7.5806  -21.1873  -53.6075 C.2       17 UNK         0.5000 
     98 O          -8.1957  -21.2158  -54.6731 O.2       17 UNK        -0.5000 
     99 N          -7.8232  -22.0226  -52.5877 N.am      18 UNK        -0.5000 
    100 CA        -8.8285  -23.0882  -52.6120 C.3       18 UNK         0.1400 
    101 CB        -9.1711  -23.5021  -51.1728 C.3       18 UNK        -0.1800 
    102 C         -8.3537  -24.3004  -53.4317 C.2       18 UNK         0.5000 
    103 O         -9.1493  -24.9041  -54.1517 O.2       18 UNK        -0.5000 
    104 N         -7.0534  -24.6063  -53.3326 N.am      19 UNK        -0.5000 
    105 CA        -6.3599  -25.6376  -54.1048 C.3       19 UNK         0.1400 
    106 CB        -5.0023  -25.9112  -53.4374 C.3       19 UNK        -0.1800 
    107 C         -6.1555  -25.2605  -55.5866 C.2       19 UNK         0.5000 
    108 O         -5.8325  -26.1381  -56.3878 O.2       19 UNK        -0.5000 
    109 N         -6.3201  -23.9686  -55.9125 N.am      20 UNK        -0.5000 
    110 CA        -6.0822  -23.3330  -57.2135 C.3       20 UNK         0.1400 
    111 CB        -7.0447  -23.8795  -58.2883 C.3       20 UNK        -0.1800 
    112 C         -4.5988  -23.3830  -57.6395 C.2       20 UNK         0.5000 
    113 O         -4.2926  -23.4220  -58.8326 O.2       20 UNK        -0.5000 
    114 N         -3.7039  -23.3688  -56.6439 N.am      21 UNK        -0.5000 
    115 CA        -2.2581  -23.2593  -56.8119 C.3       21 UNK         0.1400 
    116 CB        -1.5626  -23.8553  -55.5783 C.3       21 UNK        -0.1800 
    117 C         -1.8380  -21.7941  -57.0189 C.2       21 UNK         0.5000 
    118 O         -0.8922  -21.5347  -57.7638 O.2       21 UNK        -0.5000 
    119 N         -2.5557  -20.8664  -56.3697 N.am      22 UNK        -0.5000 
    120 CA        -2.4209  -19.4202  -56.5772 C.3       22 UNK         0.1400 
    121 C         -3.0465  -18.9779  -57.9301 C.2       22 UNK         0.5000 
    122 N         -2.3891  -18.0979  -58.6725 N.am      22 UNK        -0.7600 
    123 O         -4.1408  -19.4032  -58.2943 O.2       22 UNK        -0.5000 
    124 C124       -3.0094  -18.6203  -55.3851 C.3       23 UNK        -0.0398 
    125 S125       -2.1666  -17.0137  -55.1806 S.3       23 UNK        -0.2404 
    126 C126       -0.8892  -17.4245  -53.9415 C.3       23 UNK        -0.0205 
    127 H127        4.2571  -19.5335  -45.3763 H         1 UNK         0.0600 
    128 H128        3.4728  -20.0038  -46.8905 H         1 UNK         0.0600 
    129 H129        2.5666  -19.1147  -45.6649 H         1 UNK         0.0600 
    130 H130        2.4074  -16.9568  -45.9903 H         1 UNK         0.3000 
    131 H131        2.5274  -14.9332  -46.8294 H         1 UNK         0.0600 
    132 H132        4.5151  -15.7726  -48.9759 H         1 UNK         0.0800 
    133 H133        3.5472  -14.3246  -48.9528 H         1 UNK         0.0800 
    134 H134        1.6255  -14.2500  -50.7082 H         1 UNK         0.0800 
    135 H135        0.8220  -14.3498  -49.1541 H         1 UNK         0.0800 
    136 H136        1.0057  -16.2265  -52.4095 H         1 UNK         0.1150 
    137 H137       -3.2023  -17.0228  -52.5117 H         1 UNK         0.1150 
    138 H138       -1.5007  -14.8770  -49.2126 H         1 UNK         0.1150 
    139 H139       -4.3936  -14.9699  -50.7737 H         1 UNK         0.0800 
    140 H140       -3.8394  -15.3682  -49.1739 H         1 UNK         0.0800 
    141 H141       -5.9605  -18.0196  -48.2702 H         1 UNK         0.0800 
    142 H142       -4.5425  -17.0956  -47.8639 H         1 UNK         0.0800 
    143 H143       -4.4395  -19.8632  -49.1812 H         1 UNK         0.0600 
    144 H144       -2.3804  -17.9822  -48.6506 H         1 UNK         0.3000 
    145 H145        0.3044  -20.1412  -48.0507 H         1 UNK         0.0600 
    146 H146        0.3017  -20.3603  -50.5000 H         1 UNK         0.0600 
    147 H147        1.3640  -19.0521  -50.0310 H         1 UNK         0.0600 
    148 H148       -0.2342  -18.6954  -50.6905 H         1 UNK         0.0600 
    149 H149        0.2155  -17.3513  -48.5756 H         1 UNK         0.3000 
    150 H150        0.3014  -15.8464  -46.9055 H         1 UNK         0.0600 
    151 H151       -2.4304  -16.2742  -45.5604 H         1 UNK         0.0600 
    152 H152       -2.2209  -15.9458  -47.2723 H         1 UNK         0.0600 
    153 H153       -1.7572  -14.7343  -46.0906 H         1 UNK         0.0600 
    154 H154        0.0718  -17.1639  -44.3103 H         1 UNK         0.3000 
    155 H155        2.0298  -14.6421  -42.7730 H         1 UNK         0.0600 
    156 H156        0.3874  -14.5504  -40.9091 H         1 UNK         0.0600 
    157 H157       -0.8804  -15.1618  -41.9684 H         1 UNK         0.0600 
    158 H158       -0.1688  -13.5784  -42.2636 H         1 UNK         0.0600 
    159 H159        0.8230  -16.9249  -41.6003 H         1 UNK         0.3000 
    160 H160        2.6243  -19.4615  -42.9565 H         1 UNK         0.0600 
    161 H161        4.7254  -18.6522  -41.9230 H         1 UNK         0.0600 
    162 H162        3.9803  -19.8758  -40.9077 H         1 UNK         0.0600 
    163 H163        3.8632  -18.1708  -40.4698 H         1 UNK         0.0600 
    164 H164        1.5805  -19.1816  -40.2977 H         1 UNK         0.3000 
    165 H165       -1.8313  -19.3578  -41.0504 H         1 UNK         0.0600 
    166 H166       -1.3350  -21.7073  -41.7060 H         1 UNK         0.0600 
    167 H167       -0.1661  -21.8487  -40.3983 H         1 UNK         0.0600 
    168 H168       -1.8799  -21.6287  -40.0391 H         1 UNK         0.0600 
    169 H169       -0.2499  -20.0299  -38.7219 H         1 UNK         0.3000 
    170 H170       -1.1127  -17.6084  -36.9587 H         1 UNK         0.0600 
    171 H171        0.9649  -18.5457  -35.8966 H         1 UNK         0.0600 
    172 H172        1.5403  -19.0641  -37.4755 H         1 UNK         0.0600 
    173 H173        0.0757  -19.7643  -36.7829 H         1 UNK         0.0600 
    174 H174        0.1263  -15.7841  -36.8173 H         1 UNK         0.3000 
    175 H175        1.3105  -14.0662  -37.5220 H         1 UNK         0.0600 
    176 H176        4.0124  -15.4000  -36.9668 H         1 UNK         0.0600 
    177 H177        2.7123  -15.1521  -35.8151 H         1 UNK         0.0600 
    178 H178        3.5636  -13.7658  -36.4777 H         1 UNK         0.0600 
    179 H179        2.1268  -13.1732  -39.3212 H         1 UNK         0.3000 
    180 H180        3.1080  -12.9574  -41.3407 H         1 UNK         0.0600 
    181 H181        4.2556  -11.4909  -39.6457 H         1 UNK         0.0600 
    182 H182        4.9950  -11.3104  -41.2277 H         1 UNK         0.0600 
    183 H183        5.7902  -12.2806  -39.9892 H         1 UNK         0.0600 
    184 H184        5.3246  -14.7835  -41.5776 H         1 UNK         0.3000 
    185 H185        6.4449  -13.9243  -44.6638 H         1 UNK         0.0600 
    186 H186        5.8461  -16.3493  -42.8719 H         1 UNK         0.0600 
    187 H187        7.0890  -16.2590  -44.1110 H         1 UNK         0.0600 
    188 H188        7.2089  -15.2418  -42.6880 H         1 UNK         0.0600 
    189 H189        4.2390  -15.9318  -44.7115 H         1 UNK         0.3000 
    190 H190       -2.6904  -19.2277  -46.2083 H         1 UNK         0.3000 
    191 H191       -4.7082  -20.7718  -44.6249 H         1 UNK         0.0600 
    192 H192       -4.2691  -18.5577  -43.6797 H         1 UNK         0.0600 
    193 H193       -3.5377  -19.7839  -42.6571 H         1 UNK         0.0600 
    194 H194       -2.5314  -18.8190  -43.7370 H         1 UNK         0.0600 
    195 H195       -1.1865  -20.4346  -45.3513 H         1 UNK         0.3000 
    196 H196       -0.3874  -22.7031  -43.8822 H         1 UNK         0.0600 
    197 H197        1.7713  -22.4194  -45.0900 H         1 UNK         0.0600 
    198 H198        1.1575  -20.8765  -44.5299 H         1 UNK         0.0600 
    199 H199        1.0117  -21.3164  -46.2265 H         1 UNK         0.0600 
    200 H200       -1.2531  -22.4276  -47.3560 H         1 UNK         0.3000 
    201 H201       -0.8966  -25.3887  -47.6931 H         1 UNK         0.0600 
    202 H202       -0.1812  -24.8285  -50.0043 H         1 UNK         0.0600 
    203 H203        0.8628  -24.0319  -48.8386 H         1 UNK         0.0600 
    204 H204       -0.3810  -23.1108  -49.6818 H         1 UNK         0.0600 
    205 H205       -3.1518  -22.8742  -47.6850 H         1 UNK         0.3000 
    206 H206       -5.2313  -22.5225  -48.3812 H         1 UNK         0.0600 
    207 H207       -5.7295  -24.8125  -47.4690 H         1 UNK         0.0600 
    208 H208       -6.7761  -24.3618  -48.8035 H         1 UNK         0.0600 
    209 H209       -5.4597  -25.4926  -49.0739 H         1 UNK         0.0600 
    210 H210       -3.1084  -21.9571  -50.0780 H         1 UNK         0.3000 
    211 H211       -3.0424  -23.0630  -52.5560 H         1 UNK         0.0600 
    212 H212       -1.2947  -21.5999  -51.6528 H         1 UNK         0.0600 
    213 H213       -1.7667  -21.0208  -53.2383 H         1 UNK         0.0600 
    214 H214       -2.3374  -20.1820  -51.7979 H         1 UNK         0.0600 
    215 H215       -5.2469  -20.3987  -51.6766 H         1 UNK         0.3000 
    216 H216       -6.0829  -19.8943  -54.4123 H         1 UNK         0.0600 
    217 H217       -7.2681  -19.0494  -51.7212 H         1 UNK         0.0600 
    218 H218       -7.8513  -18.5001  -53.2885 H         1 UNK         0.0600 
    219 H219       -6.2235  -18.0956  -52.7787 H         1 UNK         0.0600 
    220 H220       -7.2203  -21.9907  -51.7776 H         1 UNK         0.3000 
    221 H221       -9.7374  -22.7017  -53.0783 H         1 UNK         0.0600 
    222 H222       -8.3042  -23.9089  -50.6523 H         1 UNK         0.0600 
    223 H223       -9.5424  -22.6548  -50.5962 H         1 UNK         0.0600 
    224 H224       -9.9477  -24.2679  -51.1629 H         1 UNK         0.0600 
    225 H225       -6.4925  -24.1013  -52.6492 H         1 UNK         0.3000 
    226 H226       -6.9543  -26.5528  -54.0729 H         1 UNK         0.0600 
    227 H227       -5.1265  -26.2159  -52.3978 H         1 UNK         0.0600 
    228 H228       -4.4664  -26.7113  -53.9494 H         1 UNK         0.0600 
    229 H229       -4.3640  -25.0269  -53.4511 H         1 UNK         0.0600 
    230 H230       -6.5693  -23.3369  -55.1645 H         1 UNK         0.3000 
    231 H231       -6.3152  -22.2762  -57.0744 H         1 UNK         0.0600 
    232 H232       -6.8221  -24.9151  -58.5459 H         1 UNK         0.0600 
    233 H233       -6.9767  -23.2943  -59.2060 H         1 UNK         0.0600 
    234 H234       -8.0798  -23.8318  -57.9503 H         1 UNK         0.0600 
    235 H235       -4.0567  -23.2545  -55.6995 H         1 UNK         0.3000 
    236 H236       -1.9528  -23.8320  -57.6902 H         1 UNK         0.0600 
    237 H237       -1.8122  -23.3074  -54.6697 H         1 UNK         0.0600 
    238 H238       -1.8471  -24.8972  -55.4302 H         1 UNK         0.0600 
    239 H239       -0.4782  -23.8261  -55.6912 H         1 UNK         0.0600 
    240 H240       -3.3333  -21.1739  -55.7974 H         1 UNK         0.3000 
    241 H241       -1.3481  -19.2186  -56.6197 H         1 UNK         0.0600 
    242 H242       -1.5014  -17.7200  -58.3791 H         1 UNK         0.3800 
    243 H243       -2.7915  -17.7944  -59.5456 H         1 UNK         0.3800 
    244 H244       -4.0807  -18.4499  -55.5076 H         1 UNK         0.0800 
    245 H245       -2.9149  -19.1799  -54.4547 H         1 UNK         0.0800 
    246 H246        0.0789  -17.1629  -54.3713 H         1 UNK         0.0800 
    247 H247       -0.8526  -18.4984  -53.7564 H         1 UNK         0.0800 
@<TRIPOS>BOND
     1    1    2 1    
     2    1  127 1    
     3    1  128 1    
     4    1  129 1    
     5    2    3 2    
     6    2    4 am   BACKBONE|DICT|INTERRES
     7    4    5 1    
     8    4  130 1    
     9    5    6 1    
    10    5   65 1    
    11    5  131 1    
    12    6    7 1    
    13    6  132 1    
    14    6  133 1    
    15    7    8 1    
    16    8    9 1    
    17    8  134 1    
    18    8  135 1    
    19    9   10 ar   
    20    9   14 ar   
    21   10   11 ar   
    22   10  136 1    
    23   11   12 ar   
    24   11  126 1    
    25   12   13 ar   
    26   12  137 1    
    27   13   14 ar   
    28   13   15 1    
    29   14  138 1    
    30   15   16 1    
    31   15  139 1    
    32   15  140 1    
    33   16   17 1    
    34   17   18 1    
    35   17  141 1    
    36   17  142 1    
    37   18   19 1    
    38   18   67 1    
    39   18  143 1    
    40   19   20 am   BACKBONE|DICT|INTERRES
    41   19  144 1    
    42   20   21 2    
    43   20   22 1    
    44   22   23 1    
    45   22   24 1    
    46   22  145 1    
    47   23  146 1    
    48   23  147 1    
    49   23  148 1    
    50   24   25 am   BACKBONE|DICT|INTERRES
    51   24  149 1    
    52   25   26 2    
    53   25   27 1    
    54   27   28 1    
    55   27   29 1    
    56   27  150 1    
    57   28  151 1    
    58   28  152 1    
    59   28  153 1    
    60   29   30 am   BACKBONE|DICT|INTERRES
    61   29  154 1    
    62   30   31 2    
    63   30   32 1    
    64   32   33 1    
    65   32   34 1    
    66   32  155 1    
    67   33  156 1    
    68   33  157 1    
    69   33  158 1    
    70   34   35 am   BACKBONE|DICT|INTERRES
    71   34  159 1    
    72   35   36 2    
    73   35   37 1    
    74   37   38 1    
    75   37   39 1    
    76   37  160 1    
    77   38  161 1    
    78   38  162 1    
    79   38  163 1    
    80   39   40 am   BACKBONE|DICT|INTERRES
    81   39  164 1    
    82   40   41 2    
    83   40   42 1    
    84   42   43 1    
    85   42   44 1    
    86   42  165 1    
    87   43  166 1    
    88   43  167 1    
    89   43  168 1    
    90   44   45 am   BACKBONE|DICT|INTERRES
    91   44  169 1    
    92   45   46 2    
    93   45   47 1    
    94   47   48 1    
    95   47   49 1    
    96   47  170 1    
    97   48  171 1    
    98   48  172 1    
    99   48  173 1    
   100   49   50 am   BACKBONE|DICT|INTERRES
   101   49  174 1    
   102   50   51 2    
   103   50   52 1    
   104   52   53 1    
   105   52   54 1    
   106   52  175 1    
   107   53  176 1    
   108   53  177 1    
   109   53  178 1    
   110   54   55 am   BACKBONE|DICT|INTERRES
   111   54  179 1    
   112   55   56 2    
   113   55   57 1    
   114   57   58 1    
   115   57   59 1    
   116   57  180 1    
   117   58  181 1    
   118   58  182 1    
   119   58  183 1    
   120   59   60 am   BACKBONE|DICT|INTERRES
   121   59  184 1    
   122   60   61 2    
   123   60   62 1    
   124   62   63 1    
   125   62   64 1    
   126   62  185 1    
   127   63  186 1    
   128   63  187 1    
   129   63  188 1    
   130   64   65 am   BACKBONE|DICT|INTERRES
   131   64  189 1    
   132   65   66 2    
   133   67   68 2    
   134   67   69 am   BACKBONE|DICT|INTERRES
   135   69   70 1    
   136   69  190 1    
   137   70   71 1    
   138   70   72 1    
   139   70  191 1    
   140   71  192 1    
   141   71  193 1    
   142   71  194 1    
   143   72   73 2    
   144   72   74 am   BACKBONE|DICT|INTERRES
   145   74   75 1    
   146   74  195 1    
   147   75   76 1    
   148   75   77 1    
   149   75  196 1    
   150   76  197 1    
   151   76  198 1    
   152   76  199 1    
   153   77   78 2    
   154   77   79 am   BACKBONE|DICT|INTERRES
   155   79   80 1    
   156   79  200 1    
   157   80   81 1    
   158   80   82 1    
   159   80  201 1    
   160   81  202 1    
   161   81  203 1    
   162   81  204 1    
   163   82   83 2    
   164   82   84 am   BACKBONE|DICT|INTERRES
   165   84   85 1    
   166   84  205 1    
   167   85   86 1    
   168   85   87 1    
   169   85  206 1    
   170   86  207 1    
   171   86  208 1    
   172   86  209 1    
   173   87   88 2    
   174   87   89 am   BACKBONE|DICT|INTERRES
   175   89   90 1    
   176   89  210 1    
   177   90   91 1    
   178   90   92 1    
   179   90  211 1    
   180   91  212 1    
   181   91  213 1    
   182   91  214 1    
   183   92   93 2    
   184   92   94 am   BACKBONE|DICT|INTERRES
   185   94   95 1    
   186   94  215 1    
   187   95   96 1    
   188   95   97 1    
   189   95  216 1    
   190   96  217 1    
   191   96  218 1    
   192   96  219 1    
   193   97   98 2    
   194   97   99 am   BACKBONE|DICT|INTERRES
   195   99  100 1    
   196   99  220 1    
   197  100  101 1    
   198  100  102 1    
   199  100  221 1    
   200  101  222 1    
   201  101  223 1    
   202  101  224 1    
   203  102  103 2    
   204  102  104 am   BACKBONE|DICT|INTERRES
   205  104  105 1    
   206  104  225 1    
   207  105  106 1    
   208  105  107 1    
   209  105  226 1    
   210  106  227 1    
   211  106  228 1    
   212  106  229 1    
   213  107  108 2    
   214  107  109 am   BACKBONE|DICT|INTERRES
   215  109  110 1    
   216  109  230 1    
   217  110  111 1    
   218  110  112 1    
   219  110  231 1    
   220  111  232 1    
   221  111  233 1    
   222  111  234 1    
   223  112  113 2    
   224  112  114 am   BACKBONE|DICT|INTERRES
   225  114  115 1    
   226  114  235 1    
   227  115  116 1    
   228  115  117 1    
   229  115  236 1    
   230  116  237 1    
   231  116  238 1    
   232  116  239 1    
   233  117  118 2    
   234  117  119 am   BACKBONE|DICT|INTERRES
   235  119  120 1    
   236  119  240 1    
   237  120  121 1    
   238  120  124 1    
   239  120  241 1    
   240  121  122 am   BACKBONE|DICT|INTERRES
   241  121  123 2    
   242  122  242 1    
   243  122  243 1    
   244  124  125 1    
   245  124  244 1    
   246  124  245 1    
   247  125  126 1    
   248  126  246 1    
   249  126  247 1    
@<TRIPOS>SUBSTRUCTURE
     1 UNK         1 GROUP             0       ****    0 ROOT    
