@<TRIPOS>MOLECULE
3R540
247   249    1
SMALL
USER_CHARGES


@<TRIPOS>ATOM
      1 CA         -3.4764  -16.2966  -45.2841 C.3       0 UNK        -0.1800 
      2 C          -3.4460  -14.9512  -45.9937 C.2       0 UNK         0.5000 
      3 O          -4.4256  -14.2067  -45.9414 O.2       0 UNK        -0.5000 
      4 N          -2.3269  -14.6434  -46.6594 N.am      1 UNK        -0.5000 
      5 CA         -2.0726  -13.3710  -47.3451 C.3       1 UNK         0.1400 
      6 C6         -0.8561  -13.4646  -48.3005 C.3       23 UNK        -0.0398 
      7 S7         -1.0674  -14.7618  -49.5664 S.3       23 UNK        -0.2404 
      8 C8          0.6202  -15.4260  -49.6615 C.3       23 UNK        -0.0205 
      9 C9          0.6662  -16.7313  -50.4369 C.ar      23 UNK        -0.0193 
     10 C10         1.1469  -16.7657  -51.7496 C.ar      23 UNK        -0.1150 
     11 C11         1.2624  -17.9791  -52.4369 C.ar      23 UNK        -0.0193 
     12 C12         0.8856  -19.1635  -51.7910 C.ar      23 UNK        -0.1150 
     13 C13         0.3851  -19.1393  -50.4864 C.ar      23 UNK        -0.0193 
     14 C14         0.2702  -17.9189  -49.8175 C.ar      23 UNK        -0.1150 
     15 C15        -0.0155  -20.4310  -49.7929 C.3       23 UNK        -0.0205 
     16 S16         1.0531  -20.7718  -48.3545 S.3       23 UNK        -0.2404 
     17 C17         0.7853  -22.5552  -48.0928 C.3       23 UNK        -0.0398 
     18 CA         -0.3601  -22.9550  -47.1301 C.3       11 UNK         0.1400 
     19 N          -0.1277  -22.6081  -45.7239 N.am      11 UNK        -0.5000 
     20 C          -0.8021  -23.1916  -44.7188 C.2       10 UNK         0.5000 
     21 O          -1.6631  -24.0574  -44.8907 O.2       10 UNK        -0.5000 
     22 CA         -0.5021  -22.7129  -43.2886 C.3       10 UNK         0.1400 
     23 CB          0.8599  -23.2342  -42.8063 C.3       10 UNK        -0.1800 
     24 N          -0.5615  -21.2590  -43.1501 N.am      10 UNK        -0.5000 
     25 C          -1.6616  -20.5196  -43.3521 C.2       9 UNK         0.5000 
     26 O          -2.7542  -20.9893  -43.6700 O.2       9 UNK        -0.5000 
     27 CA         -1.5080  -18.9935  -43.2181 C.3       9 UNK         0.1400 
     28 CB         -1.5320  -18.5608  -41.7450 C.3       9 UNK        -0.1800 
     29 N          -0.2924  -18.4903  -43.8562 N.am      9 UNK        -0.5000 
     30 C          -0.0224  -18.5989  -45.1645 C.2       8 UNK         0.5000 
     31 O          -0.7949  -19.0881  -45.9846 O.2       8 UNK        -0.5000 
     32 CA          1.3629  -18.1205  -45.6229 C.3       8 UNK         0.1400 
     33 CB          1.4007  -16.5888  -45.7470 C.3       8 UNK        -0.1800 
     34 N           2.4224  -18.5873  -44.7279 N.am      8 UNK        -0.5000 
     35 C           2.7583  -19.8756  -44.5541 C.2       7 UNK         0.5000 
     36 O           2.2352  -20.8150  -45.1542 O.2       7 UNK        -0.5000 
     37 CA          3.8319  -20.1647  -43.4899 C.3       7 UNK         0.1400 
     38 CB          5.2395  -19.9321  -44.0591 C.3       7 UNK        -0.1800 
     39 N           3.6539  -19.3546  -42.2842 N.am      7 UNK        -0.5000 
     40 C           2.6144  -19.4655  -41.4445 C.2       6 UNK         0.5000 
     41 O           1.7120  -20.2910  -41.5769 O.2       6 UNK        -0.5000 
     42 CA          2.5480  -18.4463  -40.2926 C.3       6 UNK         0.1400 
     43 CB          3.3832  -18.9250  -39.0959 C.3       6 UNK        -0.1800 
     44 N           2.9850  -17.1043  -40.6892 N.am      6 UNK        -0.5000 
     45 C           2.3706  -16.3541  -41.6127 C.2       5 UNK         0.5000 
     46 O           1.3825  -16.7280  -42.2493 O.2       5 UNK        -0.5000 
     47 CA          2.9991  -14.9827  -41.9139 C.3       5 UNK         0.1400 
     48 CB          4.0184  -15.0989  -43.0580 C.3       5 UNK        -0.1800 
     49 N           1.9814  -14.0018  -42.2842 N.am      5 UNK        -0.5000 
     50 C           1.1119  -13.4477  -41.4291 C.2       4 UNK         0.5000 
     51 O           1.1214  -13.6691  -40.2162 O.2       4 UNK        -0.5000 
     52 CA          0.0568  -12.4939  -42.0319 C.3       4 UNK         0.1400 
     53 CB         -0.4768  -11.4683  -41.0101 C.3       4 UNK        -0.1800 
     54 N           0.4873  -11.8163  -43.2610 N.am      4 UNK        -0.5000 
     55 C           1.5203  -10.9702  -43.4139 C.2       3 UNK         0.5000 
     56 O           2.3133  -10.6818  -42.5170 O.2       3 UNK        -0.5000 
     57 CA          1.7023  -10.3316  -44.8084 C.3       3 UNK         0.1400 
     58 CB          2.7376  -11.1229  -45.6233 C.3       3 UNK        -0.1800 
     59 N           0.4598  -10.2475  -45.5798 N.am      3 UNK        -0.5000 
     60 C          -0.6082   -9.5084  -45.2469 C.2       2 UNK         0.5000 
     61 O          -0.6118   -8.7002  -44.3175 O.2       2 UNK        -0.5000 
     62 CA         -1.9013   -9.7202  -46.0653 C.3       2 UNK         0.1400 
     63 CB         -2.1217   -8.5427  -47.0280 C.3       2 UNK        -0.1800 
     64 N          -1.9791  -10.9735  -46.8307 N.am      2 UNK        -0.5000 
     65 C          -1.8806  -12.2165  -46.3358 C.2       1 UNK         0.5000 
     66 O          -1.6055  -12.4599  -45.1575 O.2       1 UNK        -0.5000 
     67 C          -1.7470  -22.5065  -47.6290 C.2       11 UNK         0.5000 
     68 O          -2.3224  -23.2022  -48.4656 O.2       11 UNK        -0.5000 
     69 N          -2.2720  -21.3918  -47.0967 N.am      12 UNK        -0.5000 
     70 CA         -3.6130  -20.8920  -47.3931 C.3       12 UNK         0.1400 
     71 CB         -3.7875  -19.4652  -46.8555 C.3       12 UNK        -0.1800 
     72 C          -4.7178  -21.8085  -46.8504 C.2       12 UNK         0.5000 
     73 O          -5.6738  -22.0899  -47.5727 O.2       12 UNK        -0.5000 
     74 N          -4.5525  -22.2799  -45.6060 N.am      13 UNK        -0.5000 
     75 CA         -5.4593  -23.2211  -44.9468 C.3       13 UNK         0.1400 
     76 CB         -5.0640  -23.3646  -43.4693 C.3       13 UNK        -0.1800 
     77 C          -5.4909  -24.5957  -45.6384 C.2       13 UNK         0.5000 
     78 O          -6.5638  -25.1850  -45.7742 O.2       13 UNK        -0.5000 
     79 N          -4.3187  -25.0665  -46.0842 N.am      14 UNK        -0.5000 
     80 CA         -4.1661  -26.3009  -46.8543 C.3       14 UNK         0.1400 
     81 CB         -2.6919  -26.7303  -46.8004 C.3       14 UNK        -0.1800 
     82 C          -4.6246  -26.1679  -48.3210 C.2       14 UNK         0.5000 
     83 O          -4.9626  -27.1794  -48.9364 O.2       14 UNK        -0.5000 
     84 N          -4.5822  -24.9379  -48.8574 N.am      15 UNK        -0.5000 
     85 CA         -4.7074  -24.5671  -50.2728 C.3       15 UNK         0.1400 
     86 CB         -6.1414  -24.7966  -50.7892 C.3       15 UNK        -0.1800 
     87 C          -3.6268  -25.2574  -51.1329 C.2       15 UNK         0.5000 
     88 O          -3.9142  -25.7659  -52.2182 O.2       15 UNK        -0.5000 
     89 N          -2.3963  -25.2922  -50.6000 N.am      16 UNK        -0.5000 
     90 CA         -1.2802  -26.1086  -51.0890 C.3       16 UNK         0.1400 
     91 CB         -0.1430  -26.0730  -50.0581 C.3       16 UNK        -0.1800 
     92 C          -0.7590  -25.7181  -52.4847 C.2       16 UNK         0.5000 
     93 O          -0.1528  -26.5513  -53.1583 O.2       16 UNK        -0.5000 
     94 N          -1.0258  -24.4761  -52.9062 N.am      17 UNK        -0.5000 
     95 CA         -0.7026  -23.9516  -54.2342 C.3       17 UNK         0.1400 
     96 CB         -0.4526  -22.4400  -54.1031 C.3       17 UNK        -0.1800 
     97 C          -1.8003  -24.2476  -55.2815 C.2       17 UNK         0.5000 
     98 O          -1.7515  -23.6796  -56.3728 O.2       17 UNK        -0.5000 
     99 N          -2.7917  -25.0809  -54.9203 N.am      18 UNK        -0.5000 
    100 CA        -4.0627  -25.3264  -55.6196 C.3       18 UNK         0.1400 
    101 CB        -3.8439  -25.8905  -57.0390 C.3       18 UNK        -0.1800 
    102 C         -4.9894  -24.0905  -55.5894 C.2       18 UNK         0.5000 
    103 O         -5.8786  -23.9508  -56.4305 O.2       18 UNK        -0.5000 
    104 N         -4.7535  -23.2244  -54.6005 N.am      19 UNK        -0.5000 
    105 CA        -5.3839  -21.9453  -54.3244 C.3       19 UNK         0.1400 
    106 CB        -5.0504  -20.9306  -55.4327 C.3       19 UNK        -0.1800 
    107 C         -4.8277  -21.4731  -52.9734 C.2       19 UNK         0.5000 
    108 O         -3.7814  -21.9644  -52.5353 O.2       19 UNK        -0.5000 
    109 N         -5.5280  -20.5305  -52.3348 N.am      20 UNK        -0.5000 
    110 CA        -5.1620  -20.0036  -51.0187 C.3       20 UNK         0.1400 
    111 CB        -6.4023  -19.3744  -50.3666 C.3       20 UNK        -0.1800 
    112 C         -3.9986  -18.9918  -51.0516 C.2       20 UNK         0.5000 
    113 O         -3.3629  -18.7814  -50.0216 O.2       20 UNK        -0.5000 
    114 N         -3.7501  -18.3693  -52.2096 N.am      21 UNK        -0.5000 
    115 CA        -2.7529  -17.3104  -52.3793 C.3       21 UNK         0.1400 
    116 CB        -3.4014  -15.9459  -52.0736 C.3       21 UNK        -0.1800 
    117 C         -2.1152  -17.3728  -53.7775 C.2       21 UNK         0.5000 
    118 O         -1.8251  -16.3290  -54.3652 O.2       21 UNK        -0.5000 
    119 N         -1.9327  -18.5977  -54.2924 N.am      22 UNK        -0.5000 
    120 CA        -1.4734  -18.9059  -55.6595 C.3       22 UNK         0.1400 
    121 C         -2.4827  -18.4734  -56.7717 C.2       22 UNK         0.5000 
    122 N         -2.1695  -18.7105  -58.0391 N.am      22 UNK        -0.7600 
    123 O         -3.5718  -17.9669  -56.5103 O.2       22 UNK        -0.5000 
    124 C124       -0.0229  -18.4101  -55.9390 C.3       23 UNK        -0.0398 
    125 S125        1.2343  -19.2877  -54.9493 S.3       23 UNK        -0.2404 
    126 C126        1.8804  -17.9913  -53.8346 C.3       23 UNK        -0.0205 
    127 H127       -3.4484  -16.1526  -44.2042 H         1 UNK         0.0600 
    128 H128       -4.3900  -16.8350  -45.5351 H         1 UNK         0.0600 
    129 H129       -2.6275  -16.9177  -45.5690 H         1 UNK         0.0600 
    130 H130       -1.5634  -15.3015  -46.6701 H         1 UNK         0.3000 
    131 H131       -2.9563  -13.1364  -47.9427 H         1 UNK         0.0600 
    132 H132        0.0563  -13.6504  -47.7310 H         1 UNK         0.0800 
    133 H133       -0.6999  -12.5216  -48.8269 H         1 UNK         0.0800 
    134 H134        1.0110  -15.5992  -48.6589 H         1 UNK         0.0800 
    135 H135        1.2728  -14.6818  -50.1207 H         1 UNK         0.0800 
    136 H136        1.4608  -15.8477  -52.2264 H         1 UNK         0.1150 
    137 H137        0.9967  -20.1113  -52.2967 H         1 UNK         0.1150 
    138 H138       -0.1079  -17.8996  -48.8043 H         1 UNK         0.1150 
    139 H139       -1.0531  -20.3455  -49.4685 H         1 UNK         0.0800 
    140 H140        0.0249  -21.2660  -50.4937 H         1 UNK         0.0800 
    141 H141        0.6367  -23.0241  -49.0647 H         1 UNK         0.0800 
    142 H142        1.7218  -22.9696  -47.7173 H         1 UNK         0.0800 
    143 H143       -0.3847  -24.0468  -47.1648 H         1 UNK         0.0600 
    144 H144        0.5706  -21.8956  -45.5285 H         1 UNK         0.3000 
    145 H145       -1.2697  -23.1342  -42.6360 H         1 UNK         0.0600 
    146 H146        1.0244  -22.9908  -41.7566 H         1 UNK         0.0600 
    147 H147        0.9189  -24.3192  -42.9006 H         1 UNK         0.0600 
    148 H148        1.6830  -22.8092  -43.3804 H         1 UNK         0.0600 
    149 H149        0.2899  -20.7979  -42.8441 H         1 UNK         0.3000 
    150 H150       -2.3616  -18.5337  -43.7180 H         1 UNK         0.0600 
    151 H151       -2.4474  -18.8948  -41.2551 H         1 UNK         0.0600 
    152 H152       -1.4894  -17.4753  -41.6531 H         1 UNK         0.0600 
    153 H153       -0.6911  -18.9756  -41.1890 H         1 UNK         0.0600 
    154 H154        0.3841  -18.0287  -43.2542 H         1 UNK         0.3000 
    155 H155        1.5527  -18.5371  -46.6126 H         1 UNK         0.0600 
    156 H156        2.3516  -16.2491  -46.1574 H         1 UNK         0.0600 
    157 H157        1.2505  -16.0955  -44.7873 H         1 UNK         0.0600 
    158 H158        0.6137  -16.2377  -46.4144 H         1 UNK         0.0600 
    159 H159        2.8695  -17.8911  -44.1522 H         1 UNK         0.3000 
    160 H160        3.7475  -21.2163  -43.2076 H         1 UNK         0.0600 
    161 H161        5.3981  -18.8886  -44.3339 H         1 UNK         0.0600 
    162 H162        5.4024  -20.5356  -44.9532 H         1 UNK         0.0600 
    163 H163        6.0074  -20.2098  -43.3368 H         1 UNK         0.0600 
    164 H164        4.3515  -18.6499  -42.0974 H         1 UNK         0.3000 
    165 H165        1.5057  -18.3771  -39.9741 H         1 UNK         0.0600 
    166 H166        4.4442  -18.9850  -39.3414 H         1 UNK         0.0600 
    167 H167        3.2725  -18.2539  -38.2440 H         1 UNK         0.0600 
    168 H168        3.0650  -19.9163  -38.7701 H         1 UNK         0.0600 
    169 H169        3.7955  -16.7348  -40.2131 H         1 UNK         0.3000 
    170 H170        3.5163  -14.6261  -41.0206 H         1 UNK         0.0600 
    171 H171        4.8094  -15.8074  -42.8092 H         1 UNK         0.0600 
    172 H172        3.5533  -15.4377  -43.9838 H         1 UNK         0.0600 
    173 H173        4.4958  -14.1391  -43.2571 H         1 UNK         0.0600 
    174 H174        1.8871  -13.7889  -43.2653 H         1 UNK         0.3000 
    175 H175       -0.7813  -13.1288  -42.3230 H         1 UNK         0.0600 
    176 H176       -1.2313  -10.8223  -41.4592 H         1 UNK         0.0600 
    177 H177       -0.9434  -11.9666  -40.1596 H         1 UNK         0.0600 
    178 H178        0.3197  -10.8334  -40.6211 H         1 UNK         0.0600 
    179 H179       -0.1192  -11.9797  -44.0610 H         1 UNK         0.3000 
    180 H180        2.0794   -9.3174  -44.6612 H         1 UNK         0.0600 
    181 H181        2.9370  -10.6425  -46.5814 H         1 UNK         0.0600 
    182 H182        3.6874  -11.1880  -45.0905 H         1 UNK         0.0600 
    183 H183        2.4021  -12.1419  -45.8208 H         1 UNK         0.0600 
    184 H184        0.3745  -10.8703  -46.3682 H         1 UNK         0.3000 
    185 H185       -2.7255   -9.7316  -45.3493 H         1 UNK         0.0600 
    186 H186       -3.0874   -8.6158  -47.5285 H         1 UNK         0.0600 
    187 H187       -2.1073   -7.5910  -46.4949 H         1 UNK         0.0600 
    188 H188       -1.3468   -8.5010  -47.7945 H         1 UNK         0.0600 
    189 H189       -2.1915  -10.8642  -47.8121 H         1 UNK         0.3000 
    190 H190       -1.7055  -20.8242  -46.4737 H         1 UNK         0.3000 
    191 H191       -3.7125  -20.8625  -48.4762 H         1 UNK         0.0600 
    192 H192       -4.7847  -19.0830  -47.0762 H         1 UNK         0.0600 
    193 H193       -3.0740  -18.7829  -47.3172 H         1 UNK         0.0600 
    194 H194       -3.6469  -19.4196  -45.7757 H         1 UNK         0.0600 
    195 H195       -3.7588  -21.9575  -45.0591 H         1 UNK         0.3000 
    196 H196       -6.4670  -22.8030  -44.9913 H         1 UNK         0.0600 
    197 H197       -5.7259  -24.0604  -42.9521 H         1 UNK         0.0600 
    198 H198       -5.1282  -22.4080  -42.9506 H         1 UNK         0.0600 
    199 H199       -4.0441  -23.7354  -43.3597 H         1 UNK         0.0600 
    200 H200       -3.4723  -24.5495  -45.8711 H         1 UNK         0.3000 
    201 H201       -4.7680  -27.0831  -46.3868 H         1 UNK         0.0600 
    202 H202       -2.3713  -26.9107  -45.7742 H         1 UNK         0.0600 
    203 H203       -2.0384  -25.9671  -47.2237 H         1 UNK         0.0600 
    204 H204       -2.5288  -27.6522  -47.3602 H         1 UNK         0.0600 
    205 H205       -4.2505  -24.1908  -48.2609 H         1 UNK         0.3000 
    206 H206       -4.5050  -23.4966  -50.3258 H         1 UNK         0.0600 
    207 H207       -6.8699  -24.2815  -50.1632 H         1 UNK         0.0600 
    208 H208       -6.2549  -24.4123  -51.8037 H         1 UNK         0.0600 
    209 H209       -6.4023  -25.8549  -50.8090 H         1 UNK         0.0600 
    210 H210       -2.2499  -24.7802  -49.7361 H         1 UNK         0.3000 
    211 H211       -1.6389  -27.1376  -51.1589 H         1 UNK         0.0600 
    212 H212        0.2670  -25.0705  -49.9519 H         1 UNK         0.0600 
    213 H213        0.6752  -26.7296  -50.3571 H         1 UNK         0.0600 
    214 H214       -0.4826  -26.4072  -49.0781 H         1 UNK         0.0600 
    215 H215       -1.5480  -23.8654  -52.2934 H         1 UNK         0.3000 
    216 H216        0.2188  -24.4145  -54.5934 H         1 UNK         0.0600 
    217 H217       -0.1306  -22.0147  -55.0539 H         1 UNK         0.0600 
    218 H218        0.3333  -22.2319  -53.3772 H         1 UNK         0.0600 
    219 H219       -1.3498  -21.9058  -53.7897 H         1 UNK         0.0600 
    220 H220       -2.7532  -25.4740  -53.9867 H         1 UNK         0.3000 
    221 H221       -4.5747  -26.0958  -55.0400 H         1 UNK         0.0600 
    222 H222       -3.4436  -25.1399  -57.7206 H         1 UNK         0.0600 
    223 H223       -3.1565  -26.7362  -57.0263 H         1 UNK         0.0600 
    224 H224       -4.7839  -26.2433  -57.4645 H         1 UNK         0.0600 
    225 H225       -4.0188  -23.4428  -53.9384 H         1 UNK         0.3000 
    226 H226       -6.4635  -22.0843  -54.2440 H         1 UNK         0.0600 
    227 H227       -5.4472  -19.9416  -55.2007 H         1 UNK         0.0600 
    228 H228       -3.9731  -20.8313  -55.5668 H         1 UNK         0.0600 
    229 H229       -5.4771  -21.2288  -56.3901 H         1 UNK         0.0600 
    230 H230       -6.3767  -20.1714  -52.7487 H         1 UNK         0.3000 
    231 H231       -4.8509  -20.8441  -50.3967 H         1 UNK         0.0600 
    232 H232       -6.1712  -19.0036  -49.3669 H         1 UNK         0.0600 
    233 H233       -7.2052  -20.1043  -50.2611 H         1 UNK         0.0600 
    234 H234       -6.7822  -18.5344  -50.9493 H         1 UNK         0.0600 
    235 H235       -4.3116  -18.5916  -53.0191 H         1 UNK         0.3000 
    236 H236       -1.9336  -17.4623  -51.6749 H         1 UNK         0.0600 
    237 H237       -4.2284  -15.7350  -52.7522 H         1 UNK         0.0600 
    238 H238       -3.7848  -15.9119  -51.0537 H         1 UNK         0.0600 
    239 H239       -2.6787  -15.1350  -52.1705 H         1 UNK         0.0600 
    240 H240       -2.1903  -19.3916  -53.7256 H         1 UNK         0.3000 
    241 H241       -1.4675  -19.9948  -55.7134 H         1 UNK         0.0600 
    242 H242       -2.8273  -18.4474  -58.7566 H         1 UNK         0.3800 
    243 H243       -1.3086  -19.1625  -58.3045 H         1 UNK         0.3800 
    244 H244        0.0605  -17.3329  -55.7978 H         1 UNK         0.0800 
    245 H245        0.2532  -18.5837  -56.9792 H         1 UNK         0.0800 
    246 H246        2.9520  -18.1561  -53.7174 H         1 UNK         0.0800 
    247 H247        1.7776  -17.0142  -54.3082 H         1 UNK         0.0800 
@<TRIPOS>BOND
     1    1    2 1    
     2    1  127 1    
     3    1  128 1    
     4    1  129 1    
     5    2    3 2    
     6    2    4 am   BACKBONE|DICT|INTERRES
     7    4    5 1    
     8    4  130 1    
     9    5    6 1    
    10    5   65 1    
    11    5  131 1    
    12    6    7 1    
    13    6  132 1    
    14    6  133 1    
    15    7    8 1    
    16    8    9 1    
    17    8  134 1    
    18    8  135 1    
    19    9   10 ar   
    20    9   14 ar   
    21   10   11 ar   
    22   10  136 1    
    23   11   12 ar   
    24   11  126 1    
    25   12   13 ar   
    26   12  137 1    
    27   13   14 ar   
    28   13   15 1    
    29   14  138 1    
    30   15   16 1    
    31   15  139 1    
    32   15  140 1    
    33   16   17 1    
    34   17   18 1    
    35   17  141 1    
    36   17  142 1    
    37   18   19 1    
    38   18   67 1    
    39   18  143 1    
    40   19   20 am   BACKBONE|DICT|INTERRES
    41   19  144 1    
    42   20   21 2    
    43   20   22 1    
    44   22   23 1    
    45   22   24 1    
    46   22  145 1    
    47   23  146 1    
    48   23  147 1    
    49   23  148 1    
    50   24   25 am   BACKBONE|DICT|INTERRES
    51   24  149 1    
    52   25   26 2    
    53   25   27 1    
    54   27   28 1    
    55   27   29 1    
    56   27  150 1    
    57   28  151 1    
    58   28  152 1    
    59   28  153 1    
    60   29   30 am   BACKBONE|DICT|INTERRES
    61   29  154 1    
    62   30   31 2    
    63   30   32 1    
    64   32   33 1    
    65   32   34 1    
    66   32  155 1    
    67   33  156 1    
    68   33  157 1    
    69   33  158 1    
    70   34   35 am   BACKBONE|DICT|INTERRES
    71   34  159 1    
    72   35   36 2    
    73   35   37 1    
    74   37   38 1    
    75   37   39 1    
    76   37  160 1    
    77   38  161 1    
    78   38  162 1    
    79   38  163 1    
    80   39   40 am   BACKBONE|DICT|INTERRES
    81   39  164 1    
    82   40   41 2    
    83   40   42 1    
    84   42   43 1    
    85   42   44 1    
    86   42  165 1    
    87   43  166 1    
    88   43  167 1    
    89   43  168 1    
    90   44   45 am   BACKBONE|DICT|INTERRES
    91   44  169 1    
    92   45   46 2    
    93   45   47 1    
    94   47   48 1    
    95   47   49 1    
    96   47  170 1    
    97   48  171 1    
    98   48  172 1    
    99   48  173 1    
   100   49   50 am   BACKBONE|DICT|INTERRES
   101   49  174 1    
   102   50   51 2    
   103   50   52 1    
   104   52   53 1    
   105   52   54 1    
   106   52  175 1    
   107   53  176 1    
   108   53  177 1    
   109   53  178 1    
   110   54   55 am   BACKBONE|DICT|INTERRES
   111   54  179 1    
   112   55   56 2    
   113   55   57 1    
   114   57   58 1    
   115   57   59 1    
   116   57  180 1    
   117   58  181 1    
   118   58  182 1    
   119   58  183 1    
   120   59   60 am   BACKBONE|DICT|INTERRES
   121   59  184 1    
   122   60   61 2    
   123   60   62 1    
   124   62   63 1    
   125   62   64 1    
   126   62  185 1    
   127   63  186 1    
   128   63  187 1    
   129   63  188 1    
   130   64   65 am   BACKBONE|DICT|INTERRES
   131   64  189 1    
   132   65   66 2    
   133   67   68 2    
   134   67   69 am   BACKBONE|DICT|INTERRES
   135   69   70 1    
   136   69  190 1    
   137   70   71 1    
   138   70   72 1    
   139   70  191 1    
   140   71  192 1    
   141   71  193 1    
   142   71  194 1    
   143   72   73 2    
   144   72   74 am   BACKBONE|DICT|INTERRES
   145   74   75 1    
   146   74  195 1    
   147   75   76 1    
   148   75   77 1    
   149   75  196 1    
   150   76  197 1    
   151   76  198 1    
   152   76  199 1    
   153   77   78 2    
   154   77   79 am   BACKBONE|DICT|INTERRES
   155   79   80 1    
   156   79  200 1    
   157   80   81 1    
   158   80   82 1    
   159   80  201 1    
   160   81  202 1    
   161   81  203 1    
   162   81  204 1    
   163   82   83 2    
   164   82   84 am   BACKBONE|DICT|INTERRES
   165   84   85 1    
   166   84  205 1    
   167   85   86 1    
   168   85   87 1    
   169   85  206 1    
   170   86  207 1    
   171   86  208 1    
   172   86  209 1    
   173   87   88 2    
   174   87   89 am   BACKBONE|DICT|INTERRES
   175   89   90 1    
   176   89  210 1    
   177   90   91 1    
   178   90   92 1    
   179   90  211 1    
   180   91  212 1    
   181   91  213 1    
   182   91  214 1    
   183   92   93 2    
   184   92   94 am   BACKBONE|DICT|INTERRES
   185   94   95 1    
   186   94  215 1    
   187   95   96 1    
   188   95   97 1    
   189   95  216 1    
   190   96  217 1    
   191   96  218 1    
   192   96  219 1    
   193   97   98 2    
   194   97   99 am   BACKBONE|DICT|INTERRES
   195   99  100 1    
   196   99  220 1    
   197  100  101 1    
   198  100  102 1    
   199  100  221 1    
   200  101  222 1    
   201  101  223 1    
   202  101  224 1    
   203  102  103 2    
   204  102  104 am   BACKBONE|DICT|INTERRES
   205  104  105 1    
   206  104  225 1    
   207  105  106 1    
   208  105  107 1    
   209  105  226 1    
   210  106  227 1    
   211  106  228 1    
   212  106  229 1    
   213  107  108 2    
   214  107  109 am   BACKBONE|DICT|INTERRES
   215  109  110 1    
   216  109  230 1    
   217  110  111 1    
   218  110  112 1    
   219  110  231 1    
   220  111  232 1    
   221  111  233 1    
   222  111  234 1    
   223  112  113 2    
   224  112  114 am   BACKBONE|DICT|INTERRES
   225  114  115 1    
   226  114  235 1    
   227  115  116 1    
   228  115  117 1    
   229  115  236 1    
   230  116  237 1    
   231  116  238 1    
   232  116  239 1    
   233  117  118 2    
   234  117  119 am   BACKBONE|DICT|INTERRES
   235  119  120 1    
   236  119  240 1    
   237  120  121 1    
   238  120  124 1    
   239  120  241 1    
   240  121  122 am   BACKBONE|DICT|INTERRES
   241  121  123 2    
   242  122  242 1    
   243  122  243 1    
   244  124  125 1    
   245  124  244 1    
   246  124  245 1    
   247  125  126 1    
   248  126  246 1    
   249  126  247 1    
@<TRIPOS>SUBSTRUCTURE
     1 UNK         1 GROUP             0       ****    0 ROOT    
