@<TRIPOS>MOLECULE
3R540
247   249    1
SMALL
USER_CHARGES


@<TRIPOS>ATOM
      1 CA         -3.3394  -13.5460  -51.9767 C.3       0 UNK        -0.1800 
      2 C          -2.7580  -13.4151  -50.5767 C.2       0 UNK         0.5000 
      3 O          -2.9967  -12.4106  -49.9056 O.2       0 UNK        -0.5000 
      4 N          -1.9815  -14.4150  -50.1441 N.am      1 UNK        -0.5000 
      5 CA         -1.3738  -14.4955  -48.8127 C.3       1 UNK         0.1400 
      6 C6         -0.1855  -15.4897  -48.7687 C.3       23 UNK        -0.0398 
      7 S7         -0.5124  -17.1271  -49.5195 S.3       23 UNK        -0.2404 
      8 C8          0.6667  -17.1137  -50.9070 C.3       23 UNK        -0.0205 
      9 C9          1.2288  -18.4957  -51.1915 C.ar      23 UNK        -0.0193 
     10 C10         0.9470  -19.1433  -52.3973 C.ar      23 UNK        -0.1150 
     11 C11         1.5479  -20.3692  -52.6986 C.ar      23 UNK        -0.0193 
     12 C12         2.4126  -20.9597  -51.7725 C.ar      23 UNK        -0.1150 
     13 C13         2.6949  -20.3241  -50.5595 C.ar      23 UNK        -0.0193 
     14 C14         2.0986  -19.0935  -50.2744 C.ar      23 UNK        -0.1150 
     15 C15         3.6925  -20.9393  -49.5905 C.3       23 UNK        -0.0205 
     16 S16         2.9499  -22.2572  -48.5835 S.3       23 UNK        -0.2404 
     17 C17         2.1845  -21.3207  -47.2164 C.3       23 UNK        -0.0398 
     18 CA          0.8628  -21.9820  -46.7477 C.3       11 UNK         0.1400 
     19 N           0.7428  -22.0433  -45.2889 N.am      11 UNK        -0.5000 
     20 C          -0.1307  -22.8358  -44.6506 C.2       10 UNK         0.5000 
     21 O          -0.9179  -23.5893  -45.2257 O.2       10 UNK        -0.5000 
     22 CA         -0.1583  -22.7429  -43.1151 C.3       10 UNK         0.1400 
     23 CB          1.0285  -23.4958  -42.4952 C.3       10 UNK        -0.1800 
     24 N          -0.1672  -21.3619  -42.6360 N.am      10 UNK        -0.5000 
     25 C          -1.1425  -20.4782  -42.8912 C.2       9 UNK         0.5000 
     26 O          -2.1535  -20.7359  -43.5426 O.2       9 UNK        -0.5000 
     27 CA         -0.9319  -19.0532  -42.3585 C.3       9 UNK         0.1400 
     28 CB         -1.1949  -19.0146  -40.8434 C.3       9 UNK        -0.1800 
     29 N           0.4094  -18.5418  -42.6432 N.am      9 UNK        -0.5000 
     30 C           0.9484  -18.4051  -43.8643 C.2       8 UNK         0.5000 
     31 O           0.3634  -18.6738  -44.9092 O.2       8 UNK        -0.5000 
     32 CA          2.4184  -17.9642  -43.9306 C.3       8 UNK         0.1400 
     33 CB          2.5506  -16.4434  -43.7596 C.3       8 UNK        -0.1800 
     34 N           3.2356  -18.6586  -42.9365 N.am      8 UNK        -0.5000 
     35 C           3.4860  -19.9764  -42.9527 C.2       7 UNK         0.5000 
     36 O           3.0851  -20.7412  -43.8312 O.2       7 UNK        -0.5000 
     37 CA          4.2828  -20.5349  -41.7604 C.3       7 UNK         0.1400 
     38 CB          5.7905  -20.3316  -41.9712 C.3       7 UNK        -0.1800 
     39 N           3.8810  -19.9240  -40.4918 N.am      7 UNK        -0.5000 
     40 C           2.6904  -20.1194  -39.9078 C.2       6 UNK         0.5000 
     41 O           1.8228  -20.8675  -40.3601 O.2       6 UNK        -0.5000 
     42 CA          2.4077  -19.3017  -38.6315 C.3       6 UNK         0.1400 
     43 CB          3.0096  -19.9943  -37.3998 C.3       6 UNK        -0.1800 
     44 N           2.8947  -17.9176  -38.7022 N.am      6 UNK        -0.5000 
     45 C           2.4624  -17.0169  -39.5933 C.2       5 UNK         0.5000 
     46 O           1.6289  -17.2762  -40.4658 O.2       5 UNK        -0.5000 
     47 CA          3.0707  -15.6072  -39.5338 C.3       5 UNK         0.1400 
     48 CB          4.5266  -15.6090  -40.0338 C.3       5 UNK        -0.1800 
     49 N           2.2519  -14.7634  -40.3931 N.am      5 UNK        -0.5000 
     50 C           2.1564  -13.4316  -40.4085 C.2       4 UNK         0.5000 
     51 O           2.8136  -12.6869  -39.6805 O.2       4 UNK        -0.5000 
     52 CA          1.1458  -12.8346  -41.4128 C.3       4 UNK         0.1400 
     53 CB          1.8730  -12.3362  -42.6711 C.3       4 UNK        -0.1800 
     54 N           0.1121  -13.7928  -41.8202 N.am      4 UNK        -0.5000 
     55 C          -0.9006  -14.2089  -41.0510 C.2       3 UNK         0.5000 
     56 O          -1.1426  -13.7354  -39.9395 O.2       3 UNK        -0.5000 
     57 CA         -1.7639  -15.3591  -41.6157 C.3       3 UNK         0.1400 
     58 CB         -2.8199  -15.8535  -40.6102 C.3       3 UNK        -0.1800 
     59 N          -2.4421  -15.0365  -42.8722 N.am      3 UNK        -0.5000 
     60 C          -1.8683  -14.9078  -44.0741 C.2       2 UNK         0.5000 
     61 O          -0.6520  -15.0058  -44.2646 O.2       2 UNK        -0.5000 
     62 CA         -2.8153  -14.6211  -45.2520 C.3       2 UNK         0.1400 
     63 CB         -3.6596  -13.3527  -45.0233 C.3       2 UNK        -0.1800 
     64 N          -2.0260  -14.4587  -46.4663 N.am      2 UNK        -0.5000 
     65 C          -2.4109  -14.7798  -47.7051 C.2       1 UNK         0.5000 
     66 O          -3.5063  -15.2766  -47.9788 O.2       1 UNK        -0.5000 
     67 C          -0.3809  -21.3470  -47.4021 C.2       11 UNK         0.5000 
     68 O          -0.8714  -21.8769  -48.3973 O.2       11 UNK        -0.5000 
     69 N          -0.9114  -20.2710  -46.8022 N.am      12 UNK        -0.5000 
     70 CA         -2.1438  -19.6066  -47.2256 C.3       12 UNK         0.1400 
     71 CB         -2.3604  -18.3177  -46.4192 C.3       12 UNK        -0.1800 
     72 C          -3.3773  -20.5146  -47.1237 C.2       12 UNK         0.5000 
     73 O          -4.2091  -20.4866  -48.0278 O.2       12 UNK        -0.5000 
     74 N          -3.4656  -21.3237  -46.0593 N.am      13 UNK        -0.5000 
     75 CA         -4.5133  -22.3285  -45.8793 C.3       13 UNK         0.1400 
     76 CB         -4.4429  -22.9081  -44.4586 C.3       13 UNK        -0.1800 
     77 C          -4.4401  -23.4473  -46.9340 C.2       13 UNK         0.5000 
     78 O          -5.4749  -23.8302  -47.4803 O.2       13 UNK        -0.5000 
     79 N          -3.2216  -23.9253  -47.2244 N.am      14 UNK        -0.5000 
     80 CA         -2.9520  -24.9435  -48.2411 C.3       14 UNK         0.1400 
     81 CB         -1.5025  -25.4339  -48.1016 C.3       14 UNK        -0.1800 
     82 C          -3.2277  -24.4477  -49.6737 C.2       14 UNK         0.5000 
     83 O          -3.8293  -25.1748  -50.4645 O.2       14 UNK        -0.5000 
     84 N          -2.7967  -23.2162  -49.9750 N.am      15 UNK        -0.5000 
     85 CA         -2.9557  -22.5679  -51.2772 C.3       15 UNK         0.1400 
     86 CB         -1.8650  -21.4937  -51.4251 C.3       15 UNK        -0.1800 
     87 C          -4.3482  -21.9484  -51.4998 C.2       15 UNK         0.5000 
     88 O          -4.6275  -21.5031  -52.6137 O.2       15 UNK        -0.5000 
     89 N          -5.1713  -21.8841  -50.4430 N.am      16 UNK        -0.5000 
     90 CA         -6.4791  -21.2230  -50.3624 C.3       16 UNK         0.1400 
     91 CB         -7.5216  -21.9654  -51.2211 C.3       16 UNK        -0.1800 
     92 C          -6.3822  -19.7220  -50.7048 C.2       16 UNK         0.5000 
     93 O          -7.1305  -19.2265  -51.5461 O.2       16 UNK        -0.5000 
     94 N          -5.4060  -19.0435  -50.0857 N.am      17 UNK        -0.5000 
     95 CA         -4.9980  -17.6554  -50.3342 C.3       17 UNK         0.1400 
     96 CB         -6.0775  -16.6714  -49.8396 C.3       17 UNK        -0.1800 
     97 C          -4.5921  -17.4214  -51.8065 C.2       17 UNK         0.5000 
     98 O          -4.9793  -16.4198  -52.4083 O.2       17 UNK        -0.5000 
     99 N          -3.8351  -18.3838  -52.3555 N.am      18 UNK        -0.5000 
    100 CA        -3.3264  -18.4593  -53.7308 C.3       18 UNK         0.1400 
    101 CB        -2.4621  -17.2255  -54.0689 C.3       18 UNK        -0.1800 
    102 C         -4.4048  -18.7402  -54.8025 C.2       18 UNK         0.5000 
    103 O         -4.1132  -18.6147  -55.9922 O.2       18 UNK        -0.5000 
    104 N         -5.6209  -19.1316  -54.3952 N.am      19 UNK        -0.5000 
    105 CA        -6.7209  -19.4470  -55.3097 C.3       19 UNK         0.1400 
    106 CB        -8.0613  -19.1628  -54.6157 C.3       19 UNK        -0.1800 
    107 C         -6.6922  -20.9000  -55.8203 C.2       19 UNK         0.5000 
    108 O         -7.2392  -21.1601  -56.8931 O.2       19 UNK        -0.5000 
    109 N         -6.0910  -21.8203  -55.0533 N.am      20 UNK        -0.5000 
    110 CA        -6.1082  -23.2642  -55.3127 C.3       20 UNK         0.1400 
    111 CB        -6.7800  -23.9729  -54.1234 C.3       20 UNK        -0.1800 
    112 C         -4.7065  -23.8434  -55.5774 C.2       20 UNK         0.5000 
    113 O         -4.5682  -25.0659  -55.6508 O.2       20 UNK        -0.5000 
    114 N         -3.6925  -22.9831  -55.7184 N.am      21 UNK        -0.5000 
    115 CA        -2.3101  -23.3689  -55.9881 C.3       21 UNK         0.1400 
    116 CB        -1.5746  -23.6576  -54.6616 C.3       21 UNK        -0.1800 
    117 C         -1.6342  -22.3057  -56.8708 C.2       21 UNK         0.5000 
    118 O         -2.2863  -21.7472  -57.7555 O.2       21 UNK        -0.5000 
    119 N         -0.3364  -22.0806  -56.6375 N.am      22 UNK        -0.5000 
    120 CA         0.5329  -21.1241  -57.3368 C.3       22 UNK         0.1400 
    121 C          0.0200  -19.6529  -57.3486 C.2       22 UNK         0.5000 
    122 N          0.3477  -18.8859  -58.3801 N.am      22 UNK        -0.7600 
    123 O         -0.6361  -19.1925  -56.4187 O.2       22 UNK        -0.5000 
    124 C124        2.0006  -21.2506  -56.8341 C.3       23 UNK        -0.0398 
    125 S125        2.4590  -20.3754  -55.2892 S.3       23 UNK        -0.2404 
    126 C126        1.2988  -21.0267  -54.0451 C.3       23 UNK        -0.0205 
    127 H127       -2.9520  -14.4237  -52.4944 H         1 UNK         0.0600 
    128 H128       -3.0940  -12.6664  -52.5716 H         1 UNK         0.0600 
    129 H129       -4.4247  -13.6337  -51.9247 H         1 UNK         0.0600 
    130 H130       -1.8468  -15.2305  -50.7232 H         1 UNK         0.3000 
    131 H131       -0.9641  -13.5065  -48.5938 H         1 UNK         0.0600 
    132 H132        0.1567  -15.6523  -47.7449 H         1 UNK         0.0800 
    133 H133        0.6622  -15.0215  -49.2685 H         1 UNK         0.0800 
    134 H134        1.5112  -16.4586  -50.6915 H         1 UNK         0.0800 
    135 H135        0.1770  -16.6980  -51.7882 H         1 UNK         0.0800 
    136 H136        0.2932  -18.6777  -53.1217 H         1 UNK         0.1150 
    137 H137        2.8882  -21.9019  -52.0064 H         1 UNK         0.1150 
    138 H138        2.3289  -18.5839  -49.3494 H         1 UNK         0.1150 
    139 H139        4.5241  -21.3622  -50.1561 H         1 UNK         0.0800 
    140 H140        4.1283  -20.1774  -48.9422 H         1 UNK         0.0800 
    141 H141        2.0411  -20.2750  -47.4946 H         1 UNK         0.0800 
    142 H142        2.9164  -21.3095  -46.4086 H         1 UNK         0.0800 
    143 H143        0.8750  -23.0245  -47.0748 H         1 UNK         0.0600 
    144 H144        1.3704  -21.4585  -44.7468 H         1 UNK         0.3000 
    145 H145       -1.0789  -23.2191  -42.7714 H         1 UNK         0.0600 
    146 H146        0.9664  -23.4995  -41.4068 H         1 UNK         0.0600 
    147 H147        1.9823  -23.0461  -42.7724 H         1 UNK         0.0600 
    148 H148        1.0464  -24.5355  -42.8243 H         1 UNK         0.0600 
    149 H149        0.6160  -21.0722  -42.0600 H         1 UNK         0.3000 
    150 H150       -1.6476  -18.3944  -42.8542 H         1 UNK         0.0600 
    151 H151       -2.2385  -19.2445  -40.6262 H         1 UNK         0.0600 
    152 H152       -0.9800  -18.0371  -40.4167 H         1 UNK         0.0600 
    153 H153       -0.5844  -19.7398  -40.3061 H         1 UNK         0.0600 
    154 H154        0.9621  -18.2596  -41.8370 H         1 UNK         0.3000 
    155 H155        2.8013  -18.2260  -44.9194 H         1 UNK         0.0600 
    156 H156        2.0169  -15.9188  -44.5531 H         1 UNK         0.0600 
    157 H157        3.5926  -16.1265  -43.8038 H         1 UNK         0.0600 
    158 H158        2.1346  -16.1039  -42.8134 H         1 UNK         0.0600 
    159 H159        3.5654  -18.1138  -42.1553 H         1 UNK         0.3000 
    160 H160        4.0875  -21.6079  -41.7020 H         1 UNK         0.0600 
    161 H161        6.0547  -19.2743  -42.0143 H         1 UNK         0.0600 
    162 H162        6.1186  -20.7906  -42.9048 H         1 UNK         0.0600 
    163 H163        6.3658  -20.7889  -41.1660 H         1 UNK         0.0600 
    164 H164        4.5379  -19.2952  -40.0541 H         1 UNK         0.3000 
    165 H165        1.3238  -19.2648  -38.5029 H         1 UNK         0.0600 
    166 H166        2.7312  -19.4771  -36.4814 H         1 UNK         0.0600 
    167 H167        2.6501  -21.0207  -37.3146 H         1 UNK         0.0600 
    168 H168        4.0986  -20.0306  -37.4485 H         1 UNK         0.0600 
    169 H169        3.5831  -17.6435  -38.0159 H         1 UNK         0.3000 
    170 H170        3.0201  -15.2416  -38.5065 H         1 UNK         0.0600 
    171 H171        4.5987  -15.9731  -41.0595 H         1 UNK         0.0600 
    172 H172        4.9551  -14.6071  -40.0064 H         1 UNK         0.0600 
    173 H173        5.1576  -16.2449  -39.4120 H         1 UNK         0.0600 
    174 H174        1.6287  -15.2992  -40.9836 H         1 UNK         0.3000 
    175 H175        0.6621  -11.9819  -40.9320 H         1 UNK         0.0600 
    176 H176        2.3669  -13.1528  -43.1996 H         1 UNK         0.0600 
    177 H177        1.1796  -11.8592  -43.3641 H         1 UNK         0.0600 
    178 H178        2.6361  -11.5996  -42.4164 H         1 UNK         0.0600 
    179 H179        0.1906  -14.1962  -42.7500 H         1 UNK         0.3000 
    180 H180       -1.0761  -16.1820  -41.8119 H         1 UNK         0.0600 
    181 H181       -3.5618  -15.0836  -40.3949 H         1 UNK         0.0600 
    182 H182       -2.3600  -16.1389  -39.6631 H         1 UNK         0.0600 
    183 H183       -3.3462  -16.7297  -40.9894 H         1 UNK         0.0600 
    184 H184       -3.4406  -14.9048  -42.8033 H         1 UNK         0.3000 
    185 H185       -3.4754  -15.4846  -45.3573 H         1 UNK         0.0600 
    186 H186       -3.0302  -12.4779  -44.8549 H         1 UNK         0.0600 
    187 H187       -4.2958  -13.1437  -45.8836 H         1 UNK         0.0600 
    188 H188       -4.3174  -13.4581  -44.1602 H         1 UNK         0.0600 
    189 H189       -1.0809  -14.1397  -46.2961 H         1 UNK         0.3000 
    190 H190       -0.4361  -19.8569  -46.0020 H         1 UNK         0.3000 
    191 H191       -2.0270  -19.3364  -48.2763 H         1 UNK         0.0600 
    192 H192       -1.5344  -17.6208  -46.5601 H         1 UNK         0.0600 
    193 H193       -2.4493  -18.5194  -45.3514 H         1 UNK         0.0600 
    194 H194       -3.2712  -17.8082  -46.7360 H         1 UNK         0.0600 
    195 H195       -2.7778  -21.2417  -45.3158 H         1 UNK         0.3000 
    196 H196       -5.4780  -21.8294  -45.9920 H         1 UNK         0.0600 
    197 H197       -4.5913  -22.1303  -43.7094 H         1 UNK         0.0600 
    198 H198       -3.4803  -23.3809  -44.2620 H         1 UNK         0.0600 
    199 H199       -5.2173  -23.6604  -44.3039 H         1 UNK         0.0600 
    200 H200       -2.4231  -23.5760  -46.7052 H         1 UNK         0.3000 
    201 H201       -3.6140  -25.7906  -48.0500 H         1 UNK         0.0600 
    202 H202       -1.3211  -25.8496  -47.1103 H         1 UNK         0.0600 
    203 H203       -0.7858  -24.6278  -48.2608 H         1 UNK         0.0600 
    204 H204       -1.2833  -26.2167  -48.8288 H         1 UNK         0.0600 
    205 H205       -2.2481  -22.7063  -49.2843 H         1 UNK         0.3000 
    206 H206       -2.8095  -23.3164  -52.0565 H         1 UNK         0.0600 
    207 H207       -0.8701  -21.9211  -51.2974 H         1 UNK         0.0600 
    208 H208       -1.9795  -20.6970  -50.6887 H         1 UNK         0.0600 
    209 H209       -1.8901  -21.0363  -52.4131 H         1 UNK         0.0600 
    210 H210       -4.8136  -22.2311  -49.5631 H         1 UNK         0.3000 
    211 H211       -6.7948  -21.2889  -49.3202 H         1 UNK         0.0600 
    212 H212       -7.3240  -21.8432  -52.2855 H         1 UNK         0.0600 
    213 H213       -8.5242  -21.5803  -51.0327 H         1 UNK         0.0600 
    214 H214       -7.5335  -23.0322  -50.9980 H         1 UNK         0.0600 
    215 H215       -4.8693  -19.5491  -49.3810 H         1 UNK         0.3000 
    216 H216       -4.0999  -17.4856  -49.7380 H         1 UNK         0.0600 
    217 H217       -5.7274  -15.6411  -49.9169 H         1 UNK         0.0600 
    218 H218       -6.3209  -16.8503  -48.7924 H         1 UNK         0.0600 
    219 H219       -6.9976  -16.7504  -50.4191 H         1 UNK         0.0600 
    220 H220       -3.6321  -19.1897  -51.7830 H         1 UNK         0.3000 
    221 H221       -2.6656  -19.3255  -53.7564 H         1 UNK         0.0600 
    222 H222       -3.0645  -16.3246  -54.1831 H         1 UNK         0.0600 
    223 H223       -1.7181  -17.0392  -53.2955 H         1 UNK         0.0600 
    224 H224       -1.9244  -17.3689  -55.0057 H         1 UNK         0.0600 
    225 H225       -5.8082  -19.2234  -53.4042 H         1 UNK         0.3000 
    226 H226       -6.6590  -18.7893  -56.1794 H         1 UNK         0.0600 
    227 H227       -8.0881  -18.1562  -54.1978 H         1 UNK         0.0600 
    228 H228       -8.8884  -19.2454  -55.3217 H         1 UNK         0.0600 
    229 H229       -8.2546  -19.8693  -53.8082 H         1 UNK         0.0600 
    230 H230       -5.6313  -21.5323  -54.1913 H         1 UNK         0.3000 
    231 H231       -6.6991  -23.4857  -56.2033 H         1 UNK         0.0600 
    232 H232       -6.8838  -25.0426  -54.3082 H         1 UNK         0.0600 
    233 H233       -7.7814  -23.5811  -53.9457 H         1 UNK         0.0600 
    234 H234       -6.2008  -23.8548  -53.2071 H         1 UNK         0.0600 
    235 H235       -3.8890  -21.9918  -55.7224 H         1 UNK         0.3000 
    236 H236       -2.3053  -24.2845  -56.5830 H         1 UNK         0.0600 
    237 H237       -1.4715  -22.7566  -54.0581 H         1 UNK         0.0600 
    238 H238       -2.1124  -24.3984  -54.0699 H         1 UNK         0.0600 
    239 H239       -0.5777  -24.0642  -54.8340 H         1 UNK         0.0600 
    240 H240        0.1013  -22.5999  -55.8931 H         1 UNK         0.3000 
    241 H241        0.5259  -21.4566  -58.3767 H         1 UNK         0.0600 
    242 H242        0.0328  -17.9284  -58.3914 H         1 UNK         0.3800 
    243 H243        0.8945  -19.2352  -59.1518 H         1 UNK         0.3800 
    244 H244        2.6644  -20.8655  -57.6095 H         1 UNK         0.0800 
    245 H245        2.2753  -22.3011  -56.7294 H         1 UNK         0.0800 
    246 H246        1.4055  -22.1095  -53.9671 H         1 UNK         0.0800 
    247 H247        0.2720  -20.8251  -54.3504 H         1 UNK         0.0800 
@<TRIPOS>BOND
     1    1    2 1    
     2    1  127 1    
     3    1  128 1    
     4    1  129 1    
     5    2    3 2    
     6    2    4 am   BACKBONE|DICT|INTERRES
     7    4    5 1    
     8    4  130 1    
     9    5    6 1    
    10    5   65 1    
    11    5  131 1    
    12    6    7 1    
    13    6  132 1    
    14    6  133 1    
    15    7    8 1    
    16    8    9 1    
    17    8  134 1    
    18    8  135 1    
    19    9   10 ar   
    20    9   14 ar   
    21   10   11 ar   
    22   10  136 1    
    23   11   12 ar   
    24   11  126 1    
    25   12   13 ar   
    26   12  137 1    
    27   13   14 ar   
    28   13   15 1    
    29   14  138 1    
    30   15   16 1    
    31   15  139 1    
    32   15  140 1    
    33   16   17 1    
    34   17   18 1    
    35   17  141 1    
    36   17  142 1    
    37   18   19 1    
    38   18   67 1    
    39   18  143 1    
    40   19   20 am   BACKBONE|DICT|INTERRES
    41   19  144 1    
    42   20   21 2    
    43   20   22 1    
    44   22   23 1    
    45   22   24 1    
    46   22  145 1    
    47   23  146 1    
    48   23  147 1    
    49   23  148 1    
    50   24   25 am   BACKBONE|DICT|INTERRES
    51   24  149 1    
    52   25   26 2    
    53   25   27 1    
    54   27   28 1    
    55   27   29 1    
    56   27  150 1    
    57   28  151 1    
    58   28  152 1    
    59   28  153 1    
    60   29   30 am   BACKBONE|DICT|INTERRES
    61   29  154 1    
    62   30   31 2    
    63   30   32 1    
    64   32   33 1    
    65   32   34 1    
    66   32  155 1    
    67   33  156 1    
    68   33  157 1    
    69   33  158 1    
    70   34   35 am   BACKBONE|DICT|INTERRES
    71   34  159 1    
    72   35   36 2    
    73   35   37 1    
    74   37   38 1    
    75   37   39 1    
    76   37  160 1    
    77   38  161 1    
    78   38  162 1    
    79   38  163 1    
    80   39   40 am   BACKBONE|DICT|INTERRES
    81   39  164 1    
    82   40   41 2    
    83   40   42 1    
    84   42   43 1    
    85   42   44 1    
    86   42  165 1    
    87   43  166 1    
    88   43  167 1    
    89   43  168 1    
    90   44   45 am   BACKBONE|DICT|INTERRES
    91   44  169 1    
    92   45   46 2    
    93   45   47 1    
    94   47   48 1    
    95   47   49 1    
    96   47  170 1    
    97   48  171 1    
    98   48  172 1    
    99   48  173 1    
   100   49   50 am   BACKBONE|DICT|INTERRES
   101   49  174 1    
   102   50   51 2    
   103   50   52 1    
   104   52   53 1    
   105   52   54 1    
   106   52  175 1    
   107   53  176 1    
   108   53  177 1    
   109   53  178 1    
   110   54   55 am   BACKBONE|DICT|INTERRES
   111   54  179 1    
   112   55   56 2    
   113   55   57 1    
   114   57   58 1    
   115   57   59 1    
   116   57  180 1    
   117   58  181 1    
   118   58  182 1    
   119   58  183 1    
   120   59   60 am   BACKBONE|DICT|INTERRES
   121   59  184 1    
   122   60   61 2    
   123   60   62 1    
   124   62   63 1    
   125   62   64 1    
   126   62  185 1    
   127   63  186 1    
   128   63  187 1    
   129   63  188 1    
   130   64   65 am   BACKBONE|DICT|INTERRES
   131   64  189 1    
   132   65   66 2    
   133   67   68 2    
   134   67   69 am   BACKBONE|DICT|INTERRES
   135   69   70 1    
   136   69  190 1    
   137   70   71 1    
   138   70   72 1    
   139   70  191 1    
   140   71  192 1    
   141   71  193 1    
   142   71  194 1    
   143   72   73 2    
   144   72   74 am   BACKBONE|DICT|INTERRES
   145   74   75 1    
   146   74  195 1    
   147   75   76 1    
   148   75   77 1    
   149   75  196 1    
   150   76  197 1    
   151   76  198 1    
   152   76  199 1    
   153   77   78 2    
   154   77   79 am   BACKBONE|DICT|INTERRES
   155   79   80 1    
   156   79  200 1    
   157   80   81 1    
   158   80   82 1    
   159   80  201 1    
   160   81  202 1    
   161   81  203 1    
   162   81  204 1    
   163   82   83 2    
   164   82   84 am   BACKBONE|DICT|INTERRES
   165   84   85 1    
   166   84  205 1    
   167   85   86 1    
   168   85   87 1    
   169   85  206 1    
   170   86  207 1    
   171   86  208 1    
   172   86  209 1    
   173   87   88 2    
   174   87   89 am   BACKBONE|DICT|INTERRES
   175   89   90 1    
   176   89  210 1    
   177   90   91 1    
   178   90   92 1    
   179   90  211 1    
   180   91  212 1    
   181   91  213 1    
   182   91  214 1    
   183   92   93 2    
   184   92   94 am   BACKBONE|DICT|INTERRES
   185   94   95 1    
   186   94  215 1    
   187   95   96 1    
   188   95   97 1    
   189   95  216 1    
   190   96  217 1    
   191   96  218 1    
   192   96  219 1    
   193   97   98 2    
   194   97   99 am   BACKBONE|DICT|INTERRES
   195   99  100 1    
   196   99  220 1    
   197  100  101 1    
   198  100  102 1    
   199  100  221 1    
   200  101  222 1    
   201  101  223 1    
   202  101  224 1    
   203  102  103 2    
   204  102  104 am   BACKBONE|DICT|INTERRES
   205  104  105 1    
   206  104  225 1    
   207  105  106 1    
   208  105  107 1    
   209  105  226 1    
   210  106  227 1    
   211  106  228 1    
   212  106  229 1    
   213  107  108 2    
   214  107  109 am   BACKBONE|DICT|INTERRES
   215  109  110 1    
   216  109  230 1    
   217  110  111 1    
   218  110  112 1    
   219  110  231 1    
   220  111  232 1    
   221  111  233 1    
   222  111  234 1    
   223  112  113 2    
   224  112  114 am   BACKBONE|DICT|INTERRES
   225  114  115 1    
   226  114  235 1    
   227  115  116 1    
   228  115  117 1    
   229  115  236 1    
   230  116  237 1    
   231  116  238 1    
   232  116  239 1    
   233  117  118 2    
   234  117  119 am   BACKBONE|DICT|INTERRES
   235  119  120 1    
   236  119  240 1    
   237  120  121 1    
   238  120  124 1    
   239  120  241 1    
   240  121  122 am   BACKBONE|DICT|INTERRES
   241  121  123 2    
   242  122  242 1    
   243  122  243 1    
   244  124  125 1    
   245  124  244 1    
   246  124  245 1    
   247  125  126 1    
   248  126  246 1    
   249  126  247 1    
@<TRIPOS>SUBSTRUCTURE
     1 UNK         1 GROUP             0       ****    0 ROOT    
