@<TRIPOS>MOLECULE
3R540
247   249    1
SMALL
USER_CHARGES


@<TRIPOS>ATOM
      1 CA          4.0308  -10.3417  -50.1539 C.3       0 UNK        -0.1800 
      2 C           3.0274  -10.8609  -51.1832 C.2       0 UNK         0.5000 
      3 O           2.8659  -10.2376  -52.2307 O.2       0 UNK        -0.5000 
      4 N           2.3449  -11.9913  -50.9523 N.am      1 UNK        -0.5000 
      5 CA          2.3500  -12.8072  -49.7333 C.3       1 UNK         0.1400 
      6 C6          1.6262  -14.1578  -49.9498 C.3       23 UNK        -0.0398 
      7 S7          2.5777  -15.2757  -51.0348 S.3       23 UNK        -0.2404 
      8 C8          2.8585  -16.7066  -49.9348 C.3       23 UNK        -0.0205 
      9 C9          1.7731  -17.7765  -50.0350 C.ar      23 UNK        -0.0193 
     10 C10         0.4120  -17.4481  -49.9907 C.ar      23 UNK        -0.1150 
     11 C11        -0.5660  -18.4405  -50.0944 C.ar      23 UNK        -0.0193 
     12 C12        -0.1771  -19.7774  -50.1968 C.ar      23 UNK        -0.1150 
     13 C13         1.1748  -20.1263  -50.2276 C.ar      23 UNK        -0.0193 
     14 C14         2.1432  -19.1199  -50.1596 C.ar      23 UNK        -0.1150 
     15 C15         1.5746  -21.5921  -50.3466 C.3       23 UNK        -0.0205 
     16 S16         2.7364  -22.1556  -49.0537 S.3       23 UNK        -0.2404 
     17 C17         2.0024  -21.5277  -47.5036 C.3       23 UNK        -0.0398 
     18 CA          0.9962  -22.5022  -46.8462 C.3       11 UNK         0.1400 
     19 N           0.9281  -22.3128  -45.3947 N.am      11 UNK        -0.5000 
     20 C           0.2444  -23.0962  -44.5485 C.2       10 UNK         0.5000 
     21 O          -0.3549  -24.1155  -44.8905 O.2       10 UNK        -0.5000 
     22 CA          0.1754  -22.6341  -43.0819 C.3       10 UNK         0.1400 
     23 CB          1.4477  -23.0358  -42.3215 C.3       10 UNK        -0.1800 
     24 N          -0.0430  -21.1912  -42.9603 N.am      10 UNK        -0.5000 
     25 C          -1.1498  -20.5572  -43.3754 C.2       9 UNK         0.5000 
     26 O          -2.1282  -21.1364  -43.8458 O.2       9 UNK        -0.5000 
     27 CA         -1.1485  -19.0192  -43.3011 C.3       9 UNK         0.1400 
     28 CB         -1.4706  -18.5388  -41.8787 C.3       9 UNK        -0.1800 
     29 N           0.1175  -18.4360  -43.7436 N.am      9 UNK        -0.5000 
     30 C           0.6191  -18.5463  -44.9815 C.2       8 UNK         0.5000 
     31 O           0.0426  -19.1177  -45.9044 O.2       8 UNK        -0.5000 
     32 CA          2.0284  -17.9779  -45.2150 C.3       8 UNK         0.1400 
     33 CB          1.9806  -16.4677  -45.4814 C.3       8 UNK        -0.1800 
     34 N           2.9193  -18.2535  -44.0886 N.am      8 UNK        -0.5000 
     35 C           3.3725  -19.4740  -43.7704 C.2       7 UNK         0.5000 
     36 O           3.1020  -20.4915  -44.4080 O.2       7 UNK        -0.5000 
     37 CA          4.2396  -19.5770  -42.5032 C.3       7 UNK         0.1400 
     38 CB          5.6828  -19.1383  -42.7929 C.3       7 UNK        -0.1800 
     39 N           3.7030  -18.7883  -41.3933 N.am      7 UNK        -0.5000 
     40 C           2.5500  -19.0594  -40.7663 C.2       6 UNK         0.5000 
     41 O           1.8281  -20.0157  -41.0458 O.2       6 UNK        -0.5000 
     42 CA          2.1081  -18.0738  -39.6690 C.3       6 UNK         0.1400 
     43 CB          2.7585  -18.4361  -38.3255 C.3       6 UNK        -0.1800 
     44 N           2.3857  -16.6680  -39.9806 N.am      6 UNK        -0.5000 
     45 C           1.9031  -16.0113  -41.0435 C.2       5 UNK         0.5000 
     46 O           1.2519  -16.5472  -41.9419 O.2       5 UNK        -0.5000 
     47 CA          2.2357  -14.5135  -41.1388 C.3       5 UNK         0.1400 
     48 CB          3.4677  -14.2987  -42.0313 C.3       5 UNK        -0.1800 
     49 N           1.1033  -13.7623  -41.6810 N.am      5 UNK        -0.5000 
     50 C          -0.0332  -13.5214  -41.0083 C.2       4 UNK         0.5000 
     51 O          -0.1994  -13.8360  -39.8286 O.2       4 UNK        -0.5000 
     52 CA         -1.1767  -12.7982  -41.7520 C.3       4 UNK         0.1400 
     53 CB         -1.2098  -11.3110  -41.3666 C.3       4 UNK        -0.1800 
     54 N          -1.0863  -12.9025  -43.2075 N.am      4 UNK        -0.5000 
     55 C          -1.3179  -14.0152  -43.9161 C.2       3 UNK         0.5000 
     56 O          -1.7545  -15.0556  -43.4248 O.2       3 UNK        -0.5000 
     57 CA         -1.0033  -13.9675  -45.4277 C.3       3 UNK         0.1400 
     58 CB         -2.3006  -13.9250  -46.2496 C.3       3 UNK        -0.1800 
     59 N          -0.1330  -12.8658  -45.8643 N.am      3 UNK        -0.5000 
     60 C           1.1097  -12.6194  -45.4279 C.2       2 UNK         0.5000 
     61 O           1.6542  -13.2570  -44.5278 O.2       2 UNK        -0.5000 
     62 CA          1.8792  -11.5017  -46.1512 C.3       2 UNK         0.1400 
     63 CB          3.0629  -10.9729  -45.3215 C.3       2 UNK        -0.1800 
     64 N           2.3853  -12.0248  -47.4165 N.am      2 UNK        -0.5000 
     65 C           1.6950  -12.0515  -48.5617 C.2       1 UNK         0.5000 
     66 O           0.5796  -11.5457  -48.7037 O.2       1 UNK        -0.5000 
     67 C          -0.4004  -22.3988  -47.4934 C.2       11 UNK         0.5000 
     68 O          -0.7781  -23.2778  -48.2676 O.2       11 UNK        -0.5000 
     69 N          -1.1602  -21.3565  -47.1258 N.am      12 UNK        -0.5000 
     70 CA         -2.5361  -21.1272  -47.5624 C.3       12 UNK         0.1400 
     71 CB         -3.0353  -19.7743  -47.0339 C.3       12 UNK        -0.1800 
     72 C          -3.4873  -22.2606  -47.1508 C.2       12 UNK         0.5000 
     73 O          -4.2841  -22.6983  -47.9784 O.2       12 UNK        -0.5000 
     74 N          -3.3608  -22.7433  -45.9073 N.am      13 UNK        -0.5000 
     75 CA         -4.1107  -23.8832  -45.3806 C.3       13 UNK         0.1400 
     76 CB         -3.8479  -24.0274  -43.8741 C.3       13 UNK        -0.1800 
     77 C          -3.7975  -25.1948  -46.1236 C.2       13 UNK         0.5000 
     78 O          -4.7259  -25.9231  -46.4746 O.2       13 UNK        -0.5000 
     79 N          -2.5082  -25.4517  -46.3884 N.am      14 UNK        -0.5000 
     80 CA         -2.0286  -26.6088  -47.1493 C.3       14 UNK         0.1400 
     81 CB         -0.4972  -26.6858  -47.0549 C.3       14 UNK        -0.1800 
     82 C          -2.4855  -26.5921  -48.6210 C.2       14 UNK         0.5000 
     83 O          -2.8563  -27.6370  -49.1567 O.2       14 UNK        -0.5000 
     84 N          -2.4809  -25.4020  -49.2346 N.am      15 UNK        -0.5000 
     85 CA         -2.9620  -25.1512  -50.5943 C.3       15 UNK         0.1400 
     86 CB         -2.3708  -23.8151  -51.0752 C.3       15 UNK        -0.1800 
     87 C          -4.4998  -25.1157  -50.7139 C.2       15 UNK         0.5000 
     88 O          -5.0122  -25.0800  -51.8346 O.2       15 UNK        -0.5000 
     89 N          -5.2012  -25.0525  -49.5702 N.am      16 UNK        -0.5000 
     90 CA         -6.6392  -24.7951  -49.4159 C.3       16 UNK         0.1400 
     91 CB         -7.4595  -26.0082  -49.8989 C.3       16 UNK        -0.1800 
     92 C          -7.0684  -23.4718  -50.0893 C.2       16 UNK         0.5000 
     93 O          -8.1571  -23.3880  -50.6613 O.2       16 UNK        -0.5000 
     94 N          -6.1562  -22.4878  -50.0661 N.am      17 UNK        -0.5000 
     95 CA         -6.1037  -21.2202  -50.8024 C.3       17 UNK         0.1400 
     96 CB         -7.2430  -20.2790  -50.3747 C.3       17 UNK        -0.1800 
     97 C          -6.0529  -21.3711  -52.3379 C.2       17 UNK         0.5000 
     98 O          -5.2435  -20.7052  -52.9851 O.2       17 UNK        -0.5000 
     99 N          -6.9156  -22.2313  -52.8891 N.am      18 UNK        -0.5000 
    100 CA        -7.1692  -22.4430  -54.3110 C.3       18 UNK         0.1400 
    101 CB        -8.2946  -23.4762  -54.4689 C.3       18 UNK        -0.1800 
    102 C         -5.9383  -22.8594  -55.1312 C.2       18 UNK         0.5000 
    103 O         -5.7459  -22.3233  -56.2228 O.2       18 UNK        -0.5000 
    104 N         -5.1110  -23.7745  -54.6024 N.am      19 UNK        -0.5000 
    105 CA        -3.9275  -24.2863  -55.3073 C.3       19 UNK         0.1400 
    106 CB        -3.4218  -25.5649  -54.6232 C.3       19 UNK        -0.1800 
    107 C         -2.7937  -23.2495  -55.4347 C.2       19 UNK         0.5000 
    108 O         -1.9607  -23.3711  -56.3333 O.2       19 UNK        -0.5000 
    109 N         -2.7963  -22.2443  -54.5507 N.am      20 UNK        -0.5000 
    110 CA        -1.8754  -21.1083  -54.5643 C.3       20 UNK         0.1400 
    111 CB        -1.4879  -20.7921  -53.1133 C.3       20 UNK        -0.1800 
    112 C         -2.4846  -19.8696  -55.2535 C.2       20 UNK         0.5000 
    113 O         -1.7858  -18.8678  -55.4096 O.2       20 UNK        -0.5000 
    114 N         -3.7664  -19.9552  -55.6450 N.am      21 UNK        -0.5000 
    115 CA        -4.6056  -18.8951  -56.2128 C.3       21 UNK         0.1400 
    116 CB        -4.0828  -18.4542  -57.5960 C.3       21 UNK        -0.1800 
    117 C         -4.8334  -17.7148  -55.2417 C.2       21 UNK         0.5000 
    118 O         -4.9760  -16.5723  -55.6819 O.2       21 UNK        -0.5000 
    119 N         -4.8785  -18.0146  -53.9373 N.am      22 UNK        -0.5000 
    120 CA        -5.1078  -17.0437  -52.8534 C.3       22 UNK         0.1400 
    121 C         -6.6127  -16.7629  -52.5686 C.2       22 UNK         0.5000 
    122 N         -7.5544  -17.4595  -53.1940 N.am      22 UNK        -0.7600 
    123 O         -6.9341  -15.8873  -51.7701 O.2       22 UNK        -0.5000 
    124 C124       -4.3645  -17.4462  -51.5528 C.3       23 UNK        -0.0398 
    125 S125       -2.5595  -17.5562  -51.7811 S.3       23 UNK        -0.2404 
    126 C126       -2.0404  -18.0682  -50.1161 C.3       23 UNK        -0.0205 
    127 H127        4.6546  -11.1417  -49.7571 H         1 UNK         0.0600 
    128 H128        3.5156   -9.8513  -49.3282 H         1 UNK         0.0600 
    129 H129        4.6961   -9.6091  -50.6114 H         1 UNK         0.0600 
    130 H130        1.6956  -12.3020  -51.6601 H         1 UNK         0.3000 
    131 H131        3.3870  -13.0236  -49.4701 H         1 UNK         0.0600 
    132 H132        0.6393  -14.0010  -50.3893 H         1 UNK         0.0800 
    133 H133        1.4497  -14.6561  -48.9947 H         1 UNK         0.0800 
    134 H134        3.8248  -17.1352  -50.2048 H         1 UNK         0.0800 
    135 H135        2.9567  -16.3840  -48.8977 H         1 UNK         0.0800 
    136 H136        0.1021  -16.4185  -49.9031 H         1 UNK         0.1150 
    137 H137       -0.9295  -20.5488  -50.2706 H         1 UNK         0.1150 
    138 H138        3.1894  -19.3901  -50.1906 H         1 UNK         0.1150 
    139 H139        0.6937  -22.2350  -50.3254 H         1 UNK         0.0800 
    140 H140        2.0362  -21.7485  -51.3222 H         1 UNK         0.0800 
    141 H141        1.5775  -20.5328  -47.6388 H         1 UNK         0.0800 
    142 H142        2.8500  -21.3810  -46.8344 H         1 UNK         0.0800 
    143 H143        1.3543  -23.5218  -47.0039 H         1 UNK         0.0600 
    144 H144        1.4299  -21.5157  -45.0179 H         1 UNK         0.3000 
    145 H145       -0.6715  -23.1406  -42.6146 H         1 UNK         0.0600 
    146 H146        1.6261  -24.1091  -42.3972 H         1 UNK         0.0600 
    147 H147        2.3295  -22.5269  -42.7116 H         1 UNK         0.0600 
    148 H148        1.3648  -22.7942  -41.2618 H         1 UNK         0.0600 
    149 H149        0.6996  -20.6535  -42.5233 H         1 UNK         0.3000 
    150 H150       -1.9311  -18.6515  -43.9677 H         1 UNK         0.0600 
    151 H151       -1.5213  -17.4505  -41.8332 H         1 UNK         0.0600 
    152 H152       -0.7182  -18.8682  -41.1624 H         1 UNK         0.0600 
    153 H153       -2.4344  -18.9250  -41.5453 H         1 UNK         0.0600 
    154 H154        0.6306  -17.8888  -43.0557 H         1 UNK         0.3000 
    155 H155        2.4415  -18.4630  -46.1023 H         1 UNK         0.0600 
    156 H156        1.3776  -16.2485  -46.3632 H         1 UNK         0.0600 
    157 H157        2.9765  -16.0631  -45.6615 H         1 UNK         0.0600 
    158 H158        1.5476  -15.9283  -44.6386 H         1 UNK         0.0600 
    159 H159        3.1317  -17.4800  -43.4765 H         1 UNK         0.3000 
    160 H160        4.2574  -20.6254  -42.1975 H         1 UNK         0.0600 
    161 H161        6.1104  -19.7206  -43.6102 H         1 UNK         0.0600 
    162 H162        6.3215  -19.2856  -41.9218 H         1 UNK         0.0600 
    163 H163        5.7376  -18.0862  -43.0754 H         1 UNK         0.0600 
    164 H164        4.2322  -17.9794  -41.1033 H         1 UNK         0.3000 
    165 H165        1.0268  -18.1746  -39.5579 H         1 UNK         0.0600 
    166 H166        2.3724  -17.8125  -37.5190 H         1 UNK         0.0600 
    167 H167        2.5519  -19.4735  -38.0588 H         1 UNK         0.0600 
    168 H168        3.8420  -18.3144  -38.3558 H         1 UNK         0.0600 
    169 H169        2.9273  -16.1583  -39.2974 H         1 UNK         0.3000 
    170 H170        2.4585  -14.1297  -40.1410 H         1 UNK         0.0600 
    171 H171        3.6938  -13.2383  -42.1451 H         1 UNK         0.0600 
    172 H172        4.3492  -14.7762  -41.6021 H         1 UNK         0.0600 
    173 H173        3.3220  -14.7173  -43.0278 H         1 UNK         0.0600 
    174 H174        1.1592  -13.5244  -42.6670 H         1 UNK         0.3000 
    175 H175       -2.1158  -13.2552  -41.4331 H         1 UNK         0.0600 
    176 H176       -0.2980  -10.7961  -41.6719 H         1 UNK         0.0600 
    177 H177       -2.0555  -10.8018  -41.8291 H         1 UNK         0.0600 
    178 H178       -1.3099  -11.1890  -40.2872 H         1 UNK         0.0600 
    179 H179       -0.7328  -12.0950  -43.6981 H         1 UNK         0.3000 
    180 H180       -0.4900  -14.8993  -45.6668 H         1 UNK         0.0600 
    181 H181       -2.0949  -14.0071  -47.3171 H         1 UNK         0.0600 
    182 H182       -2.8505  -12.9981  -46.0823 H         1 UNK         0.0600 
    183 H183       -2.9611  -14.7517  -45.9843 H         1 UNK         0.0600 
    184 H184       -0.4834  -12.3012  -46.6270 H         1 UNK         0.3000 
    185 H185        1.1953  -10.6691  -46.3303 H         1 UNK         0.0600 
    186 H186        3.8023  -11.7503  -45.1237 H         1 UNK         0.0600 
    187 H187        3.5681  -10.1551  -45.8357 H         1 UNK         0.0600 
    188 H188        2.7233  -10.5907  -44.3580 H         1 UNK         0.0600 
    189 H189        3.2805  -12.4903  -47.3689 H         1 UNK         0.3000 
    190 H190       -0.7559  -20.6443  -46.5209 H         1 UNK         0.3000 
    191 H191       -2.5316  -21.0866  -48.6522 H         1 UNK         0.0600 
    192 H192       -3.1084  -19.7671  -45.9466 H         1 UNK         0.0600 
    193 H193       -4.0243  -19.5421  -47.4307 H         1 UNK         0.0600 
    194 H194       -2.3669  -18.9637  -47.3235 H         1 UNK         0.0600 
    195 H195       -2.7179  -22.2843  -45.2675 H         1 UNK         0.3000 
    196 H196       -5.1729  -23.6710  -45.5183 H         1 UNK         0.0600 
    197 H197       -4.4171  -24.8585  -43.4560 H         1 UNK         0.0600 
    198 H198       -4.1432  -23.1269  -43.3354 H         1 UNK         0.0600 
    199 H199       -2.7945  -24.2115  -43.6633 H         1 UNK         0.0600 
    200 H200       -1.7987  -24.8173  -46.0320 H         1 UNK         0.3000 
    201 H201       -2.4418  -27.5066  -46.6852 H         1 UNK         0.0600 
    202 H202       -0.1711  -26.7799  -46.0190 H         1 UNK         0.0600 
    203 H203       -0.0220  -25.7986  -47.4744 H         1 UNK         0.0600 
    204 H204       -0.1147  -27.5516  -47.5968 H         1 UNK         0.0600 
    205 H205       -2.0862  -24.6044  -48.7419 H         1 UNK         0.3000 
    206 H206       -2.5989  -25.9471  -51.2471 H         1 UNK         0.0600 
    207 H207       -2.6949  -23.5793  -52.0876 H         1 UNK         0.0600 
    208 H208       -2.6772  -22.9869  -50.4353 H         1 UNK         0.0600 
    209 H209       -1.2812  -23.8460  -51.0824 H         1 UNK         0.0600 
    210 H210       -4.6737  -25.0562  -48.7070 H         1 UNK         0.3000 
    211 H211       -6.8178  -24.6705  -48.3471 H         1 UNK         0.0600 
    212 H212       -7.3691  -26.1551  -50.9757 H         1 UNK         0.0600 
    213 H213       -8.5186  -25.8792  -49.6737 H         1 UNK         0.0600 
    214 H214       -7.1327  -26.9242  -49.4067 H         1 UNK         0.0600 
    215 H215       -5.3379  -22.6680  -49.4875 H         1 UNK         0.3000 
    216 H216       -5.1628  -20.7540  -50.5065 H         1 UNK         0.0600 
    217 H217       -7.1514  -19.3081  -50.8619 H         1 UNK         0.0600 
    218 H218       -7.2253  -20.1052  -49.2988 H         1 UNK         0.0600 
    219 H219       -8.2231  -20.6805  -50.6332 H         1 UNK         0.0600 
    220 H220       -7.5174  -22.7388  -52.2445 H         1 UNK         0.3000 
    221 H221       -7.5230  -21.4932  -54.7168 H         1 UNK         0.0600 
    222 H222       -8.0220  -24.4362  -54.0280 H         1 UNK         0.0600 
    223 H223       -9.2117  -23.1363  -53.9874 H         1 UNK         0.0600 
    224 H224       -8.5249  -23.6493  -55.5210 H         1 UNK         0.0600 
    225 H225       -5.3049  -24.1631  -53.6841 H         1 UNK         0.3000 
    226 H226       -4.2344  -24.5550  -56.3205 H         1 UNK         0.0600 
    227 H227       -4.2198  -26.2994  -54.5133 H         1 UNK         0.0600 
    228 H228       -2.6290  -26.0306  -55.2098 H         1 UNK         0.0600 
    229 H229       -3.0140  -25.3604  -53.6349 H         1 UNK         0.0600 
    230 H230       -3.5402  -22.2074  -53.8670 H         1 UNK         0.3000 
    231 H231       -0.9646  -21.3662  -55.1083 H         1 UNK         0.0600 
    232 H232       -0.9729  -21.6342  -52.6514 H         1 UNK         0.0600 
    233 H233       -0.8131  -19.9364  -53.0650 H         1 UNK         0.0600 
    234 H234       -2.3624  -20.5567  -52.5055 H         1 UNK         0.0600 
    235 H235       -4.2422  -20.8347  -55.4919 H         1 UNK         0.3000 
    236 H236       -5.5870  -19.3459  -56.3661 H         1 UNK         0.0600 
    237 H237       -3.1331  -17.9240  -57.5219 H         1 UNK         0.0600 
    238 H238       -3.9391  -19.3113  -58.2539 H         1 UNK         0.0600 
    239 H239       -4.7914  -17.7859  -58.0865 H         1 UNK         0.0600 
    240 H240       -4.7922  -18.9869  -53.6540 H         1 UNK         0.3000 
    241 H241       -4.6929  -16.0844  -53.1687 H         1 UNK         0.0600 
    242 H242       -8.5247  -17.2605  -53.0077 H         1 UNK         0.3800 
    243 H243       -7.3058  -18.1720  -53.8601 H         1 UNK         0.3800 
    244 H244       -4.5536  -16.7201  -50.7600 H         1 UNK         0.0800 
    245 H245       -4.7316  -18.4060  -51.1887 H         1 UNK         0.0800 
    246 H246       -2.6477  -18.9172  -49.8024 H         1 UNK         0.0800 
    247 H247       -2.2345  -17.2630  -49.4059 H         1 UNK         0.0800 
@<TRIPOS>BOND
     1    1    2 1    
     2    1  127 1    
     3    1  128 1    
     4    1  129 1    
     5    2    3 2    
     6    2    4 am   BACKBONE|DICT|INTERRES
     7    4    5 1    
     8    4  130 1    
     9    5    6 1    
    10    5   65 1    
    11    5  131 1    
    12    6    7 1    
    13    6  132 1    
    14    6  133 1    
    15    7    8 1    
    16    8    9 1    
    17    8  134 1    
    18    8  135 1    
    19    9   10 ar   
    20    9   14 ar   
    21   10   11 ar   
    22   10  136 1    
    23   11   12 ar   
    24   11  126 1    
    25   12   13 ar   
    26   12  137 1    
    27   13   14 ar   
    28   13   15 1    
    29   14  138 1    
    30   15   16 1    
    31   15  139 1    
    32   15  140 1    
    33   16   17 1    
    34   17   18 1    
    35   17  141 1    
    36   17  142 1    
    37   18   19 1    
    38   18   67 1    
    39   18  143 1    
    40   19   20 am   BACKBONE|DICT|INTERRES
    41   19  144 1    
    42   20   21 2    
    43   20   22 1    
    44   22   23 1    
    45   22   24 1    
    46   22  145 1    
    47   23  146 1    
    48   23  147 1    
    49   23  148 1    
    50   24   25 am   BACKBONE|DICT|INTERRES
    51   24  149 1    
    52   25   26 2    
    53   25   27 1    
    54   27   28 1    
    55   27   29 1    
    56   27  150 1    
    57   28  151 1    
    58   28  152 1    
    59   28  153 1    
    60   29   30 am   BACKBONE|DICT|INTERRES
    61   29  154 1    
    62   30   31 2    
    63   30   32 1    
    64   32   33 1    
    65   32   34 1    
    66   32  155 1    
    67   33  156 1    
    68   33  157 1    
    69   33  158 1    
    70   34   35 am   BACKBONE|DICT|INTERRES
    71   34  159 1    
    72   35   36 2    
    73   35   37 1    
    74   37   38 1    
    75   37   39 1    
    76   37  160 1    
    77   38  161 1    
    78   38  162 1    
    79   38  163 1    
    80   39   40 am   BACKBONE|DICT|INTERRES
    81   39  164 1    
    82   40   41 2    
    83   40   42 1    
    84   42   43 1    
    85   42   44 1    
    86   42  165 1    
    87   43  166 1    
    88   43  167 1    
    89   43  168 1    
    90   44   45 am   BACKBONE|DICT|INTERRES
    91   44  169 1    
    92   45   46 2    
    93   45   47 1    
    94   47   48 1    
    95   47   49 1    
    96   47  170 1    
    97   48  171 1    
    98   48  172 1    
    99   48  173 1    
   100   49   50 am   BACKBONE|DICT|INTERRES
   101   49  174 1    
   102   50   51 2    
   103   50   52 1    
   104   52   53 1    
   105   52   54 1    
   106   52  175 1    
   107   53  176 1    
   108   53  177 1    
   109   53  178 1    
   110   54   55 am   BACKBONE|DICT|INTERRES
   111   54  179 1    
   112   55   56 2    
   113   55   57 1    
   114   57   58 1    
   115   57   59 1    
   116   57  180 1    
   117   58  181 1    
   118   58  182 1    
   119   58  183 1    
   120   59   60 am   BACKBONE|DICT|INTERRES
   121   59  184 1    
   122   60   61 2    
   123   60   62 1    
   124   62   63 1    
   125   62   64 1    
   126   62  185 1    
   127   63  186 1    
   128   63  187 1    
   129   63  188 1    
   130   64   65 am   BACKBONE|DICT|INTERRES
   131   64  189 1    
   132   65   66 2    
   133   67   68 2    
   134   67   69 am   BACKBONE|DICT|INTERRES
   135   69   70 1    
   136   69  190 1    
   137   70   71 1    
   138   70   72 1    
   139   70  191 1    
   140   71  192 1    
   141   71  193 1    
   142   71  194 1    
   143   72   73 2    
   144   72   74 am   BACKBONE|DICT|INTERRES
   145   74   75 1    
   146   74  195 1    
   147   75   76 1    
   148   75   77 1    
   149   75  196 1    
   150   76  197 1    
   151   76  198 1    
   152   76  199 1    
   153   77   78 2    
   154   77   79 am   BACKBONE|DICT|INTERRES
   155   79   80 1    
   156   79  200 1    
   157   80   81 1    
   158   80   82 1    
   159   80  201 1    
   160   81  202 1    
   161   81  203 1    
   162   81  204 1    
   163   82   83 2    
   164   82   84 am   BACKBONE|DICT|INTERRES
   165   84   85 1    
   166   84  205 1    
   167   85   86 1    
   168   85   87 1    
   169   85  206 1    
   170   86  207 1    
   171   86  208 1    
   172   86  209 1    
   173   87   88 2    
   174   87   89 am   BACKBONE|DICT|INTERRES
   175   89   90 1    
   176   89  210 1    
   177   90   91 1    
   178   90   92 1    
   179   90  211 1    
   180   91  212 1    
   181   91  213 1    
   182   91  214 1    
   183   92   93 2    
   184   92   94 am   BACKBONE|DICT|INTERRES
   185   94   95 1    
   186   94  215 1    
   187   95   96 1    
   188   95   97 1    
   189   95  216 1    
   190   96  217 1    
   191   96  218 1    
   192   96  219 1    
   193   97   98 2    
   194   97   99 am   BACKBONE|DICT|INTERRES
   195   99  100 1    
   196   99  220 1    
   197  100  101 1    
   198  100  102 1    
   199  100  221 1    
   200  101  222 1    
   201  101  223 1    
   202  101  224 1    
   203  102  103 2    
   204  102  104 am   BACKBONE|DICT|INTERRES
   205  104  105 1    
   206  104  225 1    
   207  105  106 1    
   208  105  107 1    
   209  105  226 1    
   210  106  227 1    
   211  106  228 1    
   212  106  229 1    
   213  107  108 2    
   214  107  109 am   BACKBONE|DICT|INTERRES
   215  109  110 1    
   216  109  230 1    
   217  110  111 1    
   218  110  112 1    
   219  110  231 1    
   220  111  232 1    
   221  111  233 1    
   222  111  234 1    
   223  112  113 2    
   224  112  114 am   BACKBONE|DICT|INTERRES
   225  114  115 1    
   226  114  235 1    
   227  115  116 1    
   228  115  117 1    
   229  115  236 1    
   230  116  237 1    
   231  116  238 1    
   232  116  239 1    
   233  117  118 2    
   234  117  119 am   BACKBONE|DICT|INTERRES
   235  119  120 1    
   236  119  240 1    
   237  120  121 1    
   238  120  124 1    
   239  120  241 1    
   240  121  122 am   BACKBONE|DICT|INTERRES
   241  121  123 2    
   242  122  242 1    
   243  122  243 1    
   244  124  125 1    
   245  124  244 1    
   246  124  245 1    
   247  125  126 1    
   248  126  246 1    
   249  126  247 1    
@<TRIPOS>SUBSTRUCTURE
     1 UNK         1 GROUP             0       ****    0 ROOT    
