@<TRIPOS>MOLECULE
3R540
247   249    1
SMALL
USER_CHARGES


@<TRIPOS>ATOM
      1 CA         -2.1562  -16.5473  -49.7995 C.3       0 UNK        -0.1800 
      2 C          -2.4537  -15.1704  -50.3876 C.2       0 UNK         0.5000 
      3 O          -2.1157  -14.9194  -51.5414 O.2       0 UNK        -0.5000 
      4 N          -3.0867  -14.2456  -49.6550 N.am      1 UNK        -0.5000 
      5 CA         -3.5273  -14.3823  -48.2605 C.3       1 UNK         0.1400 
      6 C6         -4.7338  -13.4639  -47.9291 C.3       23 UNK        -0.0398 
      7 S7         -6.0642  -13.4830  -49.1831 S.3       23 UNK        -0.2404 
      8 C8         -7.1763  -14.7811  -48.5620 C.3       23 UNK        -0.0205 
      9 C9         -6.6170  -16.1748  -48.8030 C.ar      23 UNK        -0.0193 
     10 C10        -6.5908  -16.7072  -50.0971 C.ar      23 UNK        -0.1150 
     11 C11        -6.1023  -17.9972  -50.3221 C.ar      23 UNK        -0.0193 
     12 C12        -5.6387  -18.7523  -49.2429 C.ar      23 UNK        -0.1150 
     13 C13        -5.6589  -18.2331  -47.9475 C.ar      23 UNK        -0.0193 
     14 C14        -6.1491  -16.9422  -47.7317 C.ar      23 UNK        -0.1150 
     15 C15        -5.1680  -19.0808  -46.7868 C.3       23 UNK        -0.0205 
     16 S16        -3.3589  -19.2442  -46.8079 S.3       23 UNK        -0.2404 
     17 C17        -3.0990  -20.2650  -45.3232 C.3       23 UNK        -0.0398 
     18 CA         -2.7627  -21.7336  -45.6515 C.3       11 UNK         0.1400 
     19 N          -1.5109  -21.8615  -46.4028 N.am      11 UNK        -0.5000 
     20 C          -1.0714  -22.9970  -46.9590 C.2       10 UNK         0.5000 
     21 O          -1.7122  -24.0456  -46.9535 O.2       10 UNK        -0.5000 
     22 CA          0.3239  -22.9740  -47.6016 C.3       10 UNK         0.1400 
     23 CB          0.2246  -22.5635  -49.0733 C.3       10 UNK        -0.1800 
     24 N           1.2531  -22.0839  -46.9106 N.am      10 UNK        -0.5000 
     25 C           1.6572  -22.2175  -45.6422 C.2       9 UNK         0.5000 
     26 O           1.3084  -23.1471  -44.9148 O.2       9 UNK        -0.5000 
     27 CA          2.5464  -21.0994  -45.0717 C.3       9 UNK         0.1400 
     28 CB          4.0167  -21.2723  -45.4930 C.3       9 UNK        -0.1800 
     29 N           2.0497  -19.7502  -45.3656 N.am      9 UNK        -0.5000 
     30 C           1.9743  -19.0972  -46.5354 C.2       8 UNK         0.5000 
     31 O           2.3239  -19.5691  -47.6176 O.2       8 UNK        -0.5000 
     32 CA          1.3732  -17.6821  -46.4825 C.3       8 UNK         0.1400 
     33 CB         -0.1542  -17.7607  -46.6084 C.3       8 UNK        -0.1800 
     34 N           1.7208  -16.9772  -45.2481 N.am      8 UNK        -0.5000 
     35 C           2.9552  -16.5517  -44.9414 C.2       7 UNK         0.5000 
     36 O           3.9169  -16.6209  -45.7073 O.2       7 UNK        -0.5000 
     37 CA          3.1541  -15.9886  -43.5244 C.3       7 UNK         0.1400 
     38 CB          2.7822  -14.4990  -43.4660 C.3       7 UNK        -0.1800 
     39 N           2.3767  -16.7384  -42.5356 N.am      7 UNK        -0.5000 
     40 C           2.7063  -17.9599  -42.0879 C.2       6 UNK         0.5000 
     41 O           3.7377  -18.5499  -42.4086 O.2       6 UNK        -0.5000 
     42 CA          1.7111  -18.6516  -41.1369 C.3       6 UNK         0.1400 
     43 CB          2.0677  -18.3529  -39.6731 C.3       6 UNK        -0.1800 
     44 N           0.3250  -18.2545  -41.3821 N.am      6 UNK        -0.5000 
     45 C          -0.4018  -18.6422  -42.4383 C.2       5 UNK         0.5000 
     46 O           0.0016  -19.4224  -43.3017 O.2       5 UNK        -0.5000 
     47 CA         -1.8058  -18.0239  -42.5677 C.3       5 UNK         0.1400 
     48 CB         -2.8495  -18.9087  -41.8698 C.3       5 UNK        -0.1800 
     49 N          -1.8935  -16.6553  -42.0538 N.am      5 UNK        -0.5000 
     50 C          -1.2549  -15.6137  -42.6010 C.2       4 UNK         0.5000 
     51 O          -0.4754  -15.7133  -43.5523 O.2       4 UNK        -0.5000 
     52 CA         -1.4826  -14.2470  -41.9483 C.3       4 UNK         0.1400 
     53 CB         -0.3372  -13.9249  -40.9695 C.3       4 UNK        -0.1800 
     54 N          -1.5647  -13.2455  -43.0046 N.am      4 UNK        -0.5000 
     55 C          -1.9916  -11.9845  -42.8672 C.2       3 UNK         0.5000 
     56 O          -2.3704  -11.5176  -41.7916 O.2       3 UNK        -0.5000 
     57 CA         -2.0534  -11.0932  -44.1301 C.3       3 UNK         0.1400 
     58 CB         -1.3603   -9.7325  -43.9101 C.3       3 UNK        -0.1800 
     59 N          -1.5844  -11.7351  -45.3661 N.am      3 UNK        -0.5000 
     60 C          -0.3425  -12.1293  -45.6828 C.2       2 UNK         0.5000 
     61 O           0.6370  -11.9332  -44.9636 O.2       2 UNK        -0.5000 
     62 CA         -0.1577  -12.8803  -47.0219 C.3       2 UNK         0.1400 
     63 CB          0.7678  -14.0974  -46.8498 C.3       2 UNK        -0.1800 
     64 N          -1.3987  -13.2819  -47.7066 N.am      2 UNK        -0.5000 
     65 C          -2.3705  -14.1051  -47.2751 C.2       1 UNK         0.5000 
     66 O          -2.3931  -14.6149  -46.1564 O.2       1 UNK        -0.5000 
     67 C          -2.7261  -22.5715  -44.3585 C.2       11 UNK         0.5000 
     68 O          -3.6792  -23.2995  -44.0828 O.2       11 UNK        -0.5000 
     69 N          -1.6107  -22.4892  -43.6171 N.am      12 UNK        -0.5000 
     70 CA         -1.3657  -23.2685  -42.4008 C.3       12 UNK         0.1400 
     71 CB         -0.1300  -22.7096  -41.6783 C.3       12 UNK        -0.1800 
     72 C          -1.2136  -24.7773  -42.6809 C.2       12 UNK         0.5000 
     73 O          -1.6617  -25.5942  -41.8761 O.2       12 UNK        -0.5000 
     74 N          -0.6231  -25.1165  -43.8350 N.am      13 UNK        -0.5000 
     75 CA         -0.4832  -26.4835  -44.3439 C.3       13 UNK         0.1400 
     76 CB          0.6342  -26.4997  -45.3990 C.3       13 UNK        -0.1800 
     77 C          -1.7848  -27.0680  -44.9369 C.2       13 UNK         0.5000 
     78 O          -1.8160  -28.2611  -45.2403 O.2       13 UNK        -0.5000 
     79 N          -2.8157  -26.2270  -45.1141 N.am      14 UNK        -0.5000 
     80 CA         -4.1191  -26.5119  -45.7287 C.3       14 UNK         0.1400 
     81 CB         -4.8935  -27.5840  -44.9340 C.3       14 UNK        -0.1800 
     82 C          -4.0441  -26.8178  -47.2426 C.2       14 UNK         0.5000 
     83 O          -4.9551  -27.4397  -47.7916 O.2       14 UNK        -0.5000 
     84 N          -2.9775  -26.3440  -47.8977 N.am      15 UNK        -0.5000 
     85 CA         -2.7875  -26.3665  -49.3483 C.3       15 UNK         0.1400 
     86 CB         -1.2837  -26.4744  -49.6455 C.3       15 UNK        -0.1800 
     87 C          -3.3780  -25.1116  -50.0216 C.2       15 UNK         0.5000 
     88 O          -3.6964  -25.1574  -51.2104 O.2       15 UNK        -0.5000 
     89 N          -3.5085  -24.0209  -49.2503 N.am      16 UNK        -0.5000 
     90 CA         -4.0466  -22.6966  -49.5836 C.3       16 UNK         0.1400 
     91 CB         -5.5133  -22.7834  -50.0493 C.3       16 UNK        -0.1800 
     92 C          -3.1820  -21.8898  -50.5701 C.2       16 UNK         0.5000 
     93 O          -2.7937  -20.7693  -50.2465 O.2       16 UNK        -0.5000 
     94 N          -2.8953  -22.4663  -51.7426 N.am      17 UNK        -0.5000 
     95 CA         -2.1103  -21.8652  -52.8186 C.3       17 UNK         0.1400 
     96 CB         -2.2601  -22.7272  -54.0833 C.3       17 UNK        -0.1800 
     97 C          -0.6331  -21.6999  -52.4178 C.2       17 UNK         0.5000 
     98 O           0.1196  -22.6773  -52.4280 O.2       17 UNK        -0.5000 
     99 N          -0.2468  -20.4697  -52.0594 N.am      18 UNK        -0.5000 
    100 CA         1.1127  -20.0646  -51.7019 C.3       18 UNK         0.1400 
    101 CB         1.0403  -18.7421  -50.9176 C.3       18 UNK        -0.1800 
    102 C          2.0111  -19.9739  -52.9524 C.2       18 UNK         0.5000 
    103 O          2.3571  -18.8752  -53.3922 O.2       18 UNK        -0.5000 
    104 N          2.3229  -21.1436  -53.5287 N.am      19 UNK        -0.5000 
    105 CA         3.0270  -21.4045  -54.7915 C.3       19 UNK         0.1400 
    106 CB         4.4410  -20.7914  -54.8095 C.3       19 UNK        -0.1800 
    107 C          2.2015  -20.9940  -56.0255 C.2       19 UNK         0.5000 
    108 O          1.9248  -21.8354  -56.8815 O.2       19 UNK        -0.5000 
    109 N          1.7882  -19.7243  -56.0708 N.am      20 UNK        -0.5000 
    110 CA         0.7666  -19.2052  -56.9745 C.3       20 UNK         0.1400 
    111 CB         0.9822  -17.6918  -57.1333 C.3       20 UNK        -0.1800 
    112 C         -0.6332  -19.4897  -56.4010 C.2       20 UNK         0.5000 
    113 O         -0.7710  -19.7406  -55.2009 O.2       20 UNK        -0.5000 
    114 N         -1.6654  -19.3838  -57.2462 N.am      21 UNK        -0.5000 
    115 CA        -3.0807  -19.5661  -56.8953 C.3       21 UNK         0.1400 
    116 CB        -3.8669  -19.8864  -58.1797 C.3       21 UNK        -0.1800 
    117 C         -3.6836  -18.3758  -56.1068 C.2       21 UNK         0.5000 
    118 O         -4.8085  -17.9569  -56.3864 O.2       21 UNK        -0.5000 
    119 N         -2.9189  -17.8735  -55.1308 N.am      22 UNK        -0.5000 
    120 CA        -3.1969  -16.7532  -54.2182 C.3       22 UNK         0.1400 
    121 C         -3.2000  -15.3563  -54.9052 C.2       22 UNK         0.5000 
    122 N         -2.9281  -14.3037  -54.1483 N.am      22 UNK        -0.7600 
    123 O         -3.4411  -15.2014  -56.1000 O.2       22 UNK        -0.5000 
    124 C124       -4.4649  -16.9648  -53.3446 C.3       23 UNK        -0.0398 
    125 S125       -4.4311  -18.5567  -52.4531 S.3       23 UNK        -0.2404 
    126 C126       -6.0926  -18.5983  -51.7182 C.3       23 UNK        -0.0205 
    127 H127       -1.6350  -17.1689  -50.5272 H         1 UNK         0.0600 
    128 H128       -3.0781  -17.0638  -49.5313 H         1 UNK         0.0600 
    129 H129       -1.5255  -16.4654  -48.9159 H         1 UNK         0.0600 
    130 H130       -3.3189  -13.3655  -50.0922 H         1 UNK         0.3000 
    131 H131       -3.8484  -15.4104  -48.0930 H         1 UNK         0.0600 
    132 H132       -4.4090  -12.4253  -47.8418 H         1 UNK         0.0800 
    133 H133       -5.1537  -13.7274  -46.9566 H         1 UNK         0.0800 
    134 H134       -7.3829  -14.6159  -47.5035 H         1 UNK         0.0800 
    135 H135       -8.1354  -14.6927  -49.0743 H         1 UNK         0.0800 
    136 H136       -6.9545  -16.1166  -50.9262 H         1 UNK         0.1150 
    137 H137       -5.2483  -19.7446  -49.4114 H         1 UNK         0.1150 
    138 H138       -6.1701  -16.5366  -46.7300 H         1 UNK         0.1150 
    139 H139       -5.4817  -18.6444  -45.8373 H         1 UNK         0.0800 
    140 H140       -5.6230  -20.0709  -46.8426 H         1 UNK         0.0800 
    141 H141       -2.2750  -19.8279  -44.7653 H         1 UNK         0.0800 
    142 H142       -3.9783  -20.1964  -44.6796 H         1 UNK         0.0800 
    143 H143       -3.5676  -22.1346  -46.2707 H         1 UNK         0.0600 
    144 H144       -0.9377  -21.0346  -46.4735 H         1 UNK         0.3000 
    145 H145        0.7304  -23.9853  -47.5559 H         1 UNK         0.0600 
    146 H146        1.1914  -22.6501  -49.5686 H         1 UNK         0.0600 
    147 H147       -0.4720  -23.2040  -49.6151 H         1 UNK         0.0600 
    148 H148       -0.1227  -21.5351  -49.1823 H         1 UNK         0.0600 
    149 H149        1.5962  -21.2751  -47.4232 H         1 UNK         0.3000 
    150 H150        2.5054  -21.1923  -43.9851 H         1 UNK         0.0600 
    151 H151        4.4008  -22.2404  -45.1693 H         1 UNK         0.0600 
    152 H152        4.6455  -20.5047  -45.0415 H         1 UNK         0.0600 
    153 H153        4.1441  -21.2175  -46.5744 H         1 UNK         0.0600 
    154 H154        1.6238  -19.2915  -44.5682 H         1 UNK         0.3000 
    155 H155        1.7640  -17.1155  -47.3301 H         1 UNK         0.0600 
    156 H156       -0.6087  -16.7718  -46.6368 H         1 UNK         0.0600 
    157 H157       -0.5965  -18.2991  -45.7710 H         1 UNK         0.0600 
    158 H158       -0.4454  -18.2781  -47.5234 H         1 UNK         0.0600 
    159 H159        0.9703  -16.8065  -44.5878 H         1 UNK         0.3000 
    160 H160        4.2134  -16.0789  -43.2738 H         1 UNK         0.0600 
    161 H161        1.7374  -14.3267  -43.7238 H         1 UNK         0.0600 
    162 H162        3.3855  -13.9208  -44.1669 H         1 UNK         0.0600 
    163 H163        2.9563  -14.0869  -42.4722 H         1 UNK         0.0600 
    164 H164        1.4913  -16.3400  -42.2603 H         1 UNK         0.3000 
    165 H165        1.7942  -19.7292  -41.2959 H         1 UNK         0.0600 
    166 H166        1.9876  -17.2887  -39.4473 H         1 UNK         0.0600 
    167 H167        1.4115  -18.8923  -38.9898 H         1 UNK         0.0600 
    168 H168        3.0904  -18.6600  -39.4501 H         1 UNK         0.0600 
    169 H169       -0.0930  -17.6203  -40.7175 H         1 UNK         0.3000 
    170 H170       -2.0461  -17.9729  -43.6300 H         1 UNK         0.0600 
    171 H171       -2.7951  -19.9386  -42.2252 H         1 UNK         0.0600 
    172 H172       -2.7013  -18.9297  -40.7895 H         1 UNK         0.0600 
    173 H173       -3.8611  -18.5520  -42.0639 H         1 UNK         0.0600 
    174 H174       -2.5068  -16.5040  -41.2655 H         1 UNK         0.3000 
    175 H175       -2.4311  -14.2652  -41.4078 H         1 UNK         0.0600 
    176 H176       -0.5199  -12.9946  -40.4321 H         1 UNK         0.0600 
    177 H177       -0.2268  -14.7103  -40.2209 H         1 UNK         0.0600 
    178 H178        0.6168  -13.8265  -41.4876 H         1 UNK         0.0600 
    179 H179       -1.2946  -13.5818  -43.9214 H         1 UNK         0.3000 
    180 H180       -3.1132  -10.8921  -44.2928 H         1 UNK         0.0600 
    181 H181       -1.8306   -9.1822  -43.0945 H         1 UNK         0.0600 
    182 H182       -0.3066   -9.8480  -43.6554 H         1 UNK         0.0600 
    183 H183       -1.4251   -9.1072  -44.8005 H         1 UNK         0.0600 
    184 H184       -2.3110  -11.9713  -46.0253 H         1 UNK         0.3000 
    185 H185        0.3404  -12.1793  -47.6930 H         1 UNK         0.0600 
    186 H186        0.3893  -14.7614  -46.0744 H         1 UNK         0.0600 
    187 H187        0.8599  -14.6678  -47.7740 H         1 UNK         0.0600 
    188 H188        1.7719  -13.7928  -46.5529 H         1 UNK         0.0600 
    189 H189       -1.4994  -12.9155  -48.6432 H         1 UNK         0.3000 
    190 H190       -0.8592  -21.8862  -43.9212 H         1 UNK         0.3000 
    191 H191       -2.2273  -23.1419  -41.7417 H         1 UNK         0.0600 
    192 H192        0.0639  -23.2586  -40.7561 H         1 UNK         0.0600 
    193 H193       -0.2710  -21.6628  -41.4088 H         1 UNK         0.0600 
    194 H194        0.7662  -22.7783  -42.2951 H         1 UNK         0.0600 
    195 H195       -0.2064  -24.3798  -44.3950 H         1 UNK         0.3000 
    196 H196       -0.1808  -27.1299  -43.5176 H         1 UNK         0.0600 
    197 H197        0.8425  -27.5167  -45.7334 H         1 UNK         0.0600 
    198 H198        1.5634  -26.0922  -45.0001 H         1 UNK         0.0600 
    199 H199        0.3612  -25.9172  -46.2782 H         1 UNK         0.0600 
    200 H200       -2.6758  -25.2623  -44.8434 H         1 UNK         0.3000 
    201 H201       -4.6847  -25.5826  -45.6487 H         1 UNK         0.0600 
    202 H202       -4.9292  -27.3384  -43.8726 H         1 UNK         0.0600 
    203 H203       -4.4433  -28.5715  -45.0363 H         1 UNK         0.0600 
    204 H204       -5.9241  -27.6600  -45.2824 H         1 UNK         0.0600 
    205 H205       -2.3157  -25.7823  -47.3699 H         1 UNK         0.3000 
    206 H206       -3.2855  -27.2411  -49.7720 H         1 UNK         0.0600 
    207 H207       -0.8671  -27.3922  -49.2302 H         1 UNK         0.0600 
    208 H208       -1.0962  -26.4884  -50.7200 H         1 UNK         0.0600 
    209 H209       -0.7274  -25.6364  -49.2251 H         1 UNK         0.0600 
    210 H210       -3.1361  -24.0984  -48.3101 H         1 UNK         0.3000 
    211 H211       -4.0426  -22.1363  -48.6476 H         1 UNK         0.0600 
    212 H212       -5.6177  -23.3421  -50.9794 H         1 UNK         0.0600 
    213 H213       -5.9299  -21.7918  -50.2248 H         1 UNK         0.0600 
    214 H214       -6.1354  -23.2679  -49.2968 H         1 UNK         0.0600 
    215 H215       -3.2099  -23.4224  -51.8794 H         1 UNK         0.3000 
    216 H216       -2.5235  -20.8788  -53.0384 H         1 UNK         0.0600 
    217 H217       -1.6596  -22.3285  -54.9018 H         1 UNK         0.0600 
    218 H218       -3.2959  -22.7515  -54.4219 H         1 UNK         0.0600 
    219 H219       -1.9389  -23.7553  -53.9114 H         1 UNK         0.0600 
    220 H220       -0.9394  -19.7353  -52.0680 H         1 UNK         0.3000 
    221 H221        1.5470  -20.8165  -51.0417 H         1 UNK         0.0600 
    222 H222        0.5990  -17.9417  -51.5128 H         1 UNK         0.0600 
    223 H223        0.4444  -18.8550  -50.0113 H         1 UNK         0.0600 
    224 H224        2.0348  -18.4162  -50.6105 H         1 UNK         0.0600 
    225 H225        1.8793  -21.9609  -53.1201 H         1 UNK         0.3000 
    226 H226        3.1456  -22.4882  -54.8398 H         1 UNK         0.0600 
    227 H227        5.0247  -21.1241  -53.9513 H         1 UNK         0.0600 
    228 H228        4.9808  -21.0947  -55.7072 H         1 UNK         0.0600 
    229 H229        4.4207  -19.7016  -54.7987 H         1 UNK         0.0600 
    230 H230        2.0048  -19.1493  -55.2614 H         1 UNK         0.3000 
    231 H231        0.8566  -19.6855  -57.9510 H         1 UNK         0.0600 
    232 H232        0.2564  -17.2594  -57.8231 H         1 UNK         0.0600 
    233 H233        1.9743  -17.4755  -57.5301 H         1 UNK         0.0600 
    234 H234        0.8818  -17.1693  -56.1807 H         1 UNK         0.0600 
    235 H235       -1.4807  -19.1271  -58.2053 H         1 UNK         0.3000 
    236 H236       -3.1579  -20.4375  -56.2415 H         1 UNK         0.0600 
    237 H237       -3.8524  -19.0487  -58.8780 H         1 UNK         0.0600 
    238 H238       -3.4529  -20.7567  -58.6892 H         1 UNK         0.0600 
    239 H239       -4.9104  -20.1122  -57.9567 H         1 UNK         0.0600 
    240 H240       -2.0272  -18.3360  -54.9859 H         1 UNK         0.3000 
    241 H241       -2.3398  -16.7493  -53.5434 H         1 UNK         0.0600 
    242 H242       -2.6632  -14.4249  -53.1705 H         1 UNK         0.3800 
    243 H243       -2.9207  -13.3835  -54.5585 H         1 UNK         0.3800 
    244 H244       -4.5590  -16.1674  -52.6057 H         1 UNK         0.0800 
    245 H245       -5.3641  -16.9216  -53.9608 H         1 UNK         0.0800 
    246 H246       -6.8080  -18.0914  -52.3673 H         1 UNK         0.0800 
    247 H247       -6.4203  -19.6373  -51.6622 H         1 UNK         0.0800 
@<TRIPOS>BOND
     1    1    2 1    
     2    1  127 1    
     3    1  128 1    
     4    1  129 1    
     5    2    3 2    
     6    2    4 am   BACKBONE|DICT|INTERRES
     7    4    5 1    
     8    4  130 1    
     9    5    6 1    
    10    5   65 1    
    11    5  131 1    
    12    6    7 1    
    13    6  132 1    
    14    6  133 1    
    15    7    8 1    
    16    8    9 1    
    17    8  134 1    
    18    8  135 1    
    19    9   10 ar   
    20    9   14 ar   
    21   10   11 ar   
    22   10  136 1    
    23   11   12 ar   
    24   11  126 1    
    25   12   13 ar   
    26   12  137 1    
    27   13   14 ar   
    28   13   15 1    
    29   14  138 1    
    30   15   16 1    
    31   15  139 1    
    32   15  140 1    
    33   16   17 1    
    34   17   18 1    
    35   17  141 1    
    36   17  142 1    
    37   18   19 1    
    38   18   67 1    
    39   18  143 1    
    40   19   20 am   BACKBONE|DICT|INTERRES
    41   19  144 1    
    42   20   21 2    
    43   20   22 1    
    44   22   23 1    
    45   22   24 1    
    46   22  145 1    
    47   23  146 1    
    48   23  147 1    
    49   23  148 1    
    50   24   25 am   BACKBONE|DICT|INTERRES
    51   24  149 1    
    52   25   26 2    
    53   25   27 1    
    54   27   28 1    
    55   27   29 1    
    56   27  150 1    
    57   28  151 1    
    58   28  152 1    
    59   28  153 1    
    60   29   30 am   BACKBONE|DICT|INTERRES
    61   29  154 1    
    62   30   31 2    
    63   30   32 1    
    64   32   33 1    
    65   32   34 1    
    66   32  155 1    
    67   33  156 1    
    68   33  157 1    
    69   33  158 1    
    70   34   35 am   BACKBONE|DICT|INTERRES
    71   34  159 1    
    72   35   36 2    
    73   35   37 1    
    74   37   38 1    
    75   37   39 1    
    76   37  160 1    
    77   38  161 1    
    78   38  162 1    
    79   38  163 1    
    80   39   40 am   BACKBONE|DICT|INTERRES
    81   39  164 1    
    82   40   41 2    
    83   40   42 1    
    84   42   43 1    
    85   42   44 1    
    86   42  165 1    
    87   43  166 1    
    88   43  167 1    
    89   43  168 1    
    90   44   45 am   BACKBONE|DICT|INTERRES
    91   44  169 1    
    92   45   46 2    
    93   45   47 1    
    94   47   48 1    
    95   47   49 1    
    96   47  170 1    
    97   48  171 1    
    98   48  172 1    
    99   48  173 1    
   100   49   50 am   BACKBONE|DICT|INTERRES
   101   49  174 1    
   102   50   51 2    
   103   50   52 1    
   104   52   53 1    
   105   52   54 1    
   106   52  175 1    
   107   53  176 1    
   108   53  177 1    
   109   53  178 1    
   110   54   55 am   BACKBONE|DICT|INTERRES
   111   54  179 1    
   112   55   56 2    
   113   55   57 1    
   114   57   58 1    
   115   57   59 1    
   116   57  180 1    
   117   58  181 1    
   118   58  182 1    
   119   58  183 1    
   120   59   60 am   BACKBONE|DICT|INTERRES
   121   59  184 1    
   122   60   61 2    
   123   60   62 1    
   124   62   63 1    
   125   62   64 1    
   126   62  185 1    
   127   63  186 1    
   128   63  187 1    
   129   63  188 1    
   130   64   65 am   BACKBONE|DICT|INTERRES
   131   64  189 1    
   132   65   66 2    
   133   67   68 2    
   134   67   69 am   BACKBONE|DICT|INTERRES
   135   69   70 1    
   136   69  190 1    
   137   70   71 1    
   138   70   72 1    
   139   70  191 1    
   140   71  192 1    
   141   71  193 1    
   142   71  194 1    
   143   72   73 2    
   144   72   74 am   BACKBONE|DICT|INTERRES
   145   74   75 1    
   146   74  195 1    
   147   75   76 1    
   148   75   77 1    
   149   75  196 1    
   150   76  197 1    
   151   76  198 1    
   152   76  199 1    
   153   77   78 2    
   154   77   79 am   BACKBONE|DICT|INTERRES
   155   79   80 1    
   156   79  200 1    
   157   80   81 1    
   158   80   82 1    
   159   80  201 1    
   160   81  202 1    
   161   81  203 1    
   162   81  204 1    
   163   82   83 2    
   164   82   84 am   BACKBONE|DICT|INTERRES
   165   84   85 1    
   166   84  205 1    
   167   85   86 1    
   168   85   87 1    
   169   85  206 1    
   170   86  207 1    
   171   86  208 1    
   172   86  209 1    
   173   87   88 2    
   174   87   89 am   BACKBONE|DICT|INTERRES
   175   89   90 1    
   176   89  210 1    
   177   90   91 1    
   178   90   92 1    
   179   90  211 1    
   180   91  212 1    
   181   91  213 1    
   182   91  214 1    
   183   92   93 2    
   184   92   94 am   BACKBONE|DICT|INTERRES
   185   94   95 1    
   186   94  215 1    
   187   95   96 1    
   188   95   97 1    
   189   95  216 1    
   190   96  217 1    
   191   96  218 1    
   192   96  219 1    
   193   97   98 2    
   194   97   99 am   BACKBONE|DICT|INTERRES
   195   99  100 1    
   196   99  220 1    
   197  100  101 1    
   198  100  102 1    
   199  100  221 1    
   200  101  222 1    
   201  101  223 1    
   202  101  224 1    
   203  102  103 2    
   204  102  104 am   BACKBONE|DICT|INTERRES
   205  104  105 1    
   206  104  225 1    
   207  105  106 1    
   208  105  107 1    
   209  105  226 1    
   210  106  227 1    
   211  106  228 1    
   212  106  229 1    
   213  107  108 2    
   214  107  109 am   BACKBONE|DICT|INTERRES
   215  109  110 1    
   216  109  230 1    
   217  110  111 1    
   218  110  112 1    
   219  110  231 1    
   220  111  232 1    
   221  111  233 1    
   222  111  234 1    
   223  112  113 2    
   224  112  114 am   BACKBONE|DICT|INTERRES
   225  114  115 1    
   226  114  235 1    
   227  115  116 1    
   228  115  117 1    
   229  115  236 1    
   230  116  237 1    
   231  116  238 1    
   232  116  239 1    
   233  117  118 2    
   234  117  119 am   BACKBONE|DICT|INTERRES
   235  119  120 1    
   236  119  240 1    
   237  120  121 1    
   238  120  124 1    
   239  120  241 1    
   240  121  122 am   BACKBONE|DICT|INTERRES
   241  121  123 2    
   242  122  242 1    
   243  122  243 1    
   244  124  125 1    
   245  124  244 1    
   246  124  245 1    
   247  125  126 1    
   248  126  246 1    
   249  126  247 1    
@<TRIPOS>SUBSTRUCTURE
     1 UNK         1 GROUP             0       ****    0 ROOT    
