@<TRIPOS>MOLECULE
3R540
247   249    1
SMALL
USER_CHARGES


@<TRIPOS>ATOM
      1 CA          0.4773   -9.8740  -49.8124 C.3       0 UNK        -0.1800 
      2 C           1.3871   -9.8244  -48.5935 C.2       0 UNK         0.5000 
      3 O           1.7807   -8.7405  -48.1609 O.2       0 UNK        -0.5000 
      4 N           1.7155  -10.9916  -48.0284 N.am      1 UNK        -0.5000 
      5 CA          2.5637  -11.1787  -46.8458 C.3       1 UNK         0.1400 
      6 C6          3.2304  -12.5832  -46.8253 C.3       23 UNK        -0.0398 
      7 S7          2.0741  -13.9754  -47.0987 S.3       23 UNK        -0.2404 
      8 C8          2.6748  -14.5837  -48.7011 C.3       23 UNK        -0.0205 
      9 C9          1.7400  -15.6200  -49.3005 C.ar      23 UNK        -0.0193 
     10 C10         0.6021  -15.2089  -49.9978 C.ar      23 UNK        -0.1150 
     11 C11        -0.2232  -16.1486  -50.6176 C.ar      23 UNK        -0.0193 
     12 C12         0.0943  -17.5069  -50.5329 C.ar      23 UNK        -0.1150 
     13 C13         1.2156  -17.9406  -49.8123 C.ar      23 UNK        -0.0193 
     14 C14         2.0326  -16.9834  -49.2015 C.ar      23 UNK        -0.1150 
     15 C15         1.6101  -19.4160  -49.6879 C.3       23 UNK        -0.0205 
     16 S16         0.3809  -20.6394  -50.2641 S.3       23 UNK        -0.2404 
     17 C17        -1.0072  -20.3731  -49.1117 C.3       23 UNK        -0.0398 
     18 CA         -1.3117  -21.6334  -48.2573 C.3       11 UNK         0.1400 
     19 N          -0.7565  -21.5404  -46.9014 N.am      11 UNK        -0.5000 
     20 C          -0.7607  -22.5402  -46.0074 C.2       10 UNK         0.5000 
     21 O          -1.1635  -23.6759  -46.2547 O.2       10 UNK        -0.5000 
     22 CA         -0.3065  -22.2017  -44.5765 C.3       10 UNK         0.1400 
     23 CB          1.2247  -22.2221  -44.4602 C.3       10 UNK        -0.1800 
     24 N          -0.8344  -20.9154  -44.1178 N.am      10 UNK        -0.5000 
     25 C          -2.1381  -20.6630  -43.9296 C.2       9 UNK         0.5000 
     26 O          -3.0164  -21.5152  -44.0531 O.2       9 UNK        -0.5000 
     27 CA         -2.5409  -19.2146  -43.5953 C.3       9 UNK         0.1400 
     28 CB         -2.4068  -18.9459  -42.0902 C.3       9 UNK        -0.1800 
     29 N          -1.7737  -18.2217  -44.3481 N.am      9 UNK        -0.5000 
     30 C          -1.7997  -18.0883  -45.6825 C.2       8 UNK         0.5000 
     31 O          -2.5170  -18.7617  -46.4220 O.2       8 UNK        -0.5000 
     32 CA         -0.8137  -17.0771  -46.2968 C.3       8 UNK         0.1400 
     33 CB         -1.3830  -15.6517  -46.2515 C.3       8 UNK        -0.1800 
     34 N           0.4942  -17.1159  -45.6396 N.am      8 UNK        -0.5000 
     35 C           1.3132  -18.1766  -45.6649 C.2       7 UNK         0.5000 
     36 O           1.0623  -19.2149  -46.2767 O.2       7 UNK        -0.5000 
     37 CA          2.5903  -18.0881  -44.8105 C.3       7 UNK         0.1400 
     38 CB          3.6632  -17.2305  -45.4967 C.3       7 UNK        -0.1800 
     39 N           2.3167  -17.5616  -43.4726 N.am      7 UNK        -0.5000 
     40 C           1.6275  -18.2293  -42.5337 C.2       6 UNK         0.5000 
     41 O           1.2062  -19.3741  -42.6896 O.2       6 UNK        -0.5000 
     42 CA          1.3177  -17.4934  -41.2135 C.3       6 UNK         0.1400 
     43 CB          2.4256  -17.7537  -40.1825 C.3       6 UNK        -0.1800 
     44 N           1.1473  -16.0508  -41.3773 N.am      6 UNK        -0.5000 
     45 C           0.2512  -15.4600  -42.1793 C.2       5 UNK         0.5000 
     46 O          -0.6300  -16.0741  -42.7806 O.2       5 UNK        -0.5000 
     47 CA          0.3913  -13.9400  -42.3920 C.3       5 UNK         0.1400 
     48 CB         -0.7132  -13.1833  -41.6399 C.3       5 UNK        -0.1800 
     49 N           1.6928  -13.3716  -42.0206 N.am      5 UNK        -0.5000 
     50 C           2.8840  -13.7157  -42.5338 C.2       4 UNK         0.5000 
     51 O           3.0552  -14.6709  -43.2942 O.2       4 UNK        -0.5000 
     52 CA          4.0628  -12.8169  -42.1305 C.3       4 UNK         0.1400 
     53 CB          5.3609  -13.1328  -42.8974 C.3       4 UNK        -0.1800 
     54 N           3.6947  -11.4168  -42.3371 N.am      4 UNK        -0.5000 
     55 C           4.0747  -10.3942  -41.5598 C.2       3 UNK         0.5000 
     56 O           4.7576  -10.5370  -40.5445 O.2       3 UNK        -0.5000 
     57 CA          3.6507   -8.9691  -41.9775 C.3       3 UNK         0.1400 
     58 CB          4.8803   -8.1449  -42.3931 C.3       3 UNK        -0.1800 
     59 N           2.6853   -8.9405  -43.0773 N.am      3 UNK        -0.5000 
     60 C           1.3630   -9.1141  -42.9508 C.2       2 UNK         0.5000 
     61 O           0.7962   -9.2880  -41.8718 O.2       2 UNK        -0.5000 
     62 CA          0.5412   -9.1259  -44.2579 C.3       2 UNK         0.1400 
     63 CB         -0.0040   -7.7235  -44.5659 C.3       2 UNK        -0.1800 
     64 N           1.2840   -9.6175  -45.4253 N.am      2 UNK        -0.5000 
     65 C           1.8147  -10.8423  -45.5358 C.2       1 UNK         0.5000 
     66 O           1.7408  -11.6743  -44.6351 O.2       1 UNK        -0.5000 
     67 C          -2.8246  -21.9421  -48.2439 C.2       11 UNK         0.5000 
     68 O          -3.2724  -22.7695  -49.0345 O.2       11 UNK        -0.5000 
     69 N          -3.5774  -21.2934  -47.3434 N.am      12 UNK        -0.5000 
     70 CA         -5.0090  -21.5233  -47.1382 C.3       12 UNK         0.1400 
     71 CB         -5.5858  -20.4258  -46.2322 C.3       12 UNK        -0.1800 
     72 C          -5.3228  -22.9247  -46.5817 C.2       12 UNK         0.5000 
     73 O          -6.2985  -23.5415  -47.0095 O.2       12 UNK        -0.5000 
     74 N          -4.4896  -23.4120  -45.6533 N.am      13 UNK        -0.5000 
     75 CA         -4.5897  -24.7516  -45.0740 C.3       13 UNK         0.1400 
     76 CB         -3.6768  -24.8460  -43.8420 C.3       13 UNK        -0.1800 
     77 C          -4.2543  -25.8603  -46.0887 C.2       13 UNK         0.5000 
     78 O          -4.9577  -26.8693  -46.1439 O.2       13 UNK        -0.5000 
     79 N          -3.2014  -25.6438  -46.8860 N.am      14 UNK        -0.5000 
     80 CA         -2.6918  -26.5759  -47.8915 C.3       14 UNK         0.1400 
     81 CB         -1.1531  -26.5492  -47.8518 C.3       14 UNK        -0.1800 
     82 C          -3.2262  -26.2718  -49.3052 C.2       14 UNK         0.5000 
     83 O          -2.5406  -26.5762  -50.2818 O.2       14 UNK        -0.5000 
     84 N          -4.4334  -25.6965  -49.4113 N.am      15 UNK        -0.5000 
     85 CA         -5.0367  -25.1923  -50.6539 C.3       15 UNK         0.1400 
     86 CB         -6.3563  -24.4809  -50.3226 C.3       15 UNK        -0.1800 
     87 C          -5.2598  -26.2373  -51.7689 C.2       15 UNK         0.5000 
     88 O          -5.4606  -25.8554  -52.9232 O.2       15 UNK        -0.5000 
     89 N          -5.2298  -27.5291  -51.4175 N.am      16 UNK        -0.5000 
     90 CA         -5.2705  -28.6446  -52.3628 C.3       16 UNK         0.1400 
     91 CB         -5.7202  -29.9113  -51.6189 C.3       16 UNK        -0.1800 
     92 C          -3.9157  -28.8839  -53.0605 C.2       16 UNK         0.5000 
     93 O          -3.9015  -29.3615  -54.1955 O.2       16 UNK        -0.5000 
     94 N          -2.8098  -28.5612  -52.3755 N.am      17 UNK        -0.5000 
     95 CA         -1.4426  -28.6926  -52.8793 C.3       17 UNK         0.1400 
     96 CB         -0.5205  -29.1553  -51.7393 C.3       17 UNK        -0.1800 
     97 C          -0.9653  -27.3569  -53.4668 C.2       17 UNK         0.5000 
     98 O          -0.5081  -27.3144  -54.6098 O.2       17 UNK        -0.5000 
     99 N          -1.1340  -26.2779  -52.6929 N.am      18 UNK        -0.5000 
    100 CA        -0.9633  -24.8934  -53.1185 C.3       18 UNK         0.1400 
    101 CB        -0.5904  -24.0408  -51.8910 C.3       18 UNK        -0.1800 
    102 C         -2.2778  -24.4410  -53.7735 C.2       18 UNK         0.5000 
    103 O         -3.0670  -23.7519  -53.1313 O.2       18 UNK        -0.5000 
    104 N         -2.5091  -24.9259  -55.0020 N.am      19 UNK        -0.5000 
    105 CA        -3.7598  -24.9097  -55.7678 C.3       19 UNK         0.1400 
    106 CB        -3.4402  -25.2392  -57.2356 C.3       19 UNK        -0.1800 
    107 C         -4.5928  -23.6154  -55.6567 C.2       19 UNK         0.5000 
    108 O         -4.2577  -22.6117  -56.2885 O.2       19 UNK        -0.5000 
    109 N         -5.6581  -23.6872  -54.8465 N.am      20 UNK        -0.5000 
    110 CA        -6.6377  -22.6366  -54.5463 C.3       20 UNK         0.1400 
    111 CB        -7.3741  -22.1739  -55.8214 C.3       20 UNK        -0.1800 
    112 C         -6.0760  -21.4599  -53.7189 C.2       20 UNK         0.5000 
    113 O         -6.6757  -20.3818  -53.7112 O.2       20 UNK        -0.5000 
    114 N         -4.9628  -21.6909  -53.0078 N.am      21 UNK        -0.5000 
    115 CA        -4.2720  -20.7664  -52.1086 C.3       21 UNK         0.1400 
    116 CB        -5.1178  -20.5428  -50.8362 C.3       21 UNK        -0.1800 
    117 C         -3.8638  -19.4691  -52.8348 C.2       21 UNK         0.5000 
    118 O         -3.0790  -19.5297  -53.7828 O.2       21 UNK        -0.5000 
    119 N         -4.4086  -18.3322  -52.3903 N.am      22 UNK        -0.5000 
    120 CA        -4.2195  -17.0081  -52.9995 C.3       22 UNK         0.1400 
    121 C         -5.2348  -16.6879  -54.1371 C.2       22 UNK         0.5000 
    122 N         -6.1576  -17.5755  -54.4918 N.am      22 UNK        -0.7600 
    123 O         -5.1786  -15.6102  -54.7230 O.2       22 UNK        -0.5000 
    124 C124       -4.1865  -15.8807  -51.9315 C.3       23 UNK        -0.0398 
    125 S125       -2.9856  -16.1912  -50.5903 S.3       23 UNK        -0.2404 
    126 C126       -1.4387  -15.7031  -51.4127 C.3       23 UNK        -0.0205 
    127 H127        0.2120  -10.8975  -50.0789 H         1 UNK         0.0600 
    128 H128        0.9729   -9.4171  -50.6689 H         1 UNK         0.0600 
    129 H129       -0.4430   -9.3240  -49.6159 H         1 UNK         0.0600 
    130 H130        1.3261  -11.8463  -48.4003 H         1 UNK         0.3000 
    131 H131        3.3790  -10.4546  -46.9058 H         1 UNK         0.0600 
    132 H132        4.0082  -12.6125  -47.5891 H         1 UNK         0.0800 
    133 H133        3.7575  -12.7548  -45.8856 H         1 UNK         0.0800 
    134 H134        3.6747  -15.0016  -48.5731 H         1 UNK         0.0800 
    135 H135        2.7767  -13.7483  -49.3955 H         1 UNK         0.0800 
    136 H136        0.3722  -14.1555  -50.0739 H         1 UNK         0.1150 
    137 H137       -0.5465  -18.2149  -51.0367 H         1 UNK         0.1150 
    138 H138        2.9128  -17.3014  -48.6615 H         1 UNK         0.1150 
    139 H139        2.5249  -19.5686  -50.2616 H         1 UNK         0.0800 
    140 H140        1.8624  -19.6435  -48.6530 H         1 UNK         0.0800 
    141 H141       -1.8579  -20.0784  -49.7296 H         1 UNK         0.0800 
    142 H142       -0.8071  -19.5102  -48.4762 H         1 UNK         0.0800 
    143 H143       -0.8423  -22.5015  -48.7262 H         1 UNK         0.0600 
    144 H144       -0.3639  -20.6461  -46.6255 H         1 UNK         0.3000 
    145 H145       -0.7002  -22.9756  -43.9143 H         1 UNK         0.0600 
    146 H146        1.6912  -21.4574  -45.0802 H         1 UNK         0.0600 
    147 H147        1.5431  -22.0578  -43.4308 H         1 UNK         0.0600 
    148 H148        1.6253  -23.1868  -44.7739 H         1 UNK         0.0600 
    149 H149       -0.1562  -20.1840  -43.9322 H         1 UNK         0.3000 
    150 H150       -3.5908  -19.0899  -43.8668 H         1 UNK         0.0600 
    151 H151       -3.0506  -19.6150  -41.5181 H         1 UNK         0.0600 
    152 H152       -2.6942  -17.9241  -41.8416 H         1 UNK         0.0600 
    153 H153       -1.3860  -19.1027  -41.7447 H         1 UNK         0.0600 
    154 H154       -1.1964  -17.5823  -43.8084 H         1 UNK         0.3000 
    155 H155       -0.6696  -17.3452  -47.3455 H         1 UNK         0.0600 
    156 H156       -1.5053  -15.2937  -45.2291 H         1 UNK         0.0600 
    157 H157       -0.7343  -14.9528  -46.7784 H         1 UNK         0.0600 
    158 H158       -2.3598  -15.6091  -46.7351 H         1 UNK         0.0600 
    159 H159        0.7578  -16.3085  -45.0945 H         1 UNK         0.3000 
    160 H160        2.9886  -19.0994  -44.7035 H         1 UNK         0.0600 
    161 H161        3.9022  -17.6210  -46.4861 H         1 UNK         0.0600 
    162 H162        4.5873  -17.2207  -44.9188 H         1 UNK         0.0600 
    163 H163        3.3377  -16.1977  -45.6181 H         1 UNK         0.0600 
    164 H164        2.6082  -16.6051  -43.2909 H         1 UNK         0.3000 
    165 H165        0.3829  -17.8931  -40.8181 H         1 UNK         0.0600 
    166 H166        2.1814  -17.3072  -39.2185 H         1 UNK         0.0600 
    167 H167        2.5623  -18.8235  -40.0185 H         1 UNK         0.0600 
    168 H168        3.3832  -17.3465  -40.5098 H         1 UNK         0.0600 
    169 H169        1.8356  -15.4617  -40.9335 H         1 UNK         0.3000 
    170 H170        0.2574  -13.7610  -43.4609 H         1 UNK         0.0600 
    171 H171       -1.7012  -13.5534  -41.9175 H         1 UNK         0.0600 
    172 H172       -0.6114  -13.2940  -40.5597 H         1 UNK         0.0600 
    173 H173       -0.6897  -12.1184  -41.8737 H         1 UNK         0.0600 
    174 H174        1.6618  -12.5669  -41.4117 H         1 UNK         0.3000 
    175 H175        4.2382  -13.0028  -41.0689 H         1 UNK         0.0600 
    176 H176        5.2427  -12.9730  -43.9692 H         1 UNK         0.0600 
    177 H177        6.1838  -12.5056  -42.5544 H         1 UNK         0.0600 
    178 H178        5.6616  -14.1707  -42.7495 H         1 UNK         0.0600 
    179 H179        3.0746  -11.2457  -43.1224 H         1 UNK         0.3000 
    180 H180        3.2038   -8.4934  -41.1019 H         1 UNK         0.0600 
    181 H181        5.3781   -8.5756  -43.2629 H         1 UNK         0.0600 
    182 H182        5.6127   -8.0974  -41.5861 H         1 UNK         0.0600 
    183 H183        4.6036   -7.1191  -42.6374 H         1 UNK         0.0600 
    184 H184        3.0603   -8.8030  -44.0044 H         1 UNK         0.3000 
    185 H185       -0.3068   -9.7959  -44.1013 H         1 UNK         0.0600 
    186 H186       -0.6604   -7.7380  -45.4363 H         1 UNK         0.0600 
    187 H187       -0.5851   -7.3366  -43.7278 H         1 UNK         0.0600 
    188 H188        0.8007   -7.0143  -44.7639 H         1 UNK         0.0600 
    189 H189        1.3764   -8.9906  -46.2187 H         1 UNK         0.3000 
    190 H190       -3.1449  -20.5685  -46.7780 H         1 UNK         0.3000 
    191 H191       -5.5041  -21.4425  -48.1055 H         1 UNK         0.0600 
    192 H192       -5.1527  -20.4557  -45.2331 H         1 UNK         0.0600 
    193 H193       -6.6650  -20.5391  -46.1236 H         1 UNK         0.0600 
    194 H194       -5.4021  -19.4346  -46.6475 H         1 UNK         0.0600 
    195 H195       -3.7547  -22.8097  -45.2934 H         1 UNK         0.3000 
    196 H196       -5.6196  -24.9016  -44.7434 H         1 UNK         0.0600 
    197 H197       -3.7514  -25.8285  -43.3746 H         1 UNK         0.0600 
    198 H198       -3.9521  -24.1058  -43.0905 H         1 UNK         0.0600 
    199 H199       -2.6304  -24.6838  -44.1018 H         1 UNK         0.0600 
    200 H200       -2.6609  -24.7917  -46.7596 H         1 UNK         0.3000 
    201 H201       -3.0090  -27.5910  -47.6454 H         1 UNK         0.0600 
    202 H202       -0.7801  -26.7281  -46.8433 H         1 UNK         0.0600 
    203 H203       -0.7613  -25.5882  -48.1881 H         1 UNK         0.0600 
    204 H204       -0.7277  -27.3204  -48.4950 H         1 UNK         0.0600 
    205 H205       -4.9221  -25.4707  -48.5568 H         1 UNK         0.3000 
    206 H206       -4.3508  -24.4446  -51.0518 H         1 UNK         0.0600 
    207 H207       -6.1872  -23.6380  -49.6544 H         1 UNK         0.0600 
    208 H208       -6.8275  -24.0836  -51.2226 H         1 UNK         0.0600 
    209 H209       -7.0681  -25.1544  -49.8440 H         1 UNK         0.0600 
    210 H210       -5.0856  -27.7551  -50.4447 H         1 UNK         0.3000 
    211 H211       -6.0097  -28.4247  -53.1362 H         1 UNK         0.0600 
    212 H212       -5.0240  -30.1807  -50.8236 H         1 UNK         0.0600 
    213 H213       -5.7858  -30.7611  -52.2997 H         1 UNK         0.0600 
    214 H214       -6.7056  -29.7773  -51.1723 H         1 UNK         0.0600 
    215 H215       -2.9102  -28.0882  -51.4841 H         1 UNK         0.3000 
    216 H216       -1.4029  -29.4453  -53.6696 H         1 UNK         0.0600 
    217 H217        0.5086  -29.2551  -52.0867 H         1 UNK         0.0600 
    218 H218       -0.8300  -30.1276  -51.3559 H         1 UNK         0.0600 
    219 H219       -0.5190  -28.4535  -50.9044 H         1 UNK         0.0600 
    220 H220       -1.5727  -26.4012  -51.7820 H         1 UNK         0.3000 
    221 H221       -0.1571  -24.8159  -53.8510 H         1 UNK         0.0600 
    222 H222       -1.3513  -24.0937  -51.1103 H         1 UNK         0.0600 
    223 H223        0.3542  -24.3673  -51.4562 H         1 UNK         0.0600 
    224 H224       -0.4778  -22.9919  -52.1673 H         1 UNK         0.0600 
    225 H225       -1.7806  -25.5072  -55.3947 H         1 UNK         0.3000 
    226 H226       -4.3654  -25.7320  -55.3827 H         1 UNK         0.0600 
    227 H227       -2.9836  -26.2248  -57.3293 H         1 UNK         0.0600 
    228 H228       -4.3467  -25.2435  -57.8424 H         1 UNK         0.0600 
    229 H229       -2.7564  -24.5096  -57.6712 H         1 UNK         0.0600 
    230 H230       -5.7598  -24.5367  -54.2948 H         1 UNK         0.3000 
    231 H231       -7.3795  -23.1115  -53.9029 H         1 UNK         0.0600 
    232 H232       -8.2208  -21.5331  -55.5730 H         1 UNK         0.0600 
    233 H233       -7.7661  -23.0227  -56.3817 H         1 UNK         0.0600 
    234 H234       -6.7212  -21.6050  -56.4836 H         1 UNK         0.0600 
    235 H235       -4.4840  -22.5806  -53.1368 H         1 UNK         0.3000 
    236 H236       -3.3460  -21.2599  -51.8087 H         1 UNK         0.0600 
    237 H237       -4.5762  -19.9489  -50.0988 H         1 UNK         0.0600 
    238 H238       -5.3524  -21.4993  -50.3728 H         1 UNK         0.0600 
    239 H239       -6.0649  -20.0442  -51.0442 H         1 UNK         0.0600 
    240 H240       -5.0574  -18.3754  -51.6187 H         1 UNK         0.3000 
    241 H241       -3.2473  -17.0031  -53.4939 H         1 UNK         0.0600 
    242 H242       -6.2182  -18.4891  -54.0518 H         1 UNK         0.3800 
    243 H243       -6.7998  -17.3446  -55.2328 H         1 UNK         0.3800 
    244 H244       -3.9514  -14.9189  -52.3910 H         1 UNK         0.0800 
    245 H245       -5.1718  -15.7655  -51.4770 H         1 UNK         0.0800 
    246 H246       -1.3851  -16.1506  -52.4053 H         1 UNK         0.0800 
    247 H247       -1.4356  -14.6219  -51.5590 H         1 UNK         0.0800 
@<TRIPOS>BOND
     1    1    2 1    
     2    1  127 1    
     3    1  128 1    
     4    1  129 1    
     5    2    3 2    
     6    2    4 am   BACKBONE|DICT|INTERRES
     7    4    5 1    
     8    4  130 1    
     9    5    6 1    
    10    5   65 1    
    11    5  131 1    
    12    6    7 1    
    13    6  132 1    
    14    6  133 1    
    15    7    8 1    
    16    8    9 1    
    17    8  134 1    
    18    8  135 1    
    19    9   10 ar   
    20    9   14 ar   
    21   10   11 ar   
    22   10  136 1    
    23   11   12 ar   
    24   11  126 1    
    25   12   13 ar   
    26   12  137 1    
    27   13   14 ar   
    28   13   15 1    
    29   14  138 1    
    30   15   16 1    
    31   15  139 1    
    32   15  140 1    
    33   16   17 1    
    34   17   18 1    
    35   17  141 1    
    36   17  142 1    
    37   18   19 1    
    38   18   67 1    
    39   18  143 1    
    40   19   20 am   BACKBONE|DICT|INTERRES
    41   19  144 1    
    42   20   21 2    
    43   20   22 1    
    44   22   23 1    
    45   22   24 1    
    46   22  145 1    
    47   23  146 1    
    48   23  147 1    
    49   23  148 1    
    50   24   25 am   BACKBONE|DICT|INTERRES
    51   24  149 1    
    52   25   26 2    
    53   25   27 1    
    54   27   28 1    
    55   27   29 1    
    56   27  150 1    
    57   28  151 1    
    58   28  152 1    
    59   28  153 1    
    60   29   30 am   BACKBONE|DICT|INTERRES
    61   29  154 1    
    62   30   31 2    
    63   30   32 1    
    64   32   33 1    
    65   32   34 1    
    66   32  155 1    
    67   33  156 1    
    68   33  157 1    
    69   33  158 1    
    70   34   35 am   BACKBONE|DICT|INTERRES
    71   34  159 1    
    72   35   36 2    
    73   35   37 1    
    74   37   38 1    
    75   37   39 1    
    76   37  160 1    
    77   38  161 1    
    78   38  162 1    
    79   38  163 1    
    80   39   40 am   BACKBONE|DICT|INTERRES
    81   39  164 1    
    82   40   41 2    
    83   40   42 1    
    84   42   43 1    
    85   42   44 1    
    86   42  165 1    
    87   43  166 1    
    88   43  167 1    
    89   43  168 1    
    90   44   45 am   BACKBONE|DICT|INTERRES
    91   44  169 1    
    92   45   46 2    
    93   45   47 1    
    94   47   48 1    
    95   47   49 1    
    96   47  170 1    
    97   48  171 1    
    98   48  172 1    
    99   48  173 1    
   100   49   50 am   BACKBONE|DICT|INTERRES
   101   49  174 1    
   102   50   51 2    
   103   50   52 1    
   104   52   53 1    
   105   52   54 1    
   106   52  175 1    
   107   53  176 1    
   108   53  177 1    
   109   53  178 1    
   110   54   55 am   BACKBONE|DICT|INTERRES
   111   54  179 1    
   112   55   56 2    
   113   55   57 1    
   114   57   58 1    
   115   57   59 1    
   116   57  180 1    
   117   58  181 1    
   118   58  182 1    
   119   58  183 1    
   120   59   60 am   BACKBONE|DICT|INTERRES
   121   59  184 1    
   122   60   61 2    
   123   60   62 1    
   124   62   63 1    
   125   62   64 1    
   126   62  185 1    
   127   63  186 1    
   128   63  187 1    
   129   63  188 1    
   130   64   65 am   BACKBONE|DICT|INTERRES
   131   64  189 1    
   132   65   66 2    
   133   67   68 2    
   134   67   69 am   BACKBONE|DICT|INTERRES
   135   69   70 1    
   136   69  190 1    
   137   70   71 1    
   138   70   72 1    
   139   70  191 1    
   140   71  192 1    
   141   71  193 1    
   142   71  194 1    
   143   72   73 2    
   144   72   74 am   BACKBONE|DICT|INTERRES
   145   74   75 1    
   146   74  195 1    
   147   75   76 1    
   148   75   77 1    
   149   75  196 1    
   150   76  197 1    
   151   76  198 1    
   152   76  199 1    
   153   77   78 2    
   154   77   79 am   BACKBONE|DICT|INTERRES
   155   79   80 1    
   156   79  200 1    
   157   80   81 1    
   158   80   82 1    
   159   80  201 1    
   160   81  202 1    
   161   81  203 1    
   162   81  204 1    
   163   82   83 2    
   164   82   84 am   BACKBONE|DICT|INTERRES
   165   84   85 1    
   166   84  205 1    
   167   85   86 1    
   168   85   87 1    
   169   85  206 1    
   170   86  207 1    
   171   86  208 1    
   172   86  209 1    
   173   87   88 2    
   174   87   89 am   BACKBONE|DICT|INTERRES
   175   89   90 1    
   176   89  210 1    
   177   90   91 1    
   178   90   92 1    
   179   90  211 1    
   180   91  212 1    
   181   91  213 1    
   182   91  214 1    
   183   92   93 2    
   184   92   94 am   BACKBONE|DICT|INTERRES
   185   94   95 1    
   186   94  215 1    
   187   95   96 1    
   188   95   97 1    
   189   95  216 1    
   190   96  217 1    
   191   96  218 1    
   192   96  219 1    
   193   97   98 2    
   194   97   99 am   BACKBONE|DICT|INTERRES
   195   99  100 1    
   196   99  220 1    
   197  100  101 1    
   198  100  102 1    
   199  100  221 1    
   200  101  222 1    
   201  101  223 1    
   202  101  224 1    
   203  102  103 2    
   204  102  104 am   BACKBONE|DICT|INTERRES
   205  104  105 1    
   206  104  225 1    
   207  105  106 1    
   208  105  107 1    
   209  105  226 1    
   210  106  227 1    
   211  106  228 1    
   212  106  229 1    
   213  107  108 2    
   214  107  109 am   BACKBONE|DICT|INTERRES
   215  109  110 1    
   216  109  230 1    
   217  110  111 1    
   218  110  112 1    
   219  110  231 1    
   220  111  232 1    
   221  111  233 1    
   222  111  234 1    
   223  112  113 2    
   224  112  114 am   BACKBONE|DICT|INTERRES
   225  114  115 1    
   226  114  235 1    
   227  115  116 1    
   228  115  117 1    
   229  115  236 1    
   230  116  237 1    
   231  116  238 1    
   232  116  239 1    
   233  117  118 2    
   234  117  119 am   BACKBONE|DICT|INTERRES
   235  119  120 1    
   236  119  240 1    
   237  120  121 1    
   238  120  124 1    
   239  120  241 1    
   240  121  122 am   BACKBONE|DICT|INTERRES
   241  121  123 2    
   242  122  242 1    
   243  122  243 1    
   244  124  125 1    
   245  124  244 1    
   246  124  245 1    
   247  125  126 1    
   248  126  246 1    
   249  126  247 1    
@<TRIPOS>SUBSTRUCTURE
     1 UNK         1 GROUP             0       ****    0 ROOT    
