@<TRIPOS>MOLECULE
3R540
247   249    1
SMALL
USER_CHARGES


@<TRIPOS>ATOM
      1 CA         -0.5935  -11.8356  -46.5238 C.3       0 UNK        -0.1800 
      2 C           0.8707  -11.8366  -46.9395 C.2       0 UNK         0.5000 
      3 O           1.6220  -10.9444  -46.5433 O.2       0 UNK        -0.5000 
      4 N           1.2804  -12.8300  -47.7388 N.am      1 UNK        -0.5000 
      5 CA          2.6695  -13.0470  -48.1580 C.3       1 UNK         0.1400 
      6 C6          2.7858  -14.1304  -49.2538 C.3       23 UNK        -0.0398 
      7 S7          2.0833  -13.5420  -50.8291 S.3       23 UNK        -0.2404 
      8 C8          2.7189  -14.7934  -51.9842 C.3       23 UNK        -0.0205 
      9 C9          1.8991  -16.0711  -51.9216 C.ar      23 UNK        -0.0193 
     10 C10         0.6868  -16.1488  -52.6091 C.ar      23 UNK        -0.1150 
     11 C11        -0.0754  -17.3186  -52.5800 C.ar      23 UNK        -0.0193 
     12 C12         0.3829  -18.4209  -51.8502 C.ar      23 UNK        -0.1150 
     13 C13         1.5944  -18.3530  -51.1511 C.ar      23 UNK        -0.0193 
     14 C14         2.3481  -17.1753  -51.1928 C.ar      23 UNK        -0.1150 
     15 C15         2.1126  -19.5514  -50.3676 C.3       23 UNK        -0.0205 
     16 S16         1.8180  -19.3758  -48.5781 S.3       23 UNK        -0.2404 
     17 C17         0.0717  -19.8796  -48.4462 C.3       23 UNK        -0.0398 
     18 CA         -0.0846  -21.2546  -47.7522 C.3       11 UNK         0.1400 
     19 N           0.2056  -21.2065  -46.3132 N.am      11 UNK        -0.5000 
     20 C           0.2583  -22.2823  -45.5127 C.2       10 UNK         0.5000 
     21 O           0.1428  -23.4396  -45.9148 O.2       10 UNK        -0.5000 
     22 CA          0.4003  -22.0299  -44.0010 C.3       10 UNK         0.1400 
     23 CB          1.8677  -21.7937  -43.6151 C.3       10 UNK        -0.1800 
     24 N          -0.4354  -20.9221  -43.5335 N.am      10 UNK        -0.5000 
     25 C          -1.7761  -20.9204  -43.5734 C.2       9 UNK         0.5000 
     26 O          -2.4439  -21.8767  -43.9607 O.2       9 UNK        -0.5000 
     27 CA         -2.5004  -19.6285  -43.1564 C.3       9 UNK         0.1400 
     28 CB         -2.6769  -19.5707  -41.6325 C.3       9 UNK        -0.1800 
     29 N          -1.8226  -18.4213  -43.6266 N.am      9 UNK        -0.5000 
     30 C          -1.6494  -18.0963  -44.9160 C.2       8 UNK         0.5000 
     31 O          -2.0972  -18.7591  -45.8534 O.2       8 UNK        -0.5000 
     32 CA         -0.7759  -16.8585  -45.2033 C.3       8 UNK         0.1400 
     33 CB         -1.5764  -15.5580  -45.0397 C.3       8 UNK        -0.1800 
     34 N           0.4143  -16.8122  -44.3517 N.am      8 UNK        -0.5000 
     35 C           1.3953  -17.7256  -44.3853 C.2       7 UNK         0.5000 
     36 O           1.4238  -18.6663  -45.1785 O.2       7 UNK        -0.5000 
     37 CA          2.4857  -17.6114  -43.3063 C.3       7 UNK         0.1400 
     38 CB          3.5566  -16.5838  -43.6963 C.3       7 UNK        -0.1800 
     39 N           1.9214  -17.2710  -41.9996 N.am      7 UNK        -0.5000 
     40 C           1.2128  -18.1256  -41.2475 C.2       6 UNK         0.5000 
     41 O           0.9981  -19.2935  -41.5665 O.2       6 UNK        -0.5000 
     42 CA          0.6143  -17.5822  -39.9366 C.3       6 UNK         0.1400 
     43 CB          1.6271  -17.7114  -38.7893 C.3       6 UNK        -0.1800 
     44 N           0.1790  -16.1900  -40.0394 N.am      6 UNK        -0.5000 
     45 C          -0.8035  -15.7474  -40.8378 C.2       5 UNK         0.5000 
     46 O          -1.4894  -16.4804  -41.5475 O.2       5 UNK        -0.5000 
     47 CA         -1.0138  -14.2224  -40.8924 C.3       5 UNK         0.1400 
     48 CB         -2.0548  -13.7821  -39.8530 C.3       5 UNK        -0.1800 
     49 N           0.2310  -13.4778  -40.6823 N.am      5 UNK        -0.5000 
     50 C           1.2764  -13.5126  -41.5186 C.2       4 UNK         0.5000 
     51 O           1.2811  -14.1411  -42.5797 O.2       4 UNK        -0.5000 
     52 CA          2.5532  -12.8013  -41.0413 C.3       4 UNK         0.1400 
     53 CB          3.5662  -13.8293  -40.5129 C.3       4 UNK        -0.1800 
     54 N           3.1807  -12.0244  -42.1041 N.am      4 UNK        -0.5000 
     55 C           2.6774  -10.9152  -42.6538 C.2       3 UNK         0.5000 
     56 O           1.6087  -10.4107  -42.3056 O.2       3 UNK        -0.5000 
     57 CA          3.5039  -10.2321  -43.7613 C.3       3 UNK         0.1400 
     58 CB          4.5080   -9.2301  -43.1604 C.3       3 UNK        -0.1800 
     59 N           4.1629  -11.1388  -44.7117 N.am      3 UNK        -0.5000 
     60 C           5.1651  -12.0117  -44.5200 C.2       2 UNK         0.5000 
     61 O           5.6821  -12.2257  -43.4225 O.2       2 UNK        -0.5000 
     62 CA          5.6904  -12.7557  -45.7698 C.3       2 UNK         0.1400 
     63 CB          6.2075  -14.1743  -45.4511 C.3       2 UNK        -0.1800 
     64 N           4.7385  -12.7618  -46.8894 N.am      2 UNK        -0.5000 
     65 C           3.5539  -13.3882  -46.9427 C.2       1 UNK         0.5000 
     66 O           3.1393  -14.1717  -46.0877 O.2       1 UNK        -0.5000 
     67 C          -1.4803  -21.8472  -48.0320 C.2       11 UNK         0.5000 
     68 O          -1.6007  -22.7258  -48.8862 O.2       11 UNK        -0.5000 
     69 N          -2.4974  -21.3910  -47.2864 N.am      12 UNK        -0.5000 
     70 CA         -3.8663  -21.9026  -47.3701 C.3       12 UNK         0.1400 
     71 CB         -4.8029  -21.0241  -46.5282 C.3       12 UNK        -0.1800 
     72 C          -3.9762  -23.3820  -46.9564 C.2       12 UNK         0.5000 
     73 O          -4.6513  -24.1502  -47.6398 O.2       12 UNK        -0.5000 
     74 N          -3.2896  -23.7665  -45.8721 N.am      13 UNK        -0.5000 
     75 CA         -3.2181  -25.1400  -45.3729 C.3       13 UNK         0.1400 
     76 CB         -2.5114  -25.1648  -44.0096 C.3       13 UNK        -0.1800 
     77 C          -2.5311  -26.0952  -46.3634 C.2       13 UNK         0.5000 
     78 O          -3.0595  -27.1770  -46.6213 O.2       13 UNK        -0.5000 
     79 N          -1.4002  -25.6630  -46.9406 N.am      14 UNK        -0.5000 
     80 CA         -0.6572  -26.3935  -47.9720 C.3       14 UNK         0.1400 
     81 CB          0.6629  -25.6648  -48.2646 C.3       14 UNK        -0.1800 
     82 C          -1.4642  -26.5917  -49.2693 C.2       14 UNK         0.5000 
     83 O          -1.3445  -27.6366  -49.9096 O.2       14 UNK        -0.5000 
     84 N          -2.2977  -25.6007  -49.6084 N.am      15 UNK        -0.5000 
     85 CA         -3.2305  -25.6309  -50.7332 C.3       15 UNK         0.1400 
     86 CB         -3.5362  -24.1840  -51.1437 C.3       15 UNK        -0.1800 
     87 C          -4.5360  -26.3973  -50.4365 C.2       15 UNK         0.5000 
     88 O          -5.3699  -26.5091  -51.3337 O.2       15 UNK        -0.5000 
     89 N          -4.7170  -26.8858  -49.1996 N.am      16 UNK        -0.5000 
     90 CA         -5.9061  -27.5780  -48.6890 C.3       16 UNK         0.1400 
     91 CB         -6.0732  -28.9544  -49.3662 C.3       16 UNK        -0.1800 
     92 C          -7.1766  -26.7026  -48.7603 C.2       16 UNK         0.5000 
     93 O          -8.2357  -27.1704  -49.1813 O.2       16 UNK        -0.5000 
     94 N          -7.0230  -25.4338  -48.3565 N.am      17 UNK        -0.5000 
     95 CA         -8.0162  -24.3549  -48.3210 C.3       17 UNK         0.1400 
     96 CB         -9.2531  -24.7422  -47.4835 C.3       17 UNK        -0.1800 
     97 C          -8.3896  -23.7797  -49.7036 C.2       17 UNK         0.5000 
     98 O          -9.2957  -22.9476  -49.7801 O.2       17 UNK        -0.5000 
     99 N          -7.6789  -24.1851  -50.7650 N.am      18 UNK        -0.5000 
    100 CA        -7.7694  -23.5816  -52.0948 C.3       18 UNK         0.1400 
    101 CB        -7.3075  -24.6055  -53.1454 C.3       18 UNK        -0.1800 
    102 C         -6.9363  -22.2858  -52.1793 C.2       18 UNK         0.5000 
    103 O         -6.2028  -21.9454  -51.2483 O.2       18 UNK        -0.5000 
    104 N         -7.0407  -21.5978  -53.3226 N.am      19 UNK        -0.5000 
    105 CA        -6.3494  -20.3386  -53.6215 C.3       19 UNK         0.1400 
    106 CB        -7.0934  -19.6408  -54.7733 C.3       19 UNK        -0.1800 
    107 C         -4.8501  -20.4927  -53.9614 C.2       19 UNK         0.5000 
    108 O         -4.2090  -19.4937  -54.2835 O.2       19 UNK        -0.5000 
    109 N         -4.3226  -21.7274  -53.9406 N.am      20 UNK        -0.5000 
    110 CA        -2.9356  -22.1067  -54.2590 C.3       20 UNK         0.1400 
    111 CB        -1.9497  -21.4636  -53.2594 C.3       20 UNK        -0.1800 
    112 C         -2.5430  -21.8166  -55.7260 C.2       20 UNK         0.5000 
    113 O         -1.3593  -21.6553  -56.0250 O.2       20 UNK        -0.5000 
    114 N         -3.5549  -21.7397  -56.6047 N.am      21 UNK        -0.5000 
    115 CA        -3.4996  -21.3387  -58.0155 C.3       21 UNK         0.1400 
    116 CB        -2.6340  -22.3137  -58.8415 C.3       21 UNK        -0.1800 
    117 C         -3.1069  -19.8592  -58.2373 C.2       21 UNK         0.5000 
    118 O         -2.7812  -19.4856  -59.3659 O.2       21 UNK        -0.5000 
    119 N         -3.1602  -19.0355  -57.1817 N.am      22 UNK        -0.5000 
    120 CA        -2.9250  -17.5865  -57.2405 C.3       22 UNK         0.1400 
    121 C         -4.1100  -16.8278  -57.9000 C.2       22 UNK         0.5000 
    122 N         -3.8392  -15.7357  -58.6020 N.am      22 UNK        -0.7600 
    123 O         -5.2742  -17.1943  -57.7518 O.2       22 UNK        -0.5000 
    124 C124       -2.6166  -16.9991  -55.8414 C.3       23 UNK        -0.0398 
    125 S125       -1.0946  -17.6923  -55.1124 S.3       23 UNK        -0.2404 
    126 C126       -1.3875  -17.3707  -53.3461 C.3       23 UNK        -0.0205 
    127 H127       -1.0620  -10.8909  -46.8001 H         1 UNK         0.0600 
    128 H128       -0.6742  -11.9551  -45.4431 H         1 UNK         0.0600 
    129 H129       -1.1506  -12.6436  -46.9988 H         1 UNK         0.0600 
    130 H130        0.6219  -13.5367  -48.0310 H         1 UNK         0.3000 
    131 H131        3.0299  -12.1038  -48.5754 H         1 UNK         0.0600 
    132 H132        3.8321  -14.3889  -49.4280 H         1 UNK         0.0800 
    133 H133        2.2844  -15.0517  -48.9511 H         1 UNK         0.0800 
    134 H134        3.7720  -14.9947  -51.7818 H         1 UNK         0.0800 
    135 H135        2.6787  -14.3883  -52.9964 H         1 UNK         0.0800 
    136 H136        0.3374  -15.2962  -53.1749 H         1 UNK         0.1150 
    137 H137       -0.2001  -19.3307  -51.8322 H         1 UNK         0.1150 
    138 H138        3.2855  -17.1210  -50.6570 H         1 UNK         0.1150 
    139 H139        1.6651  -20.4782  -50.7302 H         1 UNK         0.0800 
    140 H140        3.1861  -19.6509  -50.5351 H         1 UNK         0.0800 
    141 H141       -0.3642  -19.8973  -49.4461 H         1 UNK         0.0800 
    142 H142       -0.4695  -19.1060  -47.9013 H         1 UNK         0.0800 
    143 H143        0.6361  -21.9417  -48.2013 H         1 UNK         0.0600 
    144 H144        0.3681  -20.2890  -45.9107 H         1 UNK         0.3000 
    145 H145        0.0646  -22.9316  -43.4852 H         1 UNK         0.0600 
    146 H146        1.9800  -21.6916  -42.5357 H         1 UNK         0.0600 
    147 H147        2.4910  -22.6323  -43.9278 H         1 UNK         0.0600 
    148 H148        2.2719  -20.8960  -44.0809 H         1 UNK         0.0600 
    149 H149        0.0471  -20.1239  -43.1349 H         1 UNK         0.3000 
    150 H150       -3.4936  -19.6455  -43.6096 H         1 UNK         0.0600 
    151 H151       -3.2175  -20.4456  -41.2694 H         1 UNK         0.0600 
    152 H152       -3.2457  -18.6899  -41.3340 H         1 UNK         0.0600 
    153 H153       -1.7175  -19.5412  -41.1170 H         1 UNK         0.0600 
    154 H154       -1.4802  -17.7855  -42.9109 H         1 UNK         0.3000 
    155 H155       -0.4407  -16.9220  -46.2407 H         1 UNK         0.0600 
    156 H156       -2.4388  -15.5455  -45.7072 H         1 UNK         0.0600 
    157 H157       -0.9651  -14.6879  -45.2792 H         1 UNK         0.0600 
    158 H158       -1.9475  -15.4353  -44.0221 H         1 UNK         0.0600 
    159 H159        0.4758  -16.0575  -43.6804 H         1 UNK         0.3000 
    160 H160        2.9746  -18.5846  -43.2259 H         1 UNK         0.0600 
    161 H161        3.1475  -15.5760  -43.7635 H         1 UNK         0.0600 
    162 H162        3.9883  -16.8244  -44.6686 H         1 UNK         0.0600 
    163 H163        4.3714  -16.5669  -42.9726 H         1 UNK         0.0600 
    164 H164        2.0085  -16.3102  -41.7029 H         1 UNK         0.3000 
    165 H165       -0.2590  -18.1897  -39.6914 H         1 UNK         0.0600 
    166 H166        1.1895  -17.4026  -37.8398 H         1 UNK         0.0600 
    167 H167        1.9549  -18.7454  -38.6734 H         1 UNK         0.0600 
    168 H168        2.5154  -17.1031  -38.9643 H         1 UNK         0.0600 
    169 H169        0.6827  -15.5152  -39.4839 H         1 UNK         0.3000 
    170 H170       -1.3941  -13.9757  -41.8860 H         1 UNK         0.0600 
    171 H171       -2.9990  -14.3082  -40.0005 H         1 UNK         0.0600 
    172 H172       -1.7209  -13.9859  -38.8349 H         1 UNK         0.0600 
    173 H173       -2.2635  -12.7150  -39.9317 H         1 UNK         0.0600 
    174 H174        0.2972  -12.9400  -39.8299 H         1 UNK         0.3000 
    175 H175        2.2986  -12.1174  -40.2289 H         1 UNK         0.0600 
    176 H176        3.8845  -14.5193  -41.2955 H         1 UNK         0.0600 
    177 H177        4.4569  -13.3378  -40.1207 H         1 UNK         0.0600 
    178 H178        3.1403  -14.4224  -39.7028 H         1 UNK         0.0600 
    179 H179        4.0752  -12.3535  -42.4554 H         1 UNK         0.3000 
    180 H180        2.7944   -9.6573  -44.3586 H         1 UNK         0.0600 
    181 H181        5.2496   -9.7226  -42.5310 H         1 UNK         0.0600 
    182 H182        3.9965   -8.4920  -42.5413 H         1 UNK         0.0600 
    183 H183        5.0383   -8.6862  -43.9421 H         1 UNK         0.0600 
    184 H184        3.7627  -11.1047  -45.6405 H         1 UNK         0.3000 
    185 H185        6.5461  -12.1743  -46.1156 H         1 UNK         0.0600 
    186 H186        7.0521  -14.1355  -44.7623 H         1 UNK         0.0600 
    187 H187        5.4404  -14.7910  -44.9847 H         1 UNK         0.0600 
    188 H188        6.5482  -14.6838  -46.3523 H         1 UNK         0.0600 
    189 H189        4.9838  -12.1458  -47.6528 H         1 UNK         0.3000 
    190 H190       -2.3243  -20.6455  -46.6196 H         1 UNK         0.3000 
    191 H191       -4.1840  -21.8290  -48.4126 H         1 UNK         0.0600 
    192 H192       -4.5397  -21.0490  -45.4709 H         1 UNK         0.0600 
    193 H193       -5.8365  -21.3607  -46.6174 H         1 UNK         0.0600 
    194 H194       -4.7687  -19.9851  -46.8562 H         1 UNK         0.0600 
    195 H195       -2.8082  -23.0587  -45.3214 H         1 UNK         0.3000 
    196 H196       -4.2414  -25.4927  -45.2286 H         1 UNK         0.0600 
    197 H197       -2.4650  -26.1791  -43.6115 H         1 UNK         0.0600 
    198 H198       -3.0422  -24.5530  -43.2800 H         1 UNK         0.0600 
    199 H199       -1.4896  -24.7914  -44.0786 H         1 UNK         0.0600 
    200 H200       -1.0078  -24.7712  -46.6479 H         1 UNK         0.3000 
    201 H201       -0.4211  -27.3829  -47.5751 H         1 UNK         0.0600 
    202 H202        1.2821  -25.5978  -47.3699 H         1 UNK         0.0600 
    203 H203        0.4897  -24.6510  -48.6277 H         1 UNK         0.0600 
    204 H204        1.2426  -26.1925  -49.0228 H         1 UNK         0.0600 
    205 H205       -2.2920  -24.7518  -49.0537 H         1 UNK         0.3000 
    206 H206       -2.7480  -26.1271  -51.5776 H         1 UNK         0.0600 
    207 H207       -2.6168  -23.6476  -51.3723 H         1 UNK         0.0600 
    208 H208       -4.1641  -24.1479  -52.0331 H         1 UNK         0.0600 
    209 H209       -4.0532  -23.6399  -50.3523 H         1 UNK         0.0600 
    210 H210       -3.9840  -26.7323  -48.5177 H         1 UNK         0.3000 
    211 H211       -5.7210  -27.7560  -47.6288 H         1 UNK         0.0600 
    212 H212       -6.3121  -28.8610  -50.4259 H         1 UNK         0.0600 
    213 H213       -6.8780  -29.5232  -48.8993 H         1 UNK         0.0600 
    214 H214       -5.1636  -29.5485  -49.2784 H         1 UNK         0.0600 
    215 H215       -6.0874  -25.1372  -48.0784 H         1 UNK         0.3000 
    216 H216       -7.5216  -23.5362  -47.7964 H         1 UNK         0.0600 
    217 H217       -9.8883  -23.8745  -47.3022 H         1 UNK         0.0600 
    218 H218       -8.9634  -25.1384  -46.5103 H         1 UNK         0.0600 
    219 H219       -9.8666  -25.4912  -47.9843 H         1 UNK         0.0600 
    220 H220       -6.9423  -24.8635  -50.6264 H         1 UNK         0.3000 
    221 H221       -8.8121  -23.3300  -52.2998 H         1 UNK         0.0600 
    222 H222       -6.2334  -24.7813  -53.0977 H         1 UNK         0.0600 
    223 H223       -7.8085  -25.5645  -53.0105 H         1 UNK         0.0600 
    224 H224       -7.5353  -24.2649  -54.1558 H         1 UNK         0.0600 
    225 H225       -7.6551  -21.9460  -54.0448 H         1 UNK         0.3000 
    226 H226       -6.4092  -19.6954  -52.7412 H         1 UNK         0.0600 
    227 H227       -8.1399  -19.4690  -54.5208 H         1 UNK         0.0600 
    228 H228       -6.6543  -18.6672  -54.9965 H         1 UNK         0.0600 
    229 H229       -7.0606  -20.2310  -55.6898 H         1 UNK         0.0600 
    230 H230       -4.9350  -22.4835  -53.6738 H         1 UNK         0.3000 
    231 H231       -2.8793  -23.1886  -54.1329 H         1 UNK         0.0600 
    232 H232       -0.9776  -21.9558  -53.2995 H         1 UNK         0.0600 
    233 H233       -2.3099  -21.5300  -52.2333 H         1 UNK         0.0600 
    234 H234       -1.7866  -20.4101  -53.4836 H         1 UNK         0.0600 
    235 H235       -4.4840  -21.8948  -56.2407 H         1 UNK         0.3000 
    236 H236       -4.5226  -21.4256  -58.3842 H         1 UNK         0.0600 
    237 H237       -2.7424  -22.1235  -59.9098 H         1 UNK         0.0600 
    238 H238       -1.5746  -22.2202  -58.6024 H         1 UNK         0.0600 
    239 H239       -2.9286  -23.3485  -58.6671 H         1 UNK         0.0600 
    240 H240       -3.4483  -19.3963  -56.2800 H         1 UNK         0.3000 
    241 H241       -2.0451  -17.4243  -57.8666 H         1 UNK         0.0600 
    242 H242       -4.5990  -15.2250  -59.0250 H         1 UNK         0.3800 
    243 H243       -2.8934  -15.4113  -58.7348 H         1 UNK         0.3800 
    244 H244       -2.4840  -15.9174  -55.9018 H         1 UNK         0.0800 
    245 H245       -3.4560  -17.1647  -55.1646 H         1 UNK         0.0800 
    246 H246       -2.0499  -18.1347  -52.9375 H         1 UNK         0.0800 
    247 H247       -1.9084  -16.4192  -53.2275 H         1 UNK         0.0800 
@<TRIPOS>BOND
     1    1    2 1    
     2    1  127 1    
     3    1  128 1    
     4    1  129 1    
     5    2    3 2    
     6    2    4 am   BACKBONE|DICT|INTERRES
     7    4    5 1    
     8    4  130 1    
     9    5    6 1    
    10    5   65 1    
    11    5  131 1    
    12    6    7 1    
    13    6  132 1    
    14    6  133 1    
    15    7    8 1    
    16    8    9 1    
    17    8  134 1    
    18    8  135 1    
    19    9   10 ar   
    20    9   14 ar   
    21   10   11 ar   
    22   10  136 1    
    23   11   12 ar   
    24   11  126 1    
    25   12   13 ar   
    26   12  137 1    
    27   13   14 ar   
    28   13   15 1    
    29   14  138 1    
    30   15   16 1    
    31   15  139 1    
    32   15  140 1    
    33   16   17 1    
    34   17   18 1    
    35   17  141 1    
    36   17  142 1    
    37   18   19 1    
    38   18   67 1    
    39   18  143 1    
    40   19   20 am   BACKBONE|DICT|INTERRES
    41   19  144 1    
    42   20   21 2    
    43   20   22 1    
    44   22   23 1    
    45   22   24 1    
    46   22  145 1    
    47   23  146 1    
    48   23  147 1    
    49   23  148 1    
    50   24   25 am   BACKBONE|DICT|INTERRES
    51   24  149 1    
    52   25   26 2    
    53   25   27 1    
    54   27   28 1    
    55   27   29 1    
    56   27  150 1    
    57   28  151 1    
    58   28  152 1    
    59   28  153 1    
    60   29   30 am   BACKBONE|DICT|INTERRES
    61   29  154 1    
    62   30   31 2    
    63   30   32 1    
    64   32   33 1    
    65   32   34 1    
    66   32  155 1    
    67   33  156 1    
    68   33  157 1    
    69   33  158 1    
    70   34   35 am   BACKBONE|DICT|INTERRES
    71   34  159 1    
    72   35   36 2    
    73   35   37 1    
    74   37   38 1    
    75   37   39 1    
    76   37  160 1    
    77   38  161 1    
    78   38  162 1    
    79   38  163 1    
    80   39   40 am   BACKBONE|DICT|INTERRES
    81   39  164 1    
    82   40   41 2    
    83   40   42 1    
    84   42   43 1    
    85   42   44 1    
    86   42  165 1    
    87   43  166 1    
    88   43  167 1    
    89   43  168 1    
    90   44   45 am   BACKBONE|DICT|INTERRES
    91   44  169 1    
    92   45   46 2    
    93   45   47 1    
    94   47   48 1    
    95   47   49 1    
    96   47  170 1    
    97   48  171 1    
    98   48  172 1    
    99   48  173 1    
   100   49   50 am   BACKBONE|DICT|INTERRES
   101   49  174 1    
   102   50   51 2    
   103   50   52 1    
   104   52   53 1    
   105   52   54 1    
   106   52  175 1    
   107   53  176 1    
   108   53  177 1    
   109   53  178 1    
   110   54   55 am   BACKBONE|DICT|INTERRES
   111   54  179 1    
   112   55   56 2    
   113   55   57 1    
   114   57   58 1    
   115   57   59 1    
   116   57  180 1    
   117   58  181 1    
   118   58  182 1    
   119   58  183 1    
   120   59   60 am   BACKBONE|DICT|INTERRES
   121   59  184 1    
   122   60   61 2    
   123   60   62 1    
   124   62   63 1    
   125   62   64 1    
   126   62  185 1    
   127   63  186 1    
   128   63  187 1    
   129   63  188 1    
   130   64   65 am   BACKBONE|DICT|INTERRES
   131   64  189 1    
   132   65   66 2    
   133   67   68 2    
   134   67   69 am   BACKBONE|DICT|INTERRES
   135   69   70 1    
   136   69  190 1    
   137   70   71 1    
   138   70   72 1    
   139   70  191 1    
   140   71  192 1    
   141   71  193 1    
   142   71  194 1    
   143   72   73 2    
   144   72   74 am   BACKBONE|DICT|INTERRES
   145   74   75 1    
   146   74  195 1    
   147   75   76 1    
   148   75   77 1    
   149   75  196 1    
   150   76  197 1    
   151   76  198 1    
   152   76  199 1    
   153   77   78 2    
   154   77   79 am   BACKBONE|DICT|INTERRES
   155   79   80 1    
   156   79  200 1    
   157   80   81 1    
   158   80   82 1    
   159   80  201 1    
   160   81  202 1    
   161   81  203 1    
   162   81  204 1    
   163   82   83 2    
   164   82   84 am   BACKBONE|DICT|INTERRES
   165   84   85 1    
   166   84  205 1    
   167   85   86 1    
   168   85   87 1    
   169   85  206 1    
   170   86  207 1    
   171   86  208 1    
   172   86  209 1    
   173   87   88 2    
   174   87   89 am   BACKBONE|DICT|INTERRES
   175   89   90 1    
   176   89  210 1    
   177   90   91 1    
   178   90   92 1    
   179   90  211 1    
   180   91  212 1    
   181   91  213 1    
   182   91  214 1    
   183   92   93 2    
   184   92   94 am   BACKBONE|DICT|INTERRES
   185   94   95 1    
   186   94  215 1    
   187   95   96 1    
   188   95   97 1    
   189   95  216 1    
   190   96  217 1    
   191   96  218 1    
   192   96  219 1    
   193   97   98 2    
   194   97   99 am   BACKBONE|DICT|INTERRES
   195   99  100 1    
   196   99  220 1    
   197  100  101 1    
   198  100  102 1    
   199  100  221 1    
   200  101  222 1    
   201  101  223 1    
   202  101  224 1    
   203  102  103 2    
   204  102  104 am   BACKBONE|DICT|INTERRES
   205  104  105 1    
   206  104  225 1    
   207  105  106 1    
   208  105  107 1    
   209  105  226 1    
   210  106  227 1    
   211  106  228 1    
   212  106  229 1    
   213  107  108 2    
   214  107  109 am   BACKBONE|DICT|INTERRES
   215  109  110 1    
   216  109  230 1    
   217  110  111 1    
   218  110  112 1    
   219  110  231 1    
   220  111  232 1    
   221  111  233 1    
   222  111  234 1    
   223  112  113 2    
   224  112  114 am   BACKBONE|DICT|INTERRES
   225  114  115 1    
   226  114  235 1    
   227  115  116 1    
   228  115  117 1    
   229  115  236 1    
   230  116  237 1    
   231  116  238 1    
   232  116  239 1    
   233  117  118 2    
   234  117  119 am   BACKBONE|DICT|INTERRES
   235  119  120 1    
   236  119  240 1    
   237  120  121 1    
   238  120  124 1    
   239  120  241 1    
   240  121  122 am   BACKBONE|DICT|INTERRES
   241  121  123 2    
   242  122  242 1    
   243  122  243 1    
   244  124  125 1    
   245  124  244 1    
   246  124  245 1    
   247  125  126 1    
   248  126  246 1    
   249  126  247 1    
@<TRIPOS>SUBSTRUCTURE
     1 UNK         1 GROUP             0       ****    0 ROOT    
