@<TRIPOS>MOLECULE
3R540
247   249    1
SMALL
USER_CHARGES


@<TRIPOS>ATOM
      1 CA         -5.0322  -17.8270  -45.5146 C.3       0 UNK        -0.1800 
      2 C          -4.8744  -16.5013  -46.2454 C.2       0 UNK         0.5000 
      3 O          -5.8332  -15.7356  -46.3459 O.2       0 UNK        -0.5000 
      4 N          -3.6699  -16.2361  -46.7622 N.am      1 UNK        -0.5000 
      5 CA         -3.2875  -14.9793  -47.4083 C.3       1 UNK         0.1400 
      6 C6         -2.0626  -15.1845  -48.3389 C.3       23 UNK        -0.0398 
      7 S7         -0.5407  -15.7083  -47.4754 S.3       23 UNK        -0.2404 
      8 C8          0.6884  -15.5223  -48.8006 C.3       23 UNK        -0.0205 
      9 C9          0.7252  -16.7540  -49.6878 C.ar      23 UNK        -0.0193 
     10 C10         0.1019  -16.7568  -50.9391 C.ar      23 UNK        -0.1150 
     11 C11         0.1518  -17.8959  -51.7484 C.ar      23 UNK        -0.0193 
     12 C12         0.8110  -19.0399  -51.2871 C.ar      23 UNK        -0.1150 
     13 C13         1.4354  -19.0507  -50.0372 C.ar      23 UNK        -0.0193 
     14 C14         1.3985  -17.8963  -49.2492 C.ar      23 UNK        -0.1150 
     15 C15         2.1717  -20.3015  -49.5666 C.3       23 UNK        -0.0205 
     16 S16         1.8691  -20.7091  -47.8148 S.3       23 UNK        -0.2404 
     17 C17         0.0751  -21.0384  -47.8099 C.3       23 UNK        -0.0398 
     18 CA         -0.2562  -22.4214  -47.2079 C.3       11 UNK         0.1400 
     19 N           0.1875  -22.5436  -45.8153 N.am      11 UNK        -0.5000 
     20 C           0.1891  -23.6847  -45.1134 C.2       10 UNK         0.5000 
     21 O          -0.1503  -24.7723  -45.5752 O.2       10 UNK        -0.5000 
     22 CA          0.5703  -23.5811  -43.6292 C.3       10 UNK         0.1400 
     23 CB          2.0952  -23.5351  -43.4494 C.3       10 UNK        -0.1800 
     24 N          -0.0472  -22.4107  -43.0065 N.am      10 UNK        -0.5000 
     25 C          -1.3570  -22.3126  -42.7382 C.2       9 UNK         0.5000 
     26 O          -2.1647  -23.2181  -42.9485 O.2       9 UNK        -0.5000 
     27 CA         -1.8552  -20.9690  -42.1738 C.3       9 UNK         0.1400 
     28 CB         -1.7185  -20.9429  -40.6444 C.3       9 UNK        -0.1800 
     29 N          -1.1593  -19.8126  -42.7405 N.am      9 UNK        -0.5000 
     30 C          -1.2498  -19.4248  -44.0203 C.2       8 UNK         0.5000 
     31 O          -1.9328  -20.0007  -44.8647 O.2       8 UNK        -0.5000 
     32 CA         -0.4029  -18.2106  -44.4381 C.3       8 UNK         0.1400 
     33 CB         -1.1352  -16.9118  -44.0736 C.3       8 UNK        -0.1800 
     34 N           0.9400  -18.1818  -43.8537 N.am      8 UNK        -0.5000 
     35 C           1.8478  -19.1672  -43.9117 C.2       7 UNK         0.5000 
     36 O           1.6298  -20.2740  -44.4065 O.2       7 UNK        -0.5000 
     37 CA          3.2143  -18.8429  -43.2833 C.3       7 UNK         0.1400 
     38 CB          4.2771  -19.9392  -43.5086 C.3       7 UNK        -0.1800 
     39 N           3.6890  -17.5168  -43.6914 N.am      7 UNK        -0.5000 
     40 C           4.1316  -17.1272  -44.8983 C.2       6 UNK         0.5000 
     41 O           4.2582  -17.8879  -45.8576 O.2       6 UNK        -0.5000 
     42 CA          4.4875  -15.6319  -45.0846 C.3       6 UNK         0.1400 
     43 CB          3.6892  -15.0277  -46.2512 C.3       6 UNK        -0.1800 
     44 N           4.2587  -14.8095  -43.8932 N.am      6 UNK        -0.5000 
     45 C           5.0100  -14.8167  -42.7817 C.2       5 UNK         0.5000 
     46 O           6.0668  -15.4406  -42.6836 O.2       5 UNK        -0.5000 
     47 CA          4.4748  -14.0445  -41.5544 C.3       5 UNK         0.1400 
     48 CB          5.2315  -12.7183  -41.3847 C.3       5 UNK        -0.1800 
     49 N           3.0360  -13.7623  -41.5938 N.am      5 UNK        -0.5000 
     50 C           2.0492  -14.6655  -41.6909 C.2       4 UNK         0.5000 
     51 O           2.2327  -15.8840  -41.6785 O.2       4 UNK        -0.5000 
     52 CA          0.6216  -14.1236  -41.9083 C.3       4 UNK         0.1400 
     53 CB         -0.1681  -14.1513  -40.5917 C.3       4 UNK        -0.1800 
     54 N           0.5298  -12.7799  -42.4958 N.am      4 UNK        -0.5000 
     55 C           1.0895  -12.3724  -43.6450 C.2       3 UNK         0.5000 
     56 O           1.8434  -13.0700  -44.3253 O.2       3 UNK        -0.5000 
     57 CA          0.7177  -10.9455  -44.0926 C.3       3 UNK         0.1400 
     58 CB          1.7656  -10.3142  -45.0343 C.3       3 UNK        -0.1800 
     59 N          -0.6308  -10.9155  -44.6726 N.am      3 UNK        -0.5000 
     60 C          -1.0427  -11.5159  -45.7992 C.2       2 UNK         0.5000 
     61 O          -0.2979  -12.0833  -46.6012 O.2       2 UNK        -0.5000 
     62 CA         -2.5547  -11.4415  -46.0947 C.3       2 UNK         0.1400 
     63 CB         -2.8901  -10.1654  -46.8824 C.3       2 UNK        -0.1800 
     64 N          -3.0000  -12.6049  -46.8640 N.am      2 UNK        -0.5000 
     65 C          -3.0548  -13.8510  -46.3749 C.2       1 UNK         0.5000 
     66 O          -2.9026  -14.1168  -45.1788 O.2       1 UNK        -0.5000 
     67 C          -1.7581  -22.7398  -47.3628 C.2       11 UNK         0.5000 
     68 O          -2.1472  -23.3656  -48.3517 O.2       11 UNK        -0.5000 
     69 N          -2.5698  -22.3288  -46.3769 N.am      12 UNK        -0.5000 
     70 CA         -3.9964  -22.6306  -46.2885 C.3       12 UNK         0.1400 
     71 CB         -4.6521  -21.8084  -45.1710 C.3       12 UNK        -0.1800 
     72 C          -4.2612  -24.1313  -46.1022 C.2       12 UNK         0.5000 
     73 O          -5.0822  -24.6936  -46.8274 O.2       12 UNK        -0.5000 
     74 N          -3.5287  -24.7564  -45.1705 N.am      13 UNK        -0.5000 
     75 CA         -3.5708  -26.1969  -44.9185 C.3       13 UNK         0.1400 
     76 CB         -2.7455  -26.5191  -43.6635 C.3       13 UNK        -0.1800 
     77 C          -3.0871  -27.0306  -46.1206 C.2       13 UNK         0.5000 
     78 O          -3.6605  -28.0858  -46.3941 O.2       13 UNK        -0.5000 
     79 N          -2.0524  -26.5392  -46.8157 N.am      14 UNK        -0.5000 
     80 CA         -1.4741  -27.1640  -48.0006 C.3       14 UNK         0.1400 
     81 CB         -0.1159  -26.5197  -48.3219 C.3       14 UNK        -0.1800 
     82 C          -2.4055  -27.1130  -49.2231 C.2       14 UNK         0.5000 
     83 O          -2.6860  -28.1641  -49.8022 O.2       14 UNK        -0.5000 
     84 N          -2.8437  -25.9075  -49.6157 N.am      15 UNK        -0.5000 
     85 CA         -3.5482  -25.6887  -50.8813 C.3       15 UNK         0.1400 
     86 CB         -2.5516  -25.7694  -52.0603 C.3       15 UNK        -0.1800 
     87 C          -4.3833  -24.3954  -50.8940 C.2       15 UNK         0.5000 
     88 O          -4.4852  -23.7576  -51.9388 O.2       15 UNK        -0.5000 
     89 N          -4.9886  -24.0301  -49.7548 N.am      16 UNK        -0.5000 
     90 CA         -5.9538  -22.9289  -49.5942 C.3       16 UNK         0.1400 
     91 CB         -7.2302  -23.1904  -50.4220 C.3       16 UNK        -0.1800 
     92 C          -5.3913  -21.5014  -49.8046 C.2       16 UNK         0.5000 
     93 O          -6.1763  -20.5577  -49.9024 O.2       16 UNK        -0.5000 
     94 N          -4.0577  -21.3564  -49.8006 N.am      17 UNK        -0.5000 
     95 CA         -3.2991  -20.1022  -49.8541 C.3       17 UNK         0.1400 
     96 CB         -3.4004  -19.3527  -48.5055 C.3       17 UNK        -0.1800 
     97 C          -3.6265  -19.2269  -51.0860 C.2       17 UNK         0.5000 
     98 O          -3.4429  -19.6921  -52.2126 O.2       17 UNK        -0.5000 
     99 N          -4.0414  -17.9725  -50.8497 N.am      18 UNK        -0.5000 
    100 CA        -4.2362  -16.8923  -51.8208 C.3       18 UNK         0.1400 
    101 CB        -4.9370  -15.7135  -51.1274 C.3       18 UNK        -0.1800 
    102 C         -5.0023  -17.3041  -53.0919 C.2       18 UNK         0.5000 
    103 O         -6.1664  -17.6973  -53.0063 O.2       18 UNK        -0.5000 
    104 N         -4.3105  -17.2096  -54.2372 N.am      19 UNK        -0.5000 
    105 CA        -4.7620  -17.5146  -55.6024 C.3       19 UNK         0.1400 
    106 CB        -5.9283  -16.5910  -56.0107 C.3       19 UNK        -0.1800 
    107 C         -5.0841  -19.0004  -55.8810 C.2       19 UNK         0.5000 
    108 O         -5.4805  -19.3188  -57.0031 O.2       19 UNK        -0.5000 
    109 N         -4.8956  -19.8828  -54.8922 N.am      20 UNK        -0.5000 
    110 CA        -5.1527  -21.3171  -54.9911 C.3       20 UNK         0.1400 
    111 CB        -6.0693  -21.7433  -53.8364 C.3       20 UNK        -0.1800 
    112 C         -3.8228  -22.0826  -54.9858 C.2       20 UNK         0.5000 
    113 O         -3.5290  -22.7988  -55.9438 O.2       20 UNK        -0.5000 
    114 N         -2.9991  -21.8504  -53.9547 N.am      21 UNK        -0.5000 
    115 CA        -1.6463  -22.3976  -53.8209 C.3       21 UNK         0.1400 
    116 CB        -1.1658  -22.1896  -52.3753 C.3       21 UNK        -0.1800 
    117 C         -0.6597  -21.7586  -54.8177 C.2       21 UNK         0.5000 
    118 O          0.3409  -22.3794  -55.1768 O.2       21 UNK        -0.5000 
    119 N         -0.9863  -20.5377  -55.2545 N.am      22 UNK        -0.5000 
    120 CA        -0.2858  -19.7650  -56.2887 C.3       22 UNK         0.1400 
    121 C         -0.8570  -19.9995  -57.7201 C.2       22 UNK         0.5000 
    122 N         -1.8249  -20.8868  -57.9248 N.am      22 UNK        -0.7600 
    123 O         -0.4041  -19.3724  -58.6735 O.2       22 UNK        -0.5000 
    124 C124       -0.2513  -18.2566  -55.9229 C.3       23 UNK        -0.0398 
    125 S125        0.7616  -17.9289  -54.4400 S.3       23 UNK        -0.2404 
    126 C126       -0.4952  -17.8990  -53.1241 C.3       23 UNK        -0.0205 
    127 H127       -5.3503  -17.6549  -44.4865 H         1 UNK         0.0600 
    128 H128       -4.0966  -18.3853  -45.4903 H         1 UNK         0.0600 
    129 H129       -5.7836  -18.4429  -46.0086 H         1 UNK         0.0600 
    130 H130       -2.9088  -16.8797  -46.6060 H         1 UNK         0.3000 
    131 H131       -4.1248  -14.6624  -48.0331 H         1 UNK         0.0600 
    132 H132       -2.2946  -15.9364  -49.0939 H         1 UNK         0.0800 
    133 H133       -1.8538  -14.2672  -48.8916 H         1 UNK         0.0800 
    134 H134        0.4859  -14.6223  -49.3828 H         1 UNK         0.0800 
    135 H135        1.6702  -15.3744  -48.3514 H         1 UNK         0.0800 
    136 H136       -0.4101  -15.8703  -51.2854 H         1 UNK         0.1150 
    137 H137        0.8587  -19.9154  -51.9187 H         1 UNK         0.1150 
    138 H138        1.8877  -17.8864  -48.2847 H         1 UNK         0.1150 
    139 H139        1.8998  -21.1638  -50.1776 H         1 UNK         0.0800 
    140 H140        3.2418  -20.1463  -49.7085 H         1 UNK         0.0800 
    141 H141       -0.2963  -20.9759  -48.8333 H         1 UNK         0.0800 
    142 H142       -0.4191  -20.2408  -47.2528 H         1 UNK         0.0800 
    143 H143        0.2856  -23.1726  -47.7860 H         1 UNK         0.0600 
    144 H144        0.5310  -21.6977  -45.3704 H         1 UNK         0.3000 
    145 H145        0.1993  -24.4749  -43.1228 H         1 UNK         0.0600 
    146 H146        2.3676  -23.4504  -42.3974 H         1 UNK         0.0600 
    147 H147        2.5560  -24.4462  -43.8327 H         1 UNK         0.0600 
    148 H148        2.5442  -22.6971  -43.9821 H         1 UNK         0.0600 
    149 H149        0.5390  -21.5953  -42.8937 H         1 UNK         0.3000 
    150 H150       -2.9147  -20.8782  -42.4216 H         1 UNK         0.0600 
    151 H151       -2.2463  -21.7832  -40.1914 H         1 UNK         0.0600 
    152 H152       -2.1434  -20.0303  -40.2259 H         1 UNK         0.0600 
    153 H153       -0.6754  -21.0029  -40.3313 H         1 UNK         0.0600 
    154 H154       -0.5654  -19.2852  -42.1179 H         1 UNK         0.3000 
    155 H155       -0.2852  -18.2499  -45.5229 H         1 UNK         0.0600 
    156 H156       -2.1477  -16.9031  -44.4762 H         1 UNK         0.0600 
    157 H157       -0.6215  -16.0406  -44.4799 H         1 UNK         0.0600 
    158 H158       -1.2170  -16.7844  -42.9937 H         1 UNK         0.0600 
    159 H159        1.2166  -17.3193  -43.4062 H         1 UNK         0.3000 
    160 H160        3.0436  -18.7785  -42.2078 H         1 UNK         0.0600 
    161 H161        4.4231  -20.1576  -44.5668 H         1 UNK         0.0600 
    162 H162        3.9785  -20.8702  -43.0260 H         1 UNK         0.0600 
    163 H163        5.2397  -19.6496  -43.0874 H         1 UNK         0.0600 
    164 H164        3.5719  -16.7963  -42.9883 H         1 UNK         0.3000 
    165 H165        5.5486  -15.5822  -45.3367 H         1 UNK         0.0600 
    166 H166        2.6148  -15.0883  -46.0716 H         1 UNK         0.0600 
    167 H167        3.9432  -13.9788  -46.4051 H         1 UNK         0.0600 
    168 H168        3.8975  -15.5519  -47.1847 H         1 UNK         0.0600 
    169 H169        3.4145  -14.2438  -43.9056 H         1 UNK         0.3000 
    170 H170        4.6635  -14.6644  -40.6758 H         1 UNK         0.0600 
    171 H171        6.3073  -12.8865  -41.3189 H         1 UNK         0.0600 
    172 H172        5.0550  -12.0456  -42.2251 H         1 UNK         0.0600 
    173 H173        4.9289  -12.2042  -40.4722 H         1 UNK         0.0600 
    174 H174        2.7769  -12.7877  -41.6282 H         1 UNK         0.3000 
    175 H175        0.1344  -14.8020  -42.6075 H         1 UNK         0.0600 
    176 H176        0.2431  -13.4525  -39.8622 H         1 UNK         0.0600 
    177 H177       -1.2150  -13.8934  -40.7533 H         1 UNK         0.0600 
    178 H178       -0.1473  -15.1454  -40.1426 H         1 UNK         0.0600 
    179 H179       -0.0742  -12.1340  -42.0082 H         1 UNK         0.3000 
    180 H180        0.6827  -10.3249  -43.1958 H         1 UNK         0.0600 
    181 H181        1.9105  -10.8945  -45.9456 H         1 UNK         0.0600 
    182 H182        2.7354  -10.2476  -44.5399 H         1 UNK         0.0600 
    183 H183        1.4772   -9.3036  -45.3232 H         1 UNK         0.0600 
    184 H184       -1.3303  -10.4656  -44.0986 H         1 UNK         0.3000 
    185 H185       -3.1000  -11.4229  -45.1485 H         1 UNK         0.0600 
    186 H186       -2.3714  -10.1366  -47.8417 H         1 UNK         0.0600 
    187 H187       -3.9603  -10.0903  -47.0761 H         1 UNK         0.0600 
    188 H188       -2.5984   -9.2740  -46.3257 H         1 UNK         0.0600 
    189 H189       -3.1099  -12.4598  -47.8565 H         1 UNK         0.3000 
    190 H190       -2.1896  -21.7348  -45.6455 H         1 UNK         0.3000 
    191 H191       -4.4519  -22.3236  -47.2261 H         1 UNK         0.0600 
    192 H192       -4.5326  -20.7411  -45.3493 H         1 UNK         0.0600 
    193 H193       -4.2255  -22.0348  -44.1948 H         1 UNK         0.0600 
    194 H194       -5.7226  -22.0092  -45.1158 H         1 UNK         0.0600 
    195 H195       -2.8979  -24.2113  -44.5920 H         1 UNK         0.3000 
    196 H196       -4.6095  -26.4705  -44.7220 H         1 UNK         0.0600 
    197 H197       -2.7786  -27.5855  -43.4368 H         1 UNK         0.0600 
    198 H198       -3.1302  -25.9886  -42.7922 H         1 UNK         0.0600 
    199 H199       -1.6985  -26.2412  -43.7876 H         1 UNK         0.0600 
    200 H200       -1.5846  -25.7072  -46.4681 H         1 UNK         0.3000 
    201 H201       -1.2924  -28.2154  -47.7673 H         1 UNK         0.0600 
    202 H202        0.5855  -26.6484  -47.4974 H         1 UNK         0.0600 
    203 H203       -0.2102  -25.4516  -48.5168 H         1 UNK         0.0600 
    204 H204        0.3341  -26.9758  -49.2046 H         1 UNK         0.0600 
    205 H205       -2.5797  -25.0750  -49.0928 H         1 UNK         0.3000 
    206 H206       -4.2794  -26.4892  -51.0103 H         1 UNK         0.0600 
    207 H207       -2.0957  -26.7567  -52.1306 H         1 UNK         0.0600 
    208 H208       -3.0417  -25.5831  -53.0167 H         1 UNK         0.0600 
    209 H209       -1.7476  -25.0425  -51.9511 H         1 UNK         0.0600 
    210 H210       -4.8414  -24.5918  -48.9229 H         1 UNK         0.3000 
    211 H211       -6.2614  -22.9613  -48.5492 H         1 UNK         0.0600 
    212 H212       -7.0406  -23.1379  -51.4931 H         1 UNK         0.0600 
    213 H213       -7.6446  -24.1746  -50.2040 H         1 UNK         0.0600 
    214 H214       -8.0055  -22.4583  -50.1937 H         1 UNK         0.0600 
    215 H215       -3.5040  -22.1998  -49.7172 H         1 UNK         0.3000 
    216 H216       -2.2569  -20.3933  -49.9818 H         1 UNK         0.0600 
    217 H217       -3.0876  -19.9844  -47.6766 H         1 UNK         0.0600 
    218 H218       -4.4187  -19.0240  -48.2958 H         1 UNK         0.0600 
    219 H219       -2.7491  -18.4779  -48.4906 H         1 UNK         0.0600 
    220 H220       -4.2145  -17.7240  -49.8880 H         1 UNK         0.3000 
    221 H221       -3.2407  -16.5540  -52.1120 H         1 UNK         0.0600 
    222 H222       -5.8978  -16.0098  -50.7044 H         1 UNK         0.0600 
    223 H223       -4.3267  -15.3062  -50.3239 H         1 UNK         0.0600 
    224 H224       -5.1249  -14.9004  -51.8301 H         1 UNK         0.0600 
    225 H225       -3.3596  -16.8765  -54.1793 H         1 UNK         0.3000 
    226 H226       -3.9179  -17.2741  -56.2503 H         1 UNK         0.0600 
    227 H227       -5.6793  -15.5431  -55.8438 H         1 UNK         0.0600 
    228 H228       -6.1637  -16.7012  -57.0699 H         1 UNK         0.0600 
    229 H229       -6.8376  -16.8137  -55.4521 H         1 UNK         0.0600 
    230 H230       -4.5602  -19.5484  -53.9959 H         1 UNK         0.3000 
    231 H231       -5.6665  -21.5580  -55.9239 H         1 UNK         0.0600 
    232 H232       -6.2416  -22.8200  -53.8525 H         1 UNK         0.0600 
    233 H233       -7.0414  -21.2554  -53.9069 H         1 UNK         0.0600 
    234 H234       -5.6422  -21.4880  -52.8662 H         1 UNK         0.0600 
    235 H235       -3.2997  -21.2175  -53.2173 H         1 UNK         0.3000 
    236 H236       -1.6855  -23.4694  -54.0247 H         1 UNK         0.0600 
    237 H237       -1.8418  -22.6576  -51.6604 H         1 UNK         0.0600 
    238 H238       -0.1766  -22.6229  -52.2231 H         1 UNK         0.0600 
    239 H239       -1.1057  -21.1316  -52.1248 H         1 UNK         0.0600 
    240 H240       -1.8453  -20.1399  -54.9076 H         1 UNK         0.3000 
    241 H241        0.7482  -20.1112  -56.3389 H         1 UNK         0.0600 
    242 H242       -2.1734  -21.0230  -58.8607 H         1 UNK         0.3800 
    243 H243       -2.1947  -21.4486  -57.1710 H         1 UNK         0.3800 
    244 H244        0.1888  -17.6744  -56.7343 H         1 UNK         0.0800 
    245 H245       -1.2594  -17.8641  -55.7832 H         1 UNK         0.0800 
    246 H246       -1.1440  -18.7696  -53.2054 H         1 UNK         0.0800 
    247 H247       -1.1271  -17.0209  -53.2574 H         1 UNK         0.0800 
@<TRIPOS>BOND
     1    1    2 1    
     2    1  127 1    
     3    1  128 1    
     4    1  129 1    
     5    2    3 2    
     6    2    4 am   BACKBONE|DICT|INTERRES
     7    4    5 1    
     8    4  130 1    
     9    5    6 1    
    10    5   65 1    
    11    5  131 1    
    12    6    7 1    
    13    6  132 1    
    14    6  133 1    
    15    7    8 1    
    16    8    9 1    
    17    8  134 1    
    18    8  135 1    
    19    9   10 ar   
    20    9   14 ar   
    21   10   11 ar   
    22   10  136 1    
    23   11   12 ar   
    24   11  126 1    
    25   12   13 ar   
    26   12  137 1    
    27   13   14 ar   
    28   13   15 1    
    29   14  138 1    
    30   15   16 1    
    31   15  139 1    
    32   15  140 1    
    33   16   17 1    
    34   17   18 1    
    35   17  141 1    
    36   17  142 1    
    37   18   19 1    
    38   18   67 1    
    39   18  143 1    
    40   19   20 am   BACKBONE|DICT|INTERRES
    41   19  144 1    
    42   20   21 2    
    43   20   22 1    
    44   22   23 1    
    45   22   24 1    
    46   22  145 1    
    47   23  146 1    
    48   23  147 1    
    49   23  148 1    
    50   24   25 am   BACKBONE|DICT|INTERRES
    51   24  149 1    
    52   25   26 2    
    53   25   27 1    
    54   27   28 1    
    55   27   29 1    
    56   27  150 1    
    57   28  151 1    
    58   28  152 1    
    59   28  153 1    
    60   29   30 am   BACKBONE|DICT|INTERRES
    61   29  154 1    
    62   30   31 2    
    63   30   32 1    
    64   32   33 1    
    65   32   34 1    
    66   32  155 1    
    67   33  156 1    
    68   33  157 1    
    69   33  158 1    
    70   34   35 am   BACKBONE|DICT|INTERRES
    71   34  159 1    
    72   35   36 2    
    73   35   37 1    
    74   37   38 1    
    75   37   39 1    
    76   37  160 1    
    77   38  161 1    
    78   38  162 1    
    79   38  163 1    
    80   39   40 am   BACKBONE|DICT|INTERRES
    81   39  164 1    
    82   40   41 2    
    83   40   42 1    
    84   42   43 1    
    85   42   44 1    
    86   42  165 1    
    87   43  166 1    
    88   43  167 1    
    89   43  168 1    
    90   44   45 am   BACKBONE|DICT|INTERRES
    91   44  169 1    
    92   45   46 2    
    93   45   47 1    
    94   47   48 1    
    95   47   49 1    
    96   47  170 1    
    97   48  171 1    
    98   48  172 1    
    99   48  173 1    
   100   49   50 am   BACKBONE|DICT|INTERRES
   101   49  174 1    
   102   50   51 2    
   103   50   52 1    
   104   52   53 1    
   105   52   54 1    
   106   52  175 1    
   107   53  176 1    
   108   53  177 1    
   109   53  178 1    
   110   54   55 am   BACKBONE|DICT|INTERRES
   111   54  179 1    
   112   55   56 2    
   113   55   57 1    
   114   57   58 1    
   115   57   59 1    
   116   57  180 1    
   117   58  181 1    
   118   58  182 1    
   119   58  183 1    
   120   59   60 am   BACKBONE|DICT|INTERRES
   121   59  184 1    
   122   60   61 2    
   123   60   62 1    
   124   62   63 1    
   125   62   64 1    
   126   62  185 1    
   127   63  186 1    
   128   63  187 1    
   129   63  188 1    
   130   64   65 am   BACKBONE|DICT|INTERRES
   131   64  189 1    
   132   65   66 2    
   133   67   68 2    
   134   67   69 am   BACKBONE|DICT|INTERRES
   135   69   70 1    
   136   69  190 1    
   137   70   71 1    
   138   70   72 1    
   139   70  191 1    
   140   71  192 1    
   141   71  193 1    
   142   71  194 1    
   143   72   73 2    
   144   72   74 am   BACKBONE|DICT|INTERRES
   145   74   75 1    
   146   74  195 1    
   147   75   76 1    
   148   75   77 1    
   149   75  196 1    
   150   76  197 1    
   151   76  198 1    
   152   76  199 1    
   153   77   78 2    
   154   77   79 am   BACKBONE|DICT|INTERRES
   155   79   80 1    
   156   79  200 1    
   157   80   81 1    
   158   80   82 1    
   159   80  201 1    
   160   81  202 1    
   161   81  203 1    
   162   81  204 1    
   163   82   83 2    
   164   82   84 am   BACKBONE|DICT|INTERRES
   165   84   85 1    
   166   84  205 1    
   167   85   86 1    
   168   85   87 1    
   169   85  206 1    
   170   86  207 1    
   171   86  208 1    
   172   86  209 1    
   173   87   88 2    
   174   87   89 am   BACKBONE|DICT|INTERRES
   175   89   90 1    
   176   89  210 1    
   177   90   91 1    
   178   90   92 1    
   179   90  211 1    
   180   91  212 1    
   181   91  213 1    
   182   91  214 1    
   183   92   93 2    
   184   92   94 am   BACKBONE|DICT|INTERRES
   185   94   95 1    
   186   94  215 1    
   187   95   96 1    
   188   95   97 1    
   189   95  216 1    
   190   96  217 1    
   191   96  218 1    
   192   96  219 1    
   193   97   98 2    
   194   97   99 am   BACKBONE|DICT|INTERRES
   195   99  100 1    
   196   99  220 1    
   197  100  101 1    
   198  100  102 1    
   199  100  221 1    
   200  101  222 1    
   201  101  223 1    
   202  101  224 1    
   203  102  103 2    
   204  102  104 am   BACKBONE|DICT|INTERRES
   205  104  105 1    
   206  104  225 1    
   207  105  106 1    
   208  105  107 1    
   209  105  226 1    
   210  106  227 1    
   211  106  228 1    
   212  106  229 1    
   213  107  108 2    
   214  107  109 am   BACKBONE|DICT|INTERRES
   215  109  110 1    
   216  109  230 1    
   217  110  111 1    
   218  110  112 1    
   219  110  231 1    
   220  111  232 1    
   221  111  233 1    
   222  111  234 1    
   223  112  113 2    
   224  112  114 am   BACKBONE|DICT|INTERRES
   225  114  115 1    
   226  114  235 1    
   227  115  116 1    
   228  115  117 1    
   229  115  236 1    
   230  116  237 1    
   231  116  238 1    
   232  116  239 1    
   233  117  118 2    
   234  117  119 am   BACKBONE|DICT|INTERRES
   235  119  120 1    
   236  119  240 1    
   237  120  121 1    
   238  120  124 1    
   239  120  241 1    
   240  121  122 am   BACKBONE|DICT|INTERRES
   241  121  123 2    
   242  122  242 1    
   243  122  243 1    
   244  124  125 1    
   245  124  244 1    
   246  124  245 1    
   247  125  126 1    
   248  126  246 1    
   249  126  247 1    
@<TRIPOS>SUBSTRUCTURE
     1 UNK         1 GROUP             0       ****    0 ROOT    
