@<TRIPOS>MOLECULE
3R540
247   249    1
SMALL
USER_CHARGES


@<TRIPOS>ATOM
      1 CA          6.5451  -13.6141  -48.1643 C.3       0 UNK        -0.1800 
      2 C           5.1713  -13.9427  -47.6006 C.2       0 UNK         0.5000 
      3 O           4.3846  -13.0338  -47.3398 O.2       0 UNK        -0.5000 
      4 N           4.8703  -15.2366  -47.4330 N.am      1 UNK        -0.5000 
      5 CA          3.6211  -15.7867  -46.8808 C.3       1 UNK         0.1400 
      6 C6          3.7100  -17.3235  -46.6983 C.3       23 UNK        -0.0398 
      7 S7          4.2208  -18.2165  -48.2130 S.3       23 UNK        -0.2404 
      8 C8          2.8573  -19.3927  -48.4637 C.3       23 UNK        -0.0205 
      9 C9          1.5897  -18.7273  -48.9761 C.ar      23 UNK        -0.0193 
     10 C10         1.4264  -18.4736  -50.3416 C.ar      23 UNK        -0.1150 
     11 C11         0.2232  -17.9508  -50.8282 C.ar      23 UNK        -0.0193 
     12 C12        -0.8114  -17.6631  -49.9317 C.ar      23 UNK        -0.1150 
     13 C13        -0.6530  -17.8971  -48.5628 C.ar      23 UNK        -0.0193 
     14 C14         0.5538  -18.4186  -48.0915 C.ar      23 UNK        -0.1150 
     15 C15        -1.7908  -17.6008  -47.5977 C.3       23 UNK        -0.0205 
     16 S16        -2.7880  -19.0887  -47.2529 S.3       23 UNK        -0.2404 
     17 C17        -1.8188  -19.9091  -45.9431 C.3       23 UNK        -0.0398 
     18 CA         -0.9264  -21.0627  -46.4657 C.3       11 UNK         0.1400 
     19 N           0.2408  -21.2671  -45.6070 N.am      11 UNK        -0.5000 
     20 C           1.2643  -22.0888  -45.8749 C.2       10 UNK         0.5000 
     21 O           1.3719  -22.7375  -46.9133 O.2       10 UNK        -0.5000 
     22 CA          2.3200  -22.2509  -44.7702 C.3       10 UNK         0.1400 
     23 CB          3.3421  -21.1043  -44.8143 C.3       10 UNK        -0.1800 
     24 N           1.7010  -22.3192  -43.4463 N.am      10 UNK        -0.5000 
     25 C           0.9501  -23.3455  -43.0195 C.2       9 UNK         0.5000 
     26 O           0.7429  -24.3641  -43.6793 O.2       9 UNK        -0.5000 
     27 CA          0.2768  -23.1788  -41.6453 C.3       9 UNK         0.1400 
     28 CB          1.2653  -23.4900  -40.5118 C.3       9 UNK        -0.1800 
     29 N          -0.2782  -21.8372  -41.4552 N.am      9 UNK        -0.5000 
     30 C          -1.3008  -21.3372  -42.1627 C.2       8 UNK         0.5000 
     31 O          -1.9059  -21.9673  -43.0276 O.2       8 UNK        -0.5000 
     32 CA         -1.6883  -19.8740  -41.8953 C.3       8 UNK         0.1400 
     33 CB         -2.7223  -19.7853  -40.7640 C.3       8 UNK        -0.1800 
     34 N          -0.5523  -19.0096  -41.5777 N.am      8 UNK        -0.5000 
     35 C           0.4869  -18.7491  -42.3803 C.2       7 UNK         0.5000 
     36 O           0.6559  -19.3039  -43.4684 O.2       7 UNK        -0.5000 
     37 CA          1.4783  -17.6734  -41.8798 C.3       7 UNK         0.1400 
     38 CB          2.6681  -17.4831  -42.8380 C.3       7 UNK        -0.1800 
     39 N           0.8148  -16.3806  -41.6891 N.am      7 UNK        -0.5000 
     40 C          -0.0421  -16.0725  -40.7015 C.2       6 UNK         0.5000 
     41 O          -0.2640  -16.8180  -39.7457 O.2       6 UNK        -0.5000 
     42 CA         -0.8198  -14.7427  -40.8092 C.3       6 UNK         0.1400 
     43 CB         -0.1961  -13.6805  -39.8915 C.3       6 UNK        -0.1800 
     44 N          -0.8853  -14.2099  -42.1705 N.am      6 UNK        -0.5000 
     45 C          -1.4565  -14.8086  -43.2259 C.2       5 UNK         0.5000 
     46 O          -2.1511  -15.8215  -43.1398 O.2       5 UNK        -0.5000 
     47 CA         -1.1701  -14.2009  -44.6163 C.3       5 UNK         0.1400 
     48 CB         -2.4376  -13.5662  -45.2079 C.3       5 UNK        -0.1800 
     49 N          -0.0878  -13.2095  -44.6496 N.am      5 UNK        -0.5000 
     50 C           1.1977  -13.4246  -44.3381 C.2       4 UNK         0.5000 
     51 O           1.6228  -14.4935  -43.8957 O.2       4 UNK        -0.5000 
     52 CA          2.1514  -12.2346  -44.5565 C.3       4 UNK         0.1400 
     53 CB          3.5737  -12.5114  -44.0372 C.3       4 UNK        -0.1800 
     54 N           2.2254  -11.8837  -45.9725 N.am      4 UNK        -0.5000 
     55 C           1.3290  -11.1540  -46.6494 C.2       3 UNK         0.5000 
     56 O           0.3285  -10.6538  -46.1331 O.2       3 UNK        -0.5000 
     57 CA          1.5722  -10.9983  -48.1583 C.3       3 UNK         0.1400 
     58 CB          2.7420  -10.0395  -48.4318 C.3       3 UNK        -0.1800 
     59 N           1.8594  -12.3007  -48.7558 N.am      3 UNK        -0.5000 
     60 C           0.9466  -13.0915  -49.3373 C.2       2 UNK         0.5000 
     61 O          -0.2240  -12.7606  -49.5288 O.2       2 UNK        -0.5000 
     62 CA          1.4145  -14.4947  -49.7740 C.3       2 UNK         0.1400 
     63 CB          1.8870  -14.4782  -51.2350 C.3       2 UNK        -0.1800 
     64 N           2.4884  -15.0255  -48.9352 N.am      2 UNK        -0.5000 
     65 C           2.3443  -15.3768  -47.6497 C.2       1 UNK         0.5000 
     66 O           1.2657  -15.3557  -47.0587 O.2       1 UNK        -0.5000 
     67 C          -1.7159  -22.3690  -46.6840 C.2       11 UNK         0.5000 
     68 O          -2.0042  -22.7216  -47.8268 O.2       11 UNK        -0.5000 
     69 N          -2.0114  -23.0993  -45.6016 N.am      12 UNK        -0.5000 
     70 CA         -2.6799  -24.4006  -45.6426 C.3       12 UNK         0.1400 
     71 CB         -2.9635  -24.8763  -44.2104 C.3       12 UNK        -0.1800 
     72 C          -1.8845  -25.4631  -46.4242 C.2       12 UNK         0.5000 
     73 O          -2.4806  -26.2221  -47.1888 O.2       12 UNK        -0.5000 
     74 N          -0.5596  -25.4833  -46.2295 N.am      13 UNK        -0.5000 
     75 CA          0.3554  -26.4169  -46.8788 C.3       13 UNK         0.1400 
     76 CB          1.6900  -26.4371  -46.1158 C.3       13 UNK        -0.1800 
     77 C           0.5806  -26.1096  -48.3704 C.2       13 UNK         0.5000 
     78 O           0.3683  -26.9879  -49.2075 O.2       13 UNK        -0.5000 
     79 N           1.0474  -24.8919  -48.6745 N.am      14 UNK        -0.5000 
     80 CA          1.5548  -24.5236  -49.9964 C.3       14 UNK         0.1400 
     81 CB          2.7028  -23.5141  -49.8325 C.3       14 UNK        -0.1800 
     82 C           0.4755  -23.9430  -50.9205 C.2       14 UNK         0.5000 
     83 O           0.5040  -24.2177  -52.1206 O.2       14 UNK        -0.5000 
     84 N          -0.4364  -23.1378  -50.3624 N.am      15 UNK        -0.5000 
     85 CA         -1.4250  -22.3731  -51.1262 C.3       15 UNK         0.1400 
     86 CB         -1.5394  -20.9674  -50.5194 C.3       15 UNK        -0.1800 
     87 C          -2.8076  -23.0399  -51.1524 C.2       15 UNK         0.5000 
     88 O          -3.7097  -22.4977  -51.7931 O.2       15 UNK        -0.5000 
     89 N          -2.9732  -24.1525  -50.4208 N.am      16 UNK        -0.5000 
     90 CA         -4.2383  -24.8462  -50.1490 C.3       16 UNK         0.1400 
     91 CB         -4.8025  -25.4858  -51.4350 C.3       16 UNK        -0.1800 
     92 C          -5.2544  -23.9303  -49.4310 C.2       16 UNK         0.5000 
     93 O          -6.4452  -23.9543  -49.7439 O.2       16 UNK        -0.5000 
     94 N          -4.7366  -23.1036  -48.5095 N.am      17 UNK        -0.5000 
     95 CA         -5.4201  -22.0420  -47.7631 C.3       17 UNK         0.1400 
     96 CB         -6.5492  -22.6130  -46.8804 C.3       17 UNK        -0.1800 
     97 C          -5.8780  -20.8627  -48.6496 C.2       17 UNK         0.5000 
     98 O          -6.7646  -20.1100  -48.2437 O.2       17 UNK        -0.5000 
     99 N          -5.2517  -20.7161  -49.8292 N.am      18 UNK        -0.5000 
    100 CA        -5.4924  -19.6940  -50.8513 C.3       18 UNK         0.1400 
    101 CB        -5.0418  -18.3052  -50.3558 C.3       18 UNK        -0.1800 
    102 C         -6.9451  -19.7240  -51.3680 C.2       18 UNK         0.5000 
    103 O         -7.6307  -18.6989  -51.3777 O.2       18 UNK        -0.5000 
    104 N         -7.3965  -20.9240  -51.7570 N.am      19 UNK        -0.5000 
    105 CA        -8.7421  -21.2297  -52.2431 C.3       19 UNK         0.1400 
    106 CB        -8.9339  -22.7563  -52.2121 C.3       19 UNK        -0.1800 
    107 C         -9.0086  -20.6303  -53.6405 C.2       19 UNK         0.5000 
    108 O         -8.9710  -21.3480  -54.6408 O.2       19 UNK        -0.5000 
    109 N         -9.2308  -19.3088  -53.6731 N.am      20 UNK        -0.5000 
    110 CA        -9.4715  -18.4320  -54.8306 C.3       20 UNK         0.1400 
    111 CB       -10.6745  -18.9131  -55.6674 C.3       20 UNK        -0.1800 
    112 C         -8.2288  -18.1681  -55.7094 C.2       20 UNK         0.5000 
    113 O         -8.2926  -17.3279  -56.6082 O.2       20 UNK        -0.5000 
    114 N         -7.1177  -18.8482  -55.4196 N.am      21 UNK        -0.5000 
    115 CA        -5.8084  -18.7280  -56.0446 C.3       21 UNK         0.1400 
    116 CB        -5.8195  -19.3790  -57.4405 C.3       21 UNK        -0.1800 
    117 C         -4.7981  -19.4240  -55.1220 C.2       21 UNK         0.5000 
    118 O         -5.2012  -20.2223  -54.2711 O.2       21 UNK        -0.5000 
    119 N         -3.5090  -19.1198  -55.3042 N.am      22 UNK        -0.5000 
    120 CA        -2.4032  -19.7900  -54.6084 C.3       22 UNK         0.1400 
    121 C         -2.1837  -21.2164  -55.1888 C.2       22 UNK         0.5000 
    122 N         -2.6716  -22.2569  -54.5283 N.am      22 UNK        -0.7600 
    123 O         -1.5818  -21.3834  -56.2468 O.2       22 UNK        -0.5000 
    124 C124       -1.1135  -18.9237  -54.6387 C.3       23 UNK        -0.0398 
    125 S125       -0.0053  -19.3027  -53.2383 S.3       23 UNK        -0.2404 
    126 C126        0.0231  -17.7265  -52.3207 C.3       23 UNK        -0.0205 
    127 H127        7.1012  -12.9986  -47.4573 H         1 UNK         0.0600 
    128 H128        6.4440  -13.0579  -49.0961 H         1 UNK         0.0600 
    129 H129        7.1273  -14.5137  -48.3652 H         1 UNK         0.0600 
    130 H130        5.5520  -15.9332  -47.7000 H         1 UNK         0.3000 
    131 H131        3.5119  -15.3543  -45.8843 H         1 UNK         0.0600 
    132 H132        4.4474  -17.5481  -45.9265 H         1 UNK         0.0800 
    133 H133        2.7702  -17.7243  -46.3161 H         1 UNK         0.0800 
    134 H134        2.6591  -19.9279  -47.5351 H         1 UNK         0.0800 
    135 H135        3.1790  -20.1490  -49.1810 H         1 UNK         0.0800 
    136 H136        2.2222  -18.7158  -51.0317 H         1 UNK         0.1150 
    137 H137       -1.7481  -17.2702  -50.3003 H         1 UNK         0.1150 
    138 H138        0.6747  -18.6083  -47.0348 H         1 UNK         0.1150 
    139 H139       -1.4009  -17.1754  -46.6718 H         1 UNK         0.0800 
    140 H140       -2.4445  -16.8382  -48.0235 H         1 UNK         0.0800 
    141 H141       -2.5060  -20.2603  -45.1719 H         1 UNK         0.0800 
    142 H142       -1.2067  -19.1503  -45.4544 H         1 UNK         0.0800 
    143 H143       -0.5344  -20.7809  -47.4437 H         1 UNK         0.0600 
    144 H144        0.2697  -20.7362  -44.7415 H         1 UNK         0.3000 
    145 H145        2.8523  -23.1881  -44.9461 H         1 UNK         0.0600 
    146 H146        4.0762  -21.1971  -44.0139 H         1 UNK         0.0600 
    147 H147        3.8901  -21.1111  -45.7571 H         1 UNK         0.0600 
    148 H148        2.8654  -20.1284  -44.7220 H         1 UNK         0.0600 
    149 H149        1.7724  -21.4948  -42.8684 H         1 UNK         0.3000 
    150 H150       -0.5445  -23.8965  -41.5885 H         1 UNK         0.0600 
    151 H151        1.6831  -24.4915  -40.6234 H         1 UNK         0.0600 
    152 H152        0.7744  -23.4507  -39.5392 H         1 UNK         0.0600 
    153 H153        2.0986  -22.7864  -40.4962 H         1 UNK         0.0600 
    154 H154        0.1630  -21.2484  -40.7642 H         1 UNK         0.3000 
    155 H155       -2.1480  -19.4845  -42.8056 H         1 UNK         0.0600 
    156 H156       -2.3091  -20.1244  -39.8133 H         1 UNK         0.0600 
    157 H157       -3.5955  -20.4016  -40.9827 H         1 UNK         0.0600 
    158 H158       -3.0731  -18.7615  -40.6313 H         1 UNK         0.0600 
    159 H159       -0.6156  -18.4721  -40.7184 H         1 UNK         0.3000 
    160 H160        1.8717  -18.0100  -40.9187 H         1 UNK         0.0600 
    161 H161        2.3383  -17.1717  -43.8299 H         1 UNK         0.0600 
    162 H162        3.2314  -18.4096  -42.9524 H         1 UNK         0.0600 
    163 H163        3.3589  -16.7269  -42.4649 H         1 UNK         0.0600 
    164 H164        0.9484  -15.7077  -42.4382 H         1 UNK         0.3000 
    165 H165       -1.8416  -14.9332  -40.4751 H         1 UNK         0.0600 
    166 H166       -0.7797  -12.7597  -39.8990 H         1 UNK         0.0600 
    167 H167       -0.1572  -14.0301  -38.8589 H         1 UNK         0.0600 
    168 H168        0.8230  -13.4363  -40.1942 H         1 UNK         0.0600 
    169 H169       -0.3406  -13.3801  -42.3508 H         1 UNK         0.3000 
    170 H170       -0.8701  -15.0274  -45.2636 H         1 UNK         0.0600 
    171 H171       -3.2579  -14.2845  -45.2412 H         1 UNK         0.0600 
    172 H172       -2.7710  -12.7117  -44.6179 H         1 UNK         0.0600 
    173 H173       -2.2663  -13.2245  -46.2292 H         1 UNK         0.0600 
    174 H174       -0.3230  -12.2999  -45.0313 H         1 UNK         0.3000 
    175 H175        1.7534  -11.3851  -43.9976 H         1 UNK         0.0600 
    176 H176        4.0369  -13.3530  -44.5527 H         1 UNK         0.0600 
    177 H177        4.2180  -11.6427  -44.1730 H         1 UNK         0.0600 
    178 H178        3.5623  -12.7446  -42.9719 H         1 UNK         0.0600 
    179 H179        3.0132  -12.2795  -46.4825 H         1 UNK         0.3000 
    180 H180        0.6736  -10.5671  -48.6046 H         1 UNK         0.0600 
    181 H181        3.6802  -10.4111  -48.0180 H         1 UNK         0.0600 
    182 H182        2.5536   -9.0597  -47.9911 H         1 UNK         0.0600 
    183 H183        2.8854   -9.8923  -49.5023 H         1 UNK         0.0600 
    184 H184        2.7858  -12.6747  -48.5855 H         1 UNK         0.3000 
    185 H185        0.5595  -15.1681  -49.6950 H         1 UNK         0.0600 
    186 H186        1.0829  -14.1623  -51.9007 H         1 UNK         0.0600 
    187 H187        2.7237  -13.7937  -51.3798 H         1 UNK         0.0600 
    188 H188        2.2065  -15.4693  -51.5567 H         1 UNK         0.0600 
    189 H189        3.4068  -15.0876  -49.3484 H         1 UNK         0.3000 
    190 H190       -1.7869  -22.7349  -44.6778 H         1 UNK         0.3000 
    191 H191       -3.6382  -24.2675  -46.1473 H         1 UNK         0.0600 
    192 H192       -2.0446  -24.9836  -43.6328 H         1 UNK         0.0600 
    193 H193       -3.4681  -25.8432  -44.2111 H         1 UNK         0.0600 
    194 H194       -3.6086  -24.1731  -43.6833 H         1 UNK         0.0600 
    195 H195       -0.1546  -24.8435  -45.5555 H         1 UNK         0.3000 
    196 H196       -0.0774  -27.4173  -46.8104 H         1 UNK         0.0600 
    197 H197        2.3979  -27.1237  -46.5816 H         1 UNK         0.0600 
    198 H198        1.5481  -26.7658  -45.0861 H         1 UNK         0.0600 
    199 H199        2.1563  -25.4516  -46.0878 H         1 UNK         0.0600 
    200 H200        1.1640  -24.1974  -47.9377 H         1 UNK         0.3000 
    201 H201        1.9671  -25.4104  -50.4831 H         1 UNK         0.0600 
    202 H202        3.4913  -23.9119  -49.1936 H         1 UNK         0.0600 
    203 H203        2.3574  -22.5770  -49.3945 H         1 UNK         0.0600 
    204 H204        3.1532  -23.2760  -50.7968 H         1 UNK         0.0600 
    205 H205       -0.4369  -22.9973  -49.3596 H         1 UNK         0.3000 
    206 H206       -1.0891  -22.2595  -52.1586 H         1 UNK         0.0600 
    207 H207       -0.5534  -20.5505  -50.3251 H         1 UNK         0.0600 
    208 H208       -2.0566  -20.2894  -51.1981 H         1 UNK         0.0600 
    209 H209       -2.0937  -20.9547  -49.5834 H         1 UNK         0.0600 
    210 H210       -2.1694  -24.4868  -49.9078 H         1 UNK         0.3000 
    211 H211       -4.0062  -25.6525  -49.4522 H         1 UNK         0.0600 
    212 H212       -5.1234  -24.7345  -52.1572 H         1 UNK         0.0600 
    213 H213       -5.6668  -26.1120  -51.2114 H         1 UNK         0.0600 
    214 H214       -4.0592  -26.1197  -51.9182 H         1 UNK         0.0600 
    215 H215       -3.7291  -23.1346  -48.3654 H         1 UNK         0.3000 
    216 H216       -4.6695  -21.6257  -47.0907 H         1 UNK         0.0600 
    217 H217       -6.9313  -21.8539  -46.1970 H         1 UNK         0.0600 
    218 H218       -6.1929  -23.4442  -46.2721 H         1 UNK         0.0600 
    219 H219       -7.3914  -22.9668  -47.4753 H         1 UNK         0.0600 
    220 H220       -4.5814  -21.4257  -50.0944 H         1 UNK         0.3000 
    221 H221       -4.8557  -19.9556  -51.6962 H         1 UNK         0.0600 
    222 H222       -5.6376  -17.9610  -49.5100 H         1 UNK         0.0600 
    223 H223       -3.9976  -18.3219  -50.0450 H         1 UNK         0.0600 
    224 H224       -5.1330  -17.5607  -51.1473 H         1 UNK         0.0600 
    225 H225       -6.7535  -21.7026  -51.7201 H         1 UNK         0.3000 
    226 H226       -9.4649  -20.7918  -51.5516 H         1 UNK         0.0600 
    227 H227       -8.8311  -23.1449  -51.1985 H         1 UNK         0.0600 
    228 H228       -9.9272  -23.0337  -52.5670 H         1 UNK         0.0600 
    229 H229       -8.2035  -23.2683  -52.8401 H         1 UNK         0.0600 
    230 H230       -9.1087  -18.8196  -52.7916 H         1 UNK         0.3000 
    231 H231       -9.7412  -17.4641  -54.4059 H         1 UNK         0.0600 
    232 H232      -11.5515  -19.0776  -55.0415 H         1 UNK         0.0600 
    233 H233      -10.4588  -19.8410  -56.1974 H         1 UNK         0.0600 
    234 H234      -10.9472  -18.1702  -56.4178 H         1 UNK         0.0600 
    235 H235       -7.1371  -19.5193  -54.6611 H         1 UNK         0.3000 
    236 H236       -5.5447  -17.6716  -56.1245 H         1 UNK         0.0600 
    237 H237       -4.8363  -19.3227  -57.9089 H         1 UNK         0.0600 
    238 H238       -6.0985  -20.4321  -57.3872 H         1 UNK         0.0600 
    239 H239       -6.5222  -18.8808  -58.1083 H         1 UNK         0.0600 
    240 H240       -3.2521  -18.4830  -56.0443 H         1 UNK         0.3000 
    241 H241       -2.7037  -19.8928  -53.5631 H         1 UNK         0.0600 
    242 H242       -2.5406  -23.1795  -54.9103 H         1 UNK         0.3800 
    243 H243       -3.2226  -22.1413  -53.6834 H         1 UNK         0.3800 
    244 H244       -1.3737  -17.8656  -54.6005 H         1 UNK         0.0800 
    245 H245       -0.5637  -19.0490  -55.5730 H         1 UNK         0.0800 
    246 H246        0.8255  -17.1003  -52.7112 H         1 UNK         0.0800 
    247 H247       -0.9056  -17.1796  -52.4883 H         1 UNK         0.0800 
@<TRIPOS>BOND
     1    1    2 1    
     2    1  127 1    
     3    1  128 1    
     4    1  129 1    
     5    2    3 2    
     6    2    4 am   BACKBONE|DICT|INTERRES
     7    4    5 1    
     8    4  130 1    
     9    5    6 1    
    10    5   65 1    
    11    5  131 1    
    12    6    7 1    
    13    6  132 1    
    14    6  133 1    
    15    7    8 1    
    16    8    9 1    
    17    8  134 1    
    18    8  135 1    
    19    9   10 ar   
    20    9   14 ar   
    21   10   11 ar   
    22   10  136 1    
    23   11   12 ar   
    24   11  126 1    
    25   12   13 ar   
    26   12  137 1    
    27   13   14 ar   
    28   13   15 1    
    29   14  138 1    
    30   15   16 1    
    31   15  139 1    
    32   15  140 1    
    33   16   17 1    
    34   17   18 1    
    35   17  141 1    
    36   17  142 1    
    37   18   19 1    
    38   18   67 1    
    39   18  143 1    
    40   19   20 am   BACKBONE|DICT|INTERRES
    41   19  144 1    
    42   20   21 2    
    43   20   22 1    
    44   22   23 1    
    45   22   24 1    
    46   22  145 1    
    47   23  146 1    
    48   23  147 1    
    49   23  148 1    
    50   24   25 am   BACKBONE|DICT|INTERRES
    51   24  149 1    
    52   25   26 2    
    53   25   27 1    
    54   27   28 1    
    55   27   29 1    
    56   27  150 1    
    57   28  151 1    
    58   28  152 1    
    59   28  153 1    
    60   29   30 am   BACKBONE|DICT|INTERRES
    61   29  154 1    
    62   30   31 2    
    63   30   32 1    
    64   32   33 1    
    65   32   34 1    
    66   32  155 1    
    67   33  156 1    
    68   33  157 1    
    69   33  158 1    
    70   34   35 am   BACKBONE|DICT|INTERRES
    71   34  159 1    
    72   35   36 2    
    73   35   37 1    
    74   37   38 1    
    75   37   39 1    
    76   37  160 1    
    77   38  161 1    
    78   38  162 1    
    79   38  163 1    
    80   39   40 am   BACKBONE|DICT|INTERRES
    81   39  164 1    
    82   40   41 2    
    83   40   42 1    
    84   42   43 1    
    85   42   44 1    
    86   42  165 1    
    87   43  166 1    
    88   43  167 1    
    89   43  168 1    
    90   44   45 am   BACKBONE|DICT|INTERRES
    91   44  169 1    
    92   45   46 2    
    93   45   47 1    
    94   47   48 1    
    95   47   49 1    
    96   47  170 1    
    97   48  171 1    
    98   48  172 1    
    99   48  173 1    
   100   49   50 am   BACKBONE|DICT|INTERRES
   101   49  174 1    
   102   50   51 2    
   103   50   52 1    
   104   52   53 1    
   105   52   54 1    
   106   52  175 1    
   107   53  176 1    
   108   53  177 1    
   109   53  178 1    
   110   54   55 am   BACKBONE|DICT|INTERRES
   111   54  179 1    
   112   55   56 2    
   113   55   57 1    
   114   57   58 1    
   115   57   59 1    
   116   57  180 1    
   117   58  181 1    
   118   58  182 1    
   119   58  183 1    
   120   59   60 am   BACKBONE|DICT|INTERRES
   121   59  184 1    
   122   60   61 2    
   123   60   62 1    
   124   62   63 1    
   125   62   64 1    
   126   62  185 1    
   127   63  186 1    
   128   63  187 1    
   129   63  188 1    
   130   64   65 am   BACKBONE|DICT|INTERRES
   131   64  189 1    
   132   65   66 2    
   133   67   68 2    
   134   67   69 am   BACKBONE|DICT|INTERRES
   135   69   70 1    
   136   69  190 1    
   137   70   71 1    
   138   70   72 1    
   139   70  191 1    
   140   71  192 1    
   141   71  193 1    
   142   71  194 1    
   143   72   73 2    
   144   72   74 am   BACKBONE|DICT|INTERRES
   145   74   75 1    
   146   74  195 1    
   147   75   76 1    
   148   75   77 1    
   149   75  196 1    
   150   76  197 1    
   151   76  198 1    
   152   76  199 1    
   153   77   78 2    
   154   77   79 am   BACKBONE|DICT|INTERRES
   155   79   80 1    
   156   79  200 1    
   157   80   81 1    
   158   80   82 1    
   159   80  201 1    
   160   81  202 1    
   161   81  203 1    
   162   81  204 1    
   163   82   83 2    
   164   82   84 am   BACKBONE|DICT|INTERRES
   165   84   85 1    
   166   84  205 1    
   167   85   86 1    
   168   85   87 1    
   169   85  206 1    
   170   86  207 1    
   171   86  208 1    
   172   86  209 1    
   173   87   88 2    
   174   87   89 am   BACKBONE|DICT|INTERRES
   175   89   90 1    
   176   89  210 1    
   177   90   91 1    
   178   90   92 1    
   179   90  211 1    
   180   91  212 1    
   181   91  213 1    
   182   91  214 1    
   183   92   93 2    
   184   92   94 am   BACKBONE|DICT|INTERRES
   185   94   95 1    
   186   94  215 1    
   187   95   96 1    
   188   95   97 1    
   189   95  216 1    
   190   96  217 1    
   191   96  218 1    
   192   96  219 1    
   193   97   98 2    
   194   97   99 am   BACKBONE|DICT|INTERRES
   195   99  100 1    
   196   99  220 1    
   197  100  101 1    
   198  100  102 1    
   199  100  221 1    
   200  101  222 1    
   201  101  223 1    
   202  101  224 1    
   203  102  103 2    
   204  102  104 am   BACKBONE|DICT|INTERRES
   205  104  105 1    
   206  104  225 1    
   207  105  106 1    
   208  105  107 1    
   209  105  226 1    
   210  106  227 1    
   211  106  228 1    
   212  106  229 1    
   213  107  108 2    
   214  107  109 am   BACKBONE|DICT|INTERRES
   215  109  110 1    
   216  109  230 1    
   217  110  111 1    
   218  110  112 1    
   219  110  231 1    
   220  111  232 1    
   221  111  233 1    
   222  111  234 1    
   223  112  113 2    
   224  112  114 am   BACKBONE|DICT|INTERRES
   225  114  115 1    
   226  114  235 1    
   227  115  116 1    
   228  115  117 1    
   229  115  236 1    
   230  116  237 1    
   231  116  238 1    
   232  116  239 1    
   233  117  118 2    
   234  117  119 am   BACKBONE|DICT|INTERRES
   235  119  120 1    
   236  119  240 1    
   237  120  121 1    
   238  120  124 1    
   239  120  241 1    
   240  121  122 am   BACKBONE|DICT|INTERRES
   241  121  123 2    
   242  122  242 1    
   243  122  243 1    
   244  124  125 1    
   245  124  244 1    
   246  124  245 1    
   247  125  126 1    
   248  126  246 1    
   249  126  247 1    
@<TRIPOS>SUBSTRUCTURE
     1 UNK         1 GROUP             0       ****    0 ROOT    
