@<TRIPOS>MOLECULE
3R540
247   249    1
SMALL
USER_CHARGES


@<TRIPOS>ATOM
      1 CA         -0.4658  -10.6223  -52.1529 C.3       0 UNK        -0.1800 
      2 C          -0.5548  -11.0554  -50.6964 C.2       0 UNK         0.5000 
      3 O          -0.7020  -10.2073  -49.8165 O.2       0 UNK        -0.5000 
      4 N          -0.4581  -12.3695  -50.4464 N.am      1 UNK        -0.5000 
      5 CA         -0.5400  -13.0197  -49.1260 C.3       1 UNK         0.1400 
      6 C6         -1.9133  -12.8404  -48.4153 C.3       23 UNK        -0.0398 
      7 S7         -3.3453  -13.2218  -49.4860 S.3       23 UNK        -0.2404 
      8 C8         -3.8060  -14.8964  -48.9390 C.3       23 UNK        -0.0205 
      9 C9         -2.7310  -15.9323  -49.2374 C.ar      23 UNK        -0.0193 
     10 C10        -2.3069  -16.1561  -50.5509 C.ar      23 UNK        -0.1150 
     11 C11        -1.3351  -17.1204  -50.8275 C.ar      23 UNK        -0.0193 
     12 C12        -0.7969  -17.8734  -49.7801 C.ar      23 UNK        -0.1150 
     13 C13        -1.2199  -17.6739  -48.4625 C.ar      23 UNK        -0.0193 
     14 C14        -2.1772  -16.6864  -48.1992 C.ar      23 UNK        -0.1150 
     15 C15        -0.5872  -18.4987  -47.3440 C.3       23 UNK        -0.0205 
     16 S16        -1.6900  -18.8602  -45.9342 S.3       23 UNK        -0.2404 
     17 C17        -2.6705  -20.2758  -46.5244 C.3       23 UNK        -0.0398 
     18 CA         -2.0444  -21.6425  -46.1477 C.3       11 UNK         0.1400 
     19 N          -1.6477  -21.7283  -44.7312 N.am      11 UNK        -0.5000 
     20 C          -1.0586  -22.7723  -44.1258 C.2       10 UNK         0.5000 
     21 O          -0.8847  -23.8629  -44.6730 O.2       10 UNK        -0.5000 
     22 CA         -0.5650  -22.5819  -42.6808 C.3       10 UNK         0.1400 
     23 CB          0.9560  -22.7951  -42.6107 C.3       10 UNK        -0.1800 
     24 N          -0.8634  -21.2540  -42.1464 N.am      10 UNK        -0.5000 
     25 C          -1.8677  -20.9458  -41.3176 C.2       9 UNK         0.5000 
     26 O          -2.7363  -21.7463  -40.9669 O.2       9 UNK        -0.5000 
     27 CA         -1.8702  -19.4936  -40.7890 C.3       9 UNK         0.1400 
     28 CB         -2.8546  -19.2641  -39.6238 C.3       9 UNK        -0.1800 
     29 N          -0.5185  -19.0342  -40.4442 N.am      9 UNK        -0.5000 
     30 C           0.3064  -19.5340  -39.5107 C.2       8 UNK         0.5000 
     31 O          -0.0166  -20.3990  -38.6960 O.2       8 UNK        -0.5000 
     32 CA          1.7561  -19.0046  -39.5019 C.3       8 UNK         0.1400 
     33 CB          2.6941  -20.0304  -40.1571 C.3       8 UNK        -0.1800 
     34 N           1.9196  -17.7207  -40.1870 N.am      8 UNK        -0.5000 
     35 C           1.5236  -16.5364  -39.6999 C.2       7 UNK         0.5000 
     36 O           1.0099  -16.3880  -38.5907 O.2       7 UNK        -0.5000 
     37 CA          1.7054  -15.3194  -40.6259 C.3       7 UNK         0.1400 
     38 CB          3.1292  -14.7514  -40.5204 C.3       7 UNK        -0.1800 
     39 N           1.4121  -15.6553  -42.0199 N.am      7 UNK        -0.5000 
     40 C           0.1772  -15.8613  -42.4992 C.2       6 UNK         0.5000 
     41 O          -0.8478  -15.7041  -41.8360 O.2       6 UNK        -0.5000 
     42 CA          0.0666  -16.3752  -43.9437 C.3       6 UNK         0.1400 
     43 CB         -0.0607  -15.2135  -44.9396 C.3       6 UNK        -0.1800 
     44 N           1.1956  -17.2310  -44.3165 N.am      6 UNK        -0.5000 
     45 C           1.3342  -18.4994  -43.9003 C.2       5 UNK         0.5000 
     46 O           0.5182  -19.0676  -43.1782 O.2       5 UNK        -0.5000 
     47 CA          2.5967  -19.2704  -44.3276 C.3       5 UNK         0.1400 
     48 CB          2.3247  -20.0638  -45.6138 C.3       5 UNK        -0.1800 
     49 N           3.7676  -18.4192  -44.5190 N.am      5 UNK        -0.5000 
     50 C           4.3174  -17.6383  -43.5783 C.2       4 UNK         0.5000 
     51 O           3.9450  -17.6197  -42.4045 O.2       4 UNK        -0.5000 
     52 CA          5.4165  -16.6647  -44.0494 C.3       4 UNK         0.1400 
     53 CB          6.8080  -17.2581  -43.7864 C.3       4 UNK        -0.1800 
     54 N           5.3071  -16.2941  -45.4676 N.am      4 UNK        -0.5000 
     55 C           4.2536  -15.6747  -46.0191 C.2       3 UNK         0.5000 
     56 O           3.2420  -15.3607  -45.3886 O.2       3 UNK        -0.5000 
     57 CA          4.3063  -15.4521  -47.5416 C.3       3 UNK         0.1400 
     58 CB          3.6924  -16.6609  -48.2674 C.3       3 UNK        -0.1800 
     59 N           3.5901  -14.2471  -47.9594 N.am      3 UNK        -0.5000 
     60 C           3.9139  -12.9923  -47.6184 C.2       2 UNK         0.5000 
     61 O           4.8963  -12.7058  -46.9318 O.2       2 UNK        -0.5000 
     62 CA          3.0174  -11.8588  -48.1566 C.3       2 UNK         0.1400 
     63 CB          3.7969  -10.9776  -49.1468 C.3       2 UNK        -0.1800 
     64 N           1.8034  -12.3357  -48.8247 N.am      2 UNK        -0.5000 
     65 C           0.6503  -12.6374  -48.2106 C.2       1 UNK         0.5000 
     66 O           0.5101  -12.6084  -46.9878 O.2       1 UNK        -0.5000 
     67 C          -2.9666  -22.7861  -46.6172 C.2       11 UNK         0.5000 
     68 O          -2.9112  -23.1526  -47.7902 O.2       11 UNK        -0.5000 
     69 N          -3.7547  -23.3624  -45.6976 N.am      12 UNK        -0.5000 
     70 CA         -4.5912  -24.5486  -45.9058 C.3       12 UNK         0.1400 
     71 CB         -5.3164  -24.8848  -44.5947 C.3       12 UNK        -0.1800 
     72 C          -3.8149  -25.7770  -46.4213 C.2       12 UNK         0.5000 
     73 O          -4.3518  -26.5322  -47.2319 O.2       12 UNK        -0.5000 
     74 N          -2.5656  -25.9305  -45.9657 N.am      13 UNK        -0.5000 
     75 CA         -1.6460  -26.9788  -46.3985 C.3       13 UNK         0.1400 
     76 CB         -0.9969  -27.6183  -45.1607 C.3       13 UNK        -0.1800 
     77 C          -0.5690  -26.4115  -47.3358 C.2       13 UNK         0.5000 
     78 O          -0.2767  -27.0222  -48.3638 O.2       13 UNK        -0.5000 
     79 N           0.0049  -25.2580  -46.9665 N.am      14 UNK        -0.5000 
     80 CA          1.1624  -24.6540  -47.6286 C.3       14 UNK         0.1400 
     81 CB          1.7592  -23.5830  -46.7029 C.3       14 UNK        -0.1800 
     82 C           0.8615  -24.0528  -49.0132 C.2       14 UNK         0.5000 
     83 O           1.7698  -23.9809  -49.8419 O.2       14 UNK        -0.5000 
     84 N          -0.3859  -23.6226  -49.2367 N.am      15 UNK        -0.5000 
     85 CA         -0.8324  -22.9573  -50.4614 C.3       15 UNK         0.1400 
     86 CB         -0.9443  -21.4465  -50.1908 C.3       15 UNK        -0.1800 
     87 C          -2.1557  -23.5440  -50.9835 C.2       15 UNK         0.5000 
     88 O          -2.8150  -22.8998  -51.7975 O.2       15 UNK        -0.5000 
     89 N          -2.5426  -24.7335  -50.4947 N.am      16 UNK        -0.5000 
     90 CA         -3.7716  -25.4673  -50.8296 C.3       16 UNK         0.1400 
     91 CB         -3.6788  -26.0304  -52.2632 C.3       16 UNK        -0.1800 
     92 C          -5.0654  -24.6533  -50.5892 C.2       16 UNK         0.5000 
     93 O          -6.0057  -24.7393  -51.3800 O.2       16 UNK        -0.5000 
     94 N          -5.0677  -23.8645  -49.5048 N.am      17 UNK        -0.5000 
     95 CA         -6.1035  -22.9176  -49.0736 C.3       17 UNK         0.1400 
     96 CB         -7.4816  -23.5920  -48.9086 C.3       17 UNK        -0.1800 
     97 C          -6.1519  -21.6193  -49.9033 C.2       17 UNK         0.5000 
     98 O          -7.1092  -20.8552  -49.7694 O.2       17 UNK        -0.5000 
     99 N          -5.0940  -21.3610  -50.6850 N.am      18 UNK        -0.5000 
    100 CA        -4.8409  -20.1513  -51.4644 C.3       18 UNK         0.1400 
    101 CB        -4.5611  -18.9565  -50.5253 C.3       18 UNK        -0.1800 
    102 C         -5.9252  -19.8901  -52.5307 C.2       18 UNK         0.5000 
    103 O         -6.3152  -20.8241  -53.2357 O.2       18 UNK        -0.5000 
    104 N         -6.3642  -18.6291  -52.6621 N.am      19 UNK        -0.5000 
    105 CA        -7.3101  -18.1268  -53.6621 C.3       19 UNK         0.1400 
    106 CB        -8.7336  -18.6586  -53.3800 C.3       19 UNK        -0.1800 
    107 C         -6.7929  -18.4076  -55.0876 C.2       19 UNK         0.5000 
    108 O         -5.7057  -17.9404  -55.4307 O.2       19 UNK        -0.5000 
    109 N         -7.5317  -19.1999  -55.8740 N.am      20 UNK        -0.5000 
    110 CA        -7.1826  -19.6075  -57.2378 C.3       20 UNK         0.1400 
    111 CB        -8.3520  -20.4135  -57.8246 C.3       20 UNK        -0.1800 
    112 C         -5.8639  -20.4024  -57.3613 C.2       20 UNK         0.5000 
    113 O         -5.3130  -20.4745  -58.4607 O.2       20 UNK        -0.5000 
    114 N         -5.3740  -20.9774  -56.2528 N.am      21 UNK        -0.5000 
    115 CA        -4.1151  -21.7201  -56.1999 C.3       21 UNK         0.1400 
    116 CB        -4.0843  -22.5769  -54.9254 C.3       21 UNK        -0.1800 
    117 C         -2.8580  -20.8294  -56.2744 C.2       21 UNK         0.5000 
    118 O         -1.7978  -21.3454  -56.6328 O.2       21 UNK        -0.5000 
    119 N         -2.9676  -19.5354  -55.9361 N.am      22 UNK        -0.5000 
    120 CA        -1.8146  -18.6169  -55.8739 C.3       22 UNK         0.1400 
    121 C         -2.1278  -17.1085  -56.0860 C.2       22 UNK         0.5000 
    122 N         -3.3754  -16.6654  -56.1546 N.am      22 UNK        -0.7600 
    123 O         -1.2040  -16.3113  -56.2258 O.2       22 UNK        -0.5000 
    124 C124       -0.9159  -18.8677  -54.6309 C.3       23 UNK        -0.0398 
    125 S125       -1.7967  -18.6969  -53.0404 S.3       23 UNK        -0.2404 
    126 C126       -0.8641  -17.3503  -52.2546 C.3       23 UNK        -0.0205 
    127 H127       -0.3386  -11.4731  -52.8228 H         1 UNK         0.0600 
    128 H128        0.3802   -9.9494  -52.2932 H         1 UNK         0.0600 
    129 H129       -1.3745  -10.0949  -52.4430 H         1 UNK         0.0600 
    130 H130       -0.3504  -13.0031  -51.2259 H         1 UNK         0.3000 
    131 H131       -0.4182  -14.0864  -49.3188 H         1 UNK         0.0600 
    132 H132       -2.0278  -11.8132  -48.0659 H         1 UNK         0.0800 
    133 H133       -1.9632  -13.4663  -47.5226 H         1 UNK         0.0800 
    134 H134       -4.7237  -15.1913  -49.4495 H         1 UNK         0.0800 
    135 H135       -4.0435  -14.8711  -47.8743 H         1 UNK         0.0800 
    136 H136       -2.7359  -15.5786  -51.3578 H         1 UNK         0.1150 
    137 H137       -0.0431  -18.6167  -49.9963 H         1 UNK         0.1150 
    138 H138       -2.4988  -16.5057  -47.1837 H         1 UNK         0.1150 
    139 H139       -0.1948  -19.4391  -47.7333 H         1 UNK         0.0800 
    140 H140        0.2699  -17.9393  -46.9695 H         1 UNK         0.0800 
    141 H141       -2.8044  -20.1882  -47.6039 H         1 UNK         0.0800 
    142 H142       -3.6665  -20.1811  -46.0881 H         1 UNK         0.0800 
    143 H143       -1.1224  -21.7425  -46.7229 H         1 UNK         0.0600 
    144 H144       -1.7300  -20.8696  -44.2056 H         1 UNK         0.3000 
    145 H145       -1.0459  -23.3479  -42.0695 H         1 UNK         0.0600 
    146 H146        1.3214  -22.6887  -41.5890 H         1 UNK         0.0600 
    147 H147        1.2303  -23.7951  -42.9495 H         1 UNK         0.0600 
    148 H148        1.4917  -22.0792  -43.2345 H         1 UNK         0.0600 
    149 H149       -0.2360  -20.5015  -42.4281 H         1 UNK         0.3000 
    150 H150       -2.1967  -18.8690  -41.6219 H         1 UNK         0.0600 
    151 H151       -3.8789  -19.4745  -39.9331 H         1 UNK         0.0600 
    152 H152       -2.8249  -18.2293  -39.2825 H         1 UNK         0.0600 
    153 H153       -2.6344  -19.9058  -38.7704 H         1 UNK         0.0600 
    154 H154       -0.1184  -18.3696  -41.0924 H         1 UNK         0.3000 
    155 H155        2.0576  -18.8811  -38.4597 H         1 UNK         0.0600 
    156 H156        2.4215  -20.2140  -41.1962 H         1 UNK         0.0600 
    157 H157        2.6545  -20.9871  -39.6348 H         1 UNK         0.0600 
    158 H158        3.7298  -19.6906  -40.1367 H         1 UNK         0.0600 
    159 H159        2.4040  -17.7384  -41.0784 H         1 UNK         0.3000 
    160 H160        1.0083  -14.5435  -40.3020 H         1 UNK         0.0600 
    161 H161        3.8827  -15.4810  -40.8172 H         1 UNK         0.0600 
    162 H162        3.3518  -14.4513  -39.4957 H         1 UNK         0.0600 
    163 H163        3.2496  -13.8701  -41.1504 H         1 UNK         0.0600 
    164 H164        2.2016  -15.8316  -42.6248 H         1 UNK         0.3000 
    165 H165       -0.8507  -16.9621  -44.0008 H         1 UNK         0.0600 
    166 H166       -0.1406  -15.5751  -45.9647 H         1 UNK         0.0600 
    167 H167       -0.9532  -14.6214  -44.7346 H         1 UNK         0.0600 
    168 H168        0.7943  -14.5392  -44.8876 H         1 UNK         0.0600 
    169 H169        1.9314  -16.7921  -44.8602 H         1 UNK         0.3000 
    170 H170        2.8303  -19.9801  -43.5326 H         1 UNK         0.0600 
    171 H171        1.4086  -20.6489  -45.5243 H         1 UNK         0.0600 
    172 H172        2.2116  -19.4075  -46.4770 H         1 UNK         0.0600 
    173 H173        3.1364  -20.7597  -45.8261 H         1 UNK         0.0600 
    174 H174        4.1442  -18.3701  -45.4534 H         1 UNK         0.3000 
    175 H175        5.3149  -15.7518  -43.4589 H         1 UNK         0.0600 
    176 H176        6.9780  -18.1619  -44.3730 H         1 UNK         0.0600 
    177 H177        7.5947  -16.5443  -44.0316 H         1 UNK         0.0600 
    178 H178        6.9275  -17.5220  -42.7346 H         1 UNK         0.0600 
    179 H179        6.0945  -16.5342  -46.0530 H         1 UNK         0.3000 
    180 H180        5.3495  -15.3472  -47.8464 H         1 UNK         0.0600 
    181 H181        2.6427  -16.7993  -48.0031 H         1 UNK         0.0600 
    182 H182        4.2185  -17.5820  -48.0136 H         1 UNK         0.0600 
    183 H183        3.7523  -16.5441  -49.3497 H         1 UNK         0.0600 
    184 H184        2.7542  -14.3843  -48.5059 H         1 UNK         0.3000 
    185 H185        2.7339  -11.2386  -47.3036 H         1 UNK         0.0600 
    186 H186        4.6884  -10.5560  -48.6806 H         1 UNK         0.0600 
    187 H187        4.1202  -11.5436  -50.0214 H         1 UNK         0.0600 
    188 H188        3.1887  -10.1415  -49.4932 H         1 UNK         0.0600 
    189 H189        1.8300  -12.3742  -49.8334 H         1 UNK         0.3000 
    190 H190       -3.7224  -22.9987  -44.7564 H         1 UNK         0.3000 
    191 H191       -5.3472  -24.3052  -46.6508 H         1 UNK         0.0600 
    192 H192       -5.9468  -24.0572  -44.2688 H         1 UNK         0.0600 
    193 H193       -5.9630  -25.7548  -44.7174 H         1 UNK         0.0600 
    194 H194       -4.6131  -25.1086  -43.7915 H         1 UNK         0.0600 
    195 H195       -2.1867  -25.2296  -45.3377 H         1 UNK         0.3000 
    196 H196       -2.1807  -27.7625  -46.9394 H         1 UNK         0.0600 
    197 H197       -0.2924  -28.3999  -45.4480 H         1 UNK         0.0600 
    198 H198       -1.7482  -28.0780  -44.5184 H         1 UNK         0.0600 
    199 H199       -0.4516  -26.8855  -44.5642 H         1 UNK         0.0600 
    200 H200       -0.2987  -24.8110  -46.1044 H         1 UNK         0.3000 
    201 H201        1.9132  -25.4346  -47.7688 H         1 UNK         0.0600 
    202 H202        2.0387  -24.0041  -45.7369 H         1 UNK         0.0600 
    203 H203        1.0516  -22.7748  -46.5229 H         1 UNK         0.0600 
    204 H204        2.6571  -23.1427  -47.1385 H         1 UNK         0.0600 
    205 H205       -1.0853  -23.7114  -48.5082 H         1 UNK         0.3000 
    206 H206       -0.1055  -23.1068  -51.2619 H         1 UNK         0.0600 
    207 H207       -0.0043  -21.0448  -49.8135 H         1 UNK         0.0600 
    208 H208       -1.1864  -20.9006  -51.1026 H         1 UNK         0.0600 
    209 H209       -1.7233  -21.2254  -49.4620 H         1 UNK         0.0600 
    210 H210       -1.9284  -25.1876  -49.8340 H         1 UNK         0.3000 
    211 H211       -3.8179  -26.3146  -50.1438 H         1 UNK         0.0600 
    212 H212       -3.6787  -25.2351  -53.0096 H         1 UNK         0.0600 
    213 H213       -4.5224  -26.6857  -52.4830 H         1 UNK         0.0600 
    214 H214       -2.7704  -26.6174  -52.3984 H         1 UNK         0.0600 
    215 H215       -4.2122  -23.8257  -48.9556 H         1 UNK         0.3000 
    216 H216       -5.7946  -22.5877  -48.0819 H         1 UNK         0.0600 
    217 H217       -8.1769  -22.9332  -48.3872 H         1 UNK         0.0600 
    218 H218       -7.4063  -24.5095  -48.3250 H         1 UNK         0.0600 
    219 H219       -7.9323  -23.8385  -49.8699 H         1 UNK         0.0600 
    220 H220       -4.3955  -22.0866  -50.8019 H         1 UNK         0.3000 
    221 H221       -3.9263  -20.3531  -52.0208 H         1 UNK         0.0600 
    222 H222       -5.4339  -18.6837  -49.9315 H         1 UNK         0.0600 
    223 H223       -3.7483  -19.1854  -49.8358 H         1 UNK         0.0600 
    224 H224       -4.2532  -18.0769  -51.0895 H         1 UNK         0.0600 
    225 H225       -5.9615  -17.9284  -52.0568 H         1 UNK         0.3000 
    226 H226       -7.3335  -17.0416  -53.5546 H         1 UNK         0.0600 
    227 H227       -9.0564  -18.3824  -52.3761 H         1 UNK         0.0600 
    228 H228       -9.4585  -18.2338  -54.0756 H         1 UNK         0.0600 
    229 H229       -8.7946  -19.7449  -53.4537 H         1 UNK         0.0600 
    230 H230       -8.3907  -19.5756  -55.4996 H         1 UNK         0.3000 
    231 H231       -7.0633  -18.6983  -57.8306 H         1 UNK         0.0600 
    232 H232       -8.5373  -21.3244  -57.2539 H         1 UNK         0.0600 
    233 H233       -8.1478  -20.7077  -58.8550 H         1 UNK         0.0600 
    234 H234       -9.2714  -19.8279  -57.8328 H         1 UNK         0.0600 
    235 H235       -5.8780  -20.8761  -55.3789 H         1 UNK         0.3000 
    236 H236       -4.0864  -22.3973  -57.0562 H         1 UNK         0.0600 
    237 H237       -4.9637  -23.2166  -54.8497 H         1 UNK         0.0600 
    238 H238       -3.2075  -23.2254  -54.9102 H         1 UNK         0.0600 
    239 H239       -4.0409  -21.9584  -54.0294 H         1 UNK         0.0600 
    240 H240       -3.8666  -19.1607  -55.6635 H         1 UNK         0.3000 
    241 H241       -1.1994  -18.8495  -56.7455 H         1 UNK         0.0600 
    242 H242       -4.1868  -17.2535  -55.9755 H         1 UNK         0.3800 
    243 H243       -3.5226  -15.6816  -56.3117 H         1 UNK         0.3800 
    244 H244       -0.0443  -18.2114  -54.6491 H         1 UNK         0.0800 
    245 H245       -0.5095  -19.8788  -54.6705 H         1 UNK         0.0800 
    246 H246       -0.9764  -16.4394  -52.8449 H         1 UNK         0.0800 
    247 H247        0.1995  -17.5935  -52.2550 H         1 UNK         0.0800 
@<TRIPOS>BOND
     1    1    2 1    
     2    1  127 1    
     3    1  128 1    
     4    1  129 1    
     5    2    3 2    
     6    2    4 am   BACKBONE|DICT|INTERRES
     7    4    5 1    
     8    4  130 1    
     9    5    6 1    
    10    5   65 1    
    11    5  131 1    
    12    6    7 1    
    13    6  132 1    
    14    6  133 1    
    15    7    8 1    
    16    8    9 1    
    17    8  134 1    
    18    8  135 1    
    19    9   10 ar   
    20    9   14 ar   
    21   10   11 ar   
    22   10  136 1    
    23   11   12 ar   
    24   11  126 1    
    25   12   13 ar   
    26   12  137 1    
    27   13   14 ar   
    28   13   15 1    
    29   14  138 1    
    30   15   16 1    
    31   15  139 1    
    32   15  140 1    
    33   16   17 1    
    34   17   18 1    
    35   17  141 1    
    36   17  142 1    
    37   18   19 1    
    38   18   67 1    
    39   18  143 1    
    40   19   20 am   BACKBONE|DICT|INTERRES
    41   19  144 1    
    42   20   21 2    
    43   20   22 1    
    44   22   23 1    
    45   22   24 1    
    46   22  145 1    
    47   23  146 1    
    48   23  147 1    
    49   23  148 1    
    50   24   25 am   BACKBONE|DICT|INTERRES
    51   24  149 1    
    52   25   26 2    
    53   25   27 1    
    54   27   28 1    
    55   27   29 1    
    56   27  150 1    
    57   28  151 1    
    58   28  152 1    
    59   28  153 1    
    60   29   30 am   BACKBONE|DICT|INTERRES
    61   29  154 1    
    62   30   31 2    
    63   30   32 1    
    64   32   33 1    
    65   32   34 1    
    66   32  155 1    
    67   33  156 1    
    68   33  157 1    
    69   33  158 1    
    70   34   35 am   BACKBONE|DICT|INTERRES
    71   34  159 1    
    72   35   36 2    
    73   35   37 1    
    74   37   38 1    
    75   37   39 1    
    76   37  160 1    
    77   38  161 1    
    78   38  162 1    
    79   38  163 1    
    80   39   40 am   BACKBONE|DICT|INTERRES
    81   39  164 1    
    82   40   41 2    
    83   40   42 1    
    84   42   43 1    
    85   42   44 1    
    86   42  165 1    
    87   43  166 1    
    88   43  167 1    
    89   43  168 1    
    90   44   45 am   BACKBONE|DICT|INTERRES
    91   44  169 1    
    92   45   46 2    
    93   45   47 1    
    94   47   48 1    
    95   47   49 1    
    96   47  170 1    
    97   48  171 1    
    98   48  172 1    
    99   48  173 1    
   100   49   50 am   BACKBONE|DICT|INTERRES
   101   49  174 1    
   102   50   51 2    
   103   50   52 1    
   104   52   53 1    
   105   52   54 1    
   106   52  175 1    
   107   53  176 1    
   108   53  177 1    
   109   53  178 1    
   110   54   55 am   BACKBONE|DICT|INTERRES
   111   54  179 1    
   112   55   56 2    
   113   55   57 1    
   114   57   58 1    
   115   57   59 1    
   116   57  180 1    
   117   58  181 1    
   118   58  182 1    
   119   58  183 1    
   120   59   60 am   BACKBONE|DICT|INTERRES
   121   59  184 1    
   122   60   61 2    
   123   60   62 1    
   124   62   63 1    
   125   62   64 1    
   126   62  185 1    
   127   63  186 1    
   128   63  187 1    
   129   63  188 1    
   130   64   65 am   BACKBONE|DICT|INTERRES
   131   64  189 1    
   132   65   66 2    
   133   67   68 2    
   134   67   69 am   BACKBONE|DICT|INTERRES
   135   69   70 1    
   136   69  190 1    
   137   70   71 1    
   138   70   72 1    
   139   70  191 1    
   140   71  192 1    
   141   71  193 1    
   142   71  194 1    
   143   72   73 2    
   144   72   74 am   BACKBONE|DICT|INTERRES
   145   74   75 1    
   146   74  195 1    
   147   75   76 1    
   148   75   77 1    
   149   75  196 1    
   150   76  197 1    
   151   76  198 1    
   152   76  199 1    
   153   77   78 2    
   154   77   79 am   BACKBONE|DICT|INTERRES
   155   79   80 1    
   156   79  200 1    
   157   80   81 1    
   158   80   82 1    
   159   80  201 1    
   160   81  202 1    
   161   81  203 1    
   162   81  204 1    
   163   82   83 2    
   164   82   84 am   BACKBONE|DICT|INTERRES
   165   84   85 1    
   166   84  205 1    
   167   85   86 1    
   168   85   87 1    
   169   85  206 1    
   170   86  207 1    
   171   86  208 1    
   172   86  209 1    
   173   87   88 2    
   174   87   89 am   BACKBONE|DICT|INTERRES
   175   89   90 1    
   176   89  210 1    
   177   90   91 1    
   178   90   92 1    
   179   90  211 1    
   180   91  212 1    
   181   91  213 1    
   182   91  214 1    
   183   92   93 2    
   184   92   94 am   BACKBONE|DICT|INTERRES
   185   94   95 1    
   186   94  215 1    
   187   95   96 1    
   188   95   97 1    
   189   95  216 1    
   190   96  217 1    
   191   96  218 1    
   192   96  219 1    
   193   97   98 2    
   194   97   99 am   BACKBONE|DICT|INTERRES
   195   99  100 1    
   196   99  220 1    
   197  100  101 1    
   198  100  102 1    
   199  100  221 1    
   200  101  222 1    
   201  101  223 1    
   202  101  224 1    
   203  102  103 2    
   204  102  104 am   BACKBONE|DICT|INTERRES
   205  104  105 1    
   206  104  225 1    
   207  105  106 1    
   208  105  107 1    
   209  105  226 1    
   210  106  227 1    
   211  106  228 1    
   212  106  229 1    
   213  107  108 2    
   214  107  109 am   BACKBONE|DICT|INTERRES
   215  109  110 1    
   216  109  230 1    
   217  110  111 1    
   218  110  112 1    
   219  110  231 1    
   220  111  232 1    
   221  111  233 1    
   222  111  234 1    
   223  112  113 2    
   224  112  114 am   BACKBONE|DICT|INTERRES
   225  114  115 1    
   226  114  235 1    
   227  115  116 1    
   228  115  117 1    
   229  115  236 1    
   230  116  237 1    
   231  116  238 1    
   232  116  239 1    
   233  117  118 2    
   234  117  119 am   BACKBONE|DICT|INTERRES
   235  119  120 1    
   236  119  240 1    
   237  120  121 1    
   238  120  124 1    
   239  120  241 1    
   240  121  122 am   BACKBONE|DICT|INTERRES
   241  121  123 2    
   242  122  242 1    
   243  122  243 1    
   244  124  125 1    
   245  124  244 1    
   246  124  245 1    
   247  125  126 1    
   248  126  246 1    
   249  126  247 1    
@<TRIPOS>SUBSTRUCTURE
     1 UNK         1 GROUP             0       ****    0 ROOT    
