@<TRIPOS>MOLECULE
3R540
247   249    1
SMALL
USER_CHARGES


@<TRIPOS>ATOM
      1 CA          5.5320  -14.7025  -43.1865 C.3       0 UNK        -0.1800 
      2 C           4.3518  -13.9918  -43.8317 C.2       0 UNK         0.5000 
      3 O           3.2419  -14.0670  -43.3069 O.2       0 UNK        -0.5000 
      4 N           4.5915  -13.3260  -44.9678 N.am      1 UNK        -0.5000 
      5 CA          3.6194  -12.4834  -45.6828 C.3       1 UNK         0.1400 
      6 C6          3.5607  -12.8196  -47.1948 C.3       23 UNK        -0.0398 
      7 S7          2.8487  -14.4671  -47.5052 S.3       23 UNK        -0.2404 
      8 C8          2.7397  -14.4434  -49.3192 C.3       23 UNK        -0.0205 
      9 C9          2.0401  -15.6837  -49.8541 C.ar      23 UNK        -0.0193 
     10 C10         0.6793  -15.6435  -50.1743 C.ar      23 UNK        -0.1150 
     11 C11         0.0281  -16.7710  -50.6865 C.ar      23 UNK        -0.0193 
     12 C12         0.7659  -17.9425  -50.8889 C.ar      23 UNK        -0.1150 
     13 C13         2.1222  -18.0053  -50.5526 C.ar      23 UNK        -0.0193 
     14 C14         2.7545  -16.8706  -50.0378 C.ar      23 UNK        -0.1150 
     15 C15         2.9021  -19.2996  -50.7469 C.3       23 UNK        -0.0205 
     16 S16         2.7910  -20.3959  -49.2933 S.3       23 UNK        -0.2404 
     17 C17         1.0114  -20.7806  -49.3139 C.3       23 UNK        -0.0398 
     18 CA          0.6126  -22.0175  -48.4827 C.3       11 UNK         0.1400 
     19 N           0.7479  -21.7945  -47.0417 N.am      11 UNK        -0.5000 
     20 C           0.5409  -22.7211  -46.0957 C.2       10 UNK         0.5000 
     21 O           0.2834  -23.9018  -46.3359 O.2       10 UNK        -0.5000 
     22 CA          0.5681  -22.2326  -44.6352 C.3       10 UNK         0.1400 
     23 CB          2.0095  -22.0592  -44.1338 C.3       10 UNK        -0.1800 
     24 N          -0.1783  -20.9857  -44.4485 N.am      10 UNK        -0.5000 
     25 C          -1.5024  -20.8676  -44.6274 C.2       9 UNK         0.5000 
     26 O          -2.2362  -21.8085  -44.9282 O.2       9 UNK        -0.5000 
     27 CA         -2.1088  -19.4603  -44.4846 C.3       9 UNK         0.1400 
     28 CB         -2.3326  -19.1101  -43.0062 C.3       9 UNK        -0.1800 
     29 N          -1.2928  -18.4253  -45.1163 N.am      9 UNK        -0.5000 
     30 C          -1.0351  -18.3491  -46.4299 C.2       8 UNK         0.5000 
     31 O          -1.5030  -19.1181  -47.2681 O.2       8 UNK        -0.5000 
     32 CA         -0.0392  -17.2651  -46.8748 C.3       8 UNK         0.1400 
     33 CB         -0.7285  -15.8949  -46.9604 C.3       8 UNK        -0.1800 
     34 N           1.1280  -17.1872  -45.9954 N.am      8 UNK        -0.5000 
     35 C           1.9942  -18.1924  -45.7998 C.2       7 UNK         0.5000 
     36 O           1.9027  -19.2892  -46.3448 O.2       7 UNK        -0.5000 
     37 CA          3.1080  -17.9654  -44.7663 C.3       7 UNK         0.1400 
     38 CB          4.3289  -17.2844  -45.3981 C.3       7 UNK        -0.1800 
     39 N           2.6296  -17.2050  -43.6107 N.am      7 UNK        -0.5000 
     40 C           1.7956  -17.7177  -42.6947 C.2       6 UNK         0.5000 
     41 O           1.3846  -18.8789  -42.7147 O.2       6 UNK        -0.5000 
     42 CA          1.3061  -16.7561  -41.6006 C.3       6 UNK         0.1400 
     43 CB          2.3882  -16.5486  -40.5299 C.3       6 UNK        -0.1800 
     44 N           0.9026  -15.4565  -42.1358 N.am      6 UNK        -0.5000 
     45 C          -0.1420  -15.2469  -42.9484 C.2       5 UNK         0.5000 
     46 O          -0.8603  -16.1529  -43.3697 O.2       5 UNK        -0.5000 
     47 CA         -0.4338  -13.7867  -43.3422 C.3       5 UNK         0.1400 
     48 CB         -1.9312  -13.5304  -43.5927 C.3       5 UNK        -0.1800 
     49 N           0.0452  -12.8725  -42.3035 N.am      5 UNK        -0.5000 
     50 C           0.7877  -11.7841  -42.5243 C.2       4 UNK         0.5000 
     51 O           1.0774  -11.3748  -43.6503 O.2       4 UNK        -0.5000 
     52 CA          1.3096  -11.0584  -41.2663 C.3       4 UNK         0.1400 
     53 CB          2.2984  -11.9492  -40.4930 C.3       4 UNK        -0.1800 
     54 N           1.9939   -9.8138  -41.6049 N.am      4 UNK        -0.5000 
     55 C           1.4160   -8.6819  -42.0186 C.2       3 UNK         0.5000 
     56 O           0.1989   -8.4915  -41.9988 O.2       3 UNK        -0.5000 
     57 CA          2.3478   -7.5859  -42.5785 C.3       3 UNK         0.1400 
     58 CB          2.9081   -6.6956  -41.4524 C.3       3 UNK        -0.1800 
     59 N           3.4157   -8.0905  -43.4590 N.am      3 UNK        -0.5000 
     60 C           4.4813   -8.8423  -43.1493 C.2       2 UNK         0.5000 
     61 O           4.7437   -9.2340  -42.0104 O.2       2 UNK        -0.5000 
     62 CA          5.3584   -9.3014  -44.3255 C.3       2 UNK         0.1400 
     63 CB          6.8541   -9.2816  -43.9669 C.3       2 UNK        -0.1800 
     64 N           4.9793  -10.6598  -44.7057 N.am      2 UNK        -0.5000 
     65 C           3.9213  -10.9806  -45.4655 C.2       1 UNK         0.5000 
     66 O           3.2029  -10.1332  -45.9987 O.2       1 UNK        -0.5000 
     67 C          -0.8195  -22.4493  -48.8537 C.2       11 UNK         0.5000 
     68 O          -0.9817  -23.4469  -49.5531 O.2       11 UNK        -0.5000 
     69 N          -1.8304  -21.7218  -48.3535 N.am      12 UNK        -0.5000 
     70 CA         -3.2465  -22.0229  -48.5594 C.3       12 UNK         0.1400 
     71 CB         -4.1199  -20.9258  -47.9355 C.3       12 UNK        -0.1800 
     72 C          -3.6474  -23.4081  -48.0283 C.2       12 UNK         0.5000 
     73 O          -4.3447  -24.1349  -48.7333 O.2       12 UNK        -0.5000 
     74 N          -3.1715  -23.7697  -46.8289 N.am      13 UNK        -0.5000 
     75 CA         -3.3710  -25.0859  -46.2204 C.3       13 UNK         0.1400 
     76 CB         -2.8111  -25.0892  -44.7903 C.3       13 UNK        -0.1800 
     77 C          -2.7597  -26.2260  -47.0556 C.2       13 UNK         0.5000 
     78 O          -3.4308  -27.2336  -47.2844 O.2       13 UNK        -0.5000 
     79 N          -1.5257  -26.0259  -47.5421 N.am      14 UNK        -0.5000 
     80 CA         -0.8341  -26.9439  -48.4526 C.3       14 UNK         0.1400 
     81 CB          0.6243  -26.4931  -48.6241 C.3       14 UNK        -0.1800 
     82 C          -1.5355  -27.0751  -49.8203 C.2       14 UNK         0.5000 
     83 O          -1.5676  -28.1667  -50.3882 O.2       14 UNK        -0.5000 
     84 N          -2.1290  -25.9732  -50.2945 N.am      15 UNK        -0.5000 
     85 CA         -2.9381  -25.8743  -51.5095 C.3       15 UNK         0.1400 
     86 CB         -2.8244  -24.4414  -52.0589 C.3       15 UNK        -0.1800 
     87 C          -4.4124  -26.2944  -51.3085 C.2       15 UNK         0.5000 
     88 O          -5.2545  -25.9199  -52.1245 O.2       15 UNK        -0.5000 
     89 N          -4.7093  -27.0551  -50.2429 N.am      16 UNK        -0.5000 
     90 CA         -6.0103  -27.6454  -49.9061 C.3       16 UNK         0.1400 
     91 CB         -6.4018  -28.7186  -50.9441 C.3       16 UNK        -0.1800 
     92 C          -7.1114  -26.5879  -49.6848 C.2       16 UNK         0.5000 
     93 O          -8.1815  -26.6639  -50.2909 O.2       16 UNK        -0.5000 
     94 N          -6.8023  -25.6123  -48.8199 N.am      17 UNK        -0.5000 
     95 CA         -7.5918  -24.4179  -48.4988 C.3       17 UNK         0.1400 
     96 CB         -8.9612  -24.7828  -47.8871 C.3       17 UNK        -0.1800 
     97 C          -7.6832  -23.4539  -49.6994 C.2       17 UNK         0.5000 
     98 O          -8.7484  -22.8979  -49.9720 O.2       17 UNK        -0.5000 
     99 N          -6.5405  -23.2824  -50.3812 N.am      18 UNK        -0.5000 
    100 CA        -6.3137  -22.4603  -51.5717 C.3       18 UNK         0.1400 
    101 CB        -6.3521  -20.9609  -51.2101 C.3       18 UNK        -0.1800 
    102 C         -7.2557  -22.8290  -52.7346 C.2       18 UNK         0.5000 
    103 O         -8.0002  -21.9774  -53.2257 O.2       18 UNK        -0.5000 
    104 N         -7.2174  -24.1055  -53.1412 N.am      19 UNK        -0.5000 
    105 CA        -7.9576  -24.6462  -54.2795 C.3       19 UNK         0.1400 
    106 CB        -7.7909  -26.1738  -54.3137 C.3       19 UNK        -0.1800 
    107 C         -7.4802  -23.9926  -55.5897 C.2       19 UNK         0.5000 
    108 O         -6.3437  -24.2202  -56.0073 O.2       19 UNK        -0.5000 
    109 N         -8.3373  -23.1393  -56.1656 N.am      20 UNK        -0.5000 
    110 CA        -8.1164  -22.2336  -57.3021 C.3       20 UNK         0.1400 
    111 CB        -7.6530  -22.9832  -58.5665 C.3       20 UNK        -0.1800 
    112 C         -7.1946  -21.0378  -56.9809 C.2       20 UNK         0.5000 
    113 O         -7.5064  -19.9184  -57.3896 O.2       20 UNK        -0.5000 
    114 N         -6.1046  -21.2722  -56.2436 N.am      21 UNK        -0.5000 
    115 CA        -5.1561  -20.2721  -55.7647 C.3       21 UNK         0.1400 
    116 CB        -4.2137  -19.8485  -56.9077 C.3       21 UNK        -0.1800 
    117 C         -4.3610  -20.8547  -54.5870 C.2       21 UNK         0.5000 
    118 O         -4.3494  -22.0721  -54.3951 O.2       21 UNK        -0.5000 
    119 N         -3.6912  -19.9780  -53.8305 N.am      22 UNK        -0.5000 
    120 CA        -2.7666  -20.3451  -52.7428 C.3       22 UNK         0.1400 
    121 C         -1.3904  -20.9045  -53.2146 C.2       22 UNK         0.5000 
    122 N         -1.0486  -20.8568  -54.4965 N.am      22 UNK        -0.7600 
    123 O         -0.6214  -21.4027  -52.4014 O.2       22 UNK        -0.5000 
    124 C124       -2.6059  -19.1956  -51.7113 C.3       23 UNK        -0.0398 
    125 S125       -2.0234  -17.6216  -52.4428 S.3       23 UNK        -0.2404 
    126 C126       -1.4748  -16.7065  -50.9602 C.3       23 UNK        -0.0205 
    127 H127        5.8897  -14.1284  -42.3320 H         1 UNK         0.0600 
    128 H128        6.3581  -14.8306  -43.8862 H         1 UNK         0.0600 
    129 H129        5.2335  -15.6882  -42.8301 H         1 UNK         0.0600 
    130 H130        5.5186  -13.3522  -45.3689 H         1 UNK         0.3000 
    131 H131        2.6205  -12.6492  -45.2773 H         1 UNK         0.0600 
    132 H132        2.9409  -12.0962  -47.7280 H         1 UNK         0.0800 
    133 H133        4.5536  -12.7674  -47.6443 H         1 UNK         0.0800 
    134 H134        3.7435  -14.3738  -49.7410 H         1 UNK         0.0800 
    135 H135        2.2071  -13.5467  -49.6399 H         1 UNK         0.0800 
    136 H136        0.1229  -14.7310  -50.0116 H         1 UNK         0.1150 
    137 H137        0.2824  -18.8197  -51.2909 H         1 UNK         0.1150 
    138 H138        3.8028  -16.9105  -49.7770 H         1 UNK         0.1150 
    139 H139        2.5410  -19.8268  -51.6316 H         1 UNK         0.0800 
    140 H140        3.9525  -19.0747  -50.9372 H         1 UNK         0.0800 
    141 H141        0.7386  -20.9333  -50.3567 H         1 UNK         0.0800 
    142 H142        0.4614  -19.9038  -48.9707 H         1 UNK         0.0800 
    143 H143        1.2783  -22.8404  -48.7513 H         1 UNK         0.0600 
    144 H144        1.0163  -20.8540  -46.7577 H         1 UNK         0.3000 
    145 H145        0.0896  -22.9990  -44.0219 H         1 UNK         0.0600 
    146 H146        2.0290  -21.7581  -43.0862 H         1 UNK         0.0600 
    147 H147        2.5640  -22.9948  -44.2149 H         1 UNK         0.0600 
    148 H148        2.5512  -21.3076  -44.7072 H         1 UNK         0.0600 
    149 H149        0.3550  -20.1678  -44.1784 H         1 UNK         0.3000 
    150 H150       -3.0808  -19.4654  -44.9813 H         1 UNK         0.0600 
    151 H151       -2.9457  -19.8656  -42.5133 H         1 UNK         0.0600 
    152 H152       -2.8472  -18.1547  -42.9022 H         1 UNK         0.0600 
    153 H153       -1.3907  -19.0421  -42.4608 H         1 UNK         0.0600 
    154 H154       -0.9112  -17.7132  -44.4997 H         1 UNK         0.3000 
    155 H155        0.3198  -17.5323  -47.8702 H         1 UNK         0.0600 
    156 H156       -1.1171  -15.5752  -45.9946 H         1 UNK         0.0600 
    157 H157       -1.5677  -15.9271  -47.6560 H         1 UNK         0.0600 
    158 H158       -0.0446  -15.1258  -47.3166 H         1 UNK         0.0600 
    159 H159        1.2716  -16.3210  -45.5005 H         1 UNK         0.3000 
    160 H160        3.4306  -18.9487  -44.4169 H         1 UNK         0.0600 
    161 H161        5.1745  -17.2775  -44.7112 H         1 UNK         0.0600 
    162 H162        4.1165  -16.2566  -45.6832 H         1 UNK         0.0600 
    163 H163        4.6485  -17.8131  -46.2973 H         1 UNK         0.0600 
    164 H164        2.8874  -16.2283  -43.5428 H         1 UNK         0.3000 
    165 H165        0.4348  -17.2105  -41.1241 H         1 UNK         0.0600 
    166 H166        2.0153  -15.9387  -39.7069 H         1 UNK         0.0600 
    167 H167        2.7086  -17.5022  -40.1082 H         1 UNK         0.0600 
    168 H168        3.2714  -16.0553  -40.9381 H         1 UNK         0.0600 
    169 H169        1.5185  -14.6764  -41.9472 H         1 UNK         0.3000 
    170 H170        0.1055  -13.6175  -44.2767 H         1 UNK         0.0600 
    171 H171       -2.3150  -14.1639  -44.3928 H         1 UNK         0.0600 
    172 H172       -2.5258  -13.7301  -42.7006 H         1 UNK         0.0600 
    173 H173       -2.1075  -12.4962  -43.8886 H         1 UNK         0.0600 
    174 H174       -0.1555  -13.1484  -41.3519 H         1 UNK         0.3000 
    175 H175        0.4581  -10.8276  -40.6231 H         1 UNK         0.0600 
    176 H176        3.1528  -12.2287  -41.1114 H         1 UNK         0.0600 
    177 H177        2.6806  -11.4376  -39.6094 H         1 UNK         0.0600 
    178 H178        1.8260  -12.8701  -40.1500 H         1 UNK         0.0600 
    179 H179        3.0069   -9.8552  -41.6668 H         1 UNK         0.3000 
    180 H180        1.7277   -6.9504  -43.2127 H         1 UNK         0.0600 
    181 H181        3.5137   -7.2613  -40.7442 H         1 UNK         0.0600 
    182 H182        2.0983   -6.2329  -40.8869 H         1 UNK         0.0600 
    183 H183        3.5242   -5.8915  -41.8547 H         1 UNK         0.0600 
    184 H184        3.2600   -7.9094  -44.4418 H         1 UNK         0.3000 
    185 H185        5.2070   -8.6265  -45.1709 H         1 UNK         0.0600 
    186 H186        7.1661   -8.2836  -43.6565 H         1 UNK         0.0600 
    187 H187        7.0876   -9.9672  -43.1513 H         1 UNK         0.0600 
    188 H188        7.4670   -9.5617  -44.8238 H         1 UNK         0.0600 
    189 H189        5.4920  -11.4073  -44.2628 H         1 UNK         0.3000 
    190 H190       -1.6220  -20.8874  -47.8090 H         1 UNK         0.3000 
    191 H191       -3.4262  -22.0199  -49.6358 H         1 UNK         0.0600 
    192 H192       -3.9399  -20.8281  -46.8652 H         1 UNK         0.0600 
    193 H193       -5.1801  -21.1444  -48.0695 H         1 UNK         0.0600 
    194 H194       -3.9257  -19.9577  -48.3975 H         1 UNK         0.0600 
    195 H195       -2.6434  -23.0921  -46.2846 H         1 UNK         0.3000 
    196 H196       -4.4471  -25.2611  -46.1610 H         1 UNK         0.0600 
    197 H197       -2.9591  -26.0593  -44.3142 H         1 UNK         0.0600 
    198 H198       -3.3103  -24.3435  -44.1714 H         1 UNK         0.0600 
    199 H199       -1.7425  -24.8739  -44.7740 H         1 UNK         0.0600 
    200 H200       -1.0320  -25.1750  -47.2907 H         1 UNK         0.3000 
    201 H201       -0.8304  -27.9322  -47.9883 H         1 UNK         0.0600 
    202 H202        1.1424  -26.4627  -47.6654 H         1 UNK         0.0600 
    203 H203        0.6907  -25.5005  -49.0699 H         1 UNK         0.0600 
    204 H204        1.1723  -27.1806  -49.2696 H         1 UNK         0.0600 
    205 H205       -1.9897  -25.1041  -49.7869 H         1 UNK         0.3000 
    206 H206       -2.5226  -26.5491  -52.2601 H         1 UNK         0.0600 
    207 H207       -1.7850  -24.1745  -52.2511 H         1 UNK         0.0600 
    208 H208       -3.3637  -24.3276  -53.0001 H         1 UNK         0.0600 
    209 H209       -3.2267  -23.7133  -51.3561 H         1 UNK         0.0600 
    210 H210       -3.9611  -27.2604  -49.5939 H         1 UNK         0.3000 
    211 H211       -5.8765  -28.1509  -48.9486 H         1 UNK         0.0600 
    212 H212       -6.5838  -28.2858  -51.9284 H         1 UNK         0.0600 
    213 H213       -7.3119  -29.2386  -50.6431 H         1 UNK         0.0600 
    214 H214       -5.6188  -29.4696  -51.0482 H         1 UNK         0.0600 
    215 H215       -5.8529  -25.5945  -48.4659 H         1 UNK         0.3000 
    216 H216       -7.0292  -23.8855  -47.7305 H         1 UNK         0.0600 
    217 H217       -9.4655  -23.8930  -47.5089 H         1 UNK         0.0600 
    218 H218       -8.8483  -25.4717  -47.0500 H         1 UNK         0.0600 
    219 H219       -9.6261  -25.2454  -48.6166 H         1 UNK         0.0600 
    220 H220       -5.7310  -23.7904  -50.0374 H         1 UNK         0.3000 
    221 H221       -5.3051  -22.6877  -51.9156 H         1 UNK         0.0600 
    222 H222       -7.3255  -20.6621  -50.8204 H         1 UNK         0.0600 
    223 H223       -5.6006  -20.7161  -50.4615 H         1 UNK         0.0600 
    224 H224       -6.1472  -20.3420  -52.0840 H         1 UNK         0.0600 
    225 H225       -6.5519  -24.7405  -52.7037 H         1 UNK         0.3000 
    226 H226       -9.0165  -24.4259  -54.1305 H         1 UNK         0.0600 
    227 H227       -8.1527  -26.6294  -53.3914 H         1 UNK         0.0600 
    228 H228       -8.3554  -26.6097  -55.1386 H         1 UNK         0.0600 
    229 H229       -6.7467  -26.4632  -54.4393 H         1 UNK         0.0600 
    230 H230       -9.2184  -22.9933  -55.6919 H         1 UNK         0.3000 
    231 H231       -9.0983  -21.8125  -57.5240 H         1 UNK         0.0600 
    232 H232       -8.3220  -23.8105  -58.8032 H         1 UNK         0.0600 
    233 H233       -6.6448  -23.3840  -58.4612 H         1 UNK         0.0600 
    234 H234       -7.6441  -22.3150  -59.4283 H         1 UNK         0.0600 
    235 H235       -5.9151  -22.2215  -55.9310 H         1 UNK         0.3000 
    236 H236       -5.7101  -19.4035  -55.4028 H         1 UNK         0.0600 
    237 H237       -3.4935  -19.1022  -56.5710 H         1 UNK         0.0600 
    238 H238       -3.6516  -20.6983  -57.2972 H         1 UNK         0.0600 
    239 H239       -4.7661  -19.4066  -57.7370 H         1 UNK         0.0600 
    240 H240       -3.7324  -18.9931  -54.0514 H         1 UNK         0.3000 
    241 H241       -3.2280  -21.1738  -52.2023 H         1 UNK         0.0600 
    242 H242       -0.1574  -21.2302  -54.7817 H         1 UNK         0.3800 
    243 H243       -1.6643  -20.4495  -55.1800 H         1 UNK         0.3800 
    244 H244       -3.5687  -19.0031  -51.2362 H         1 UNK         0.0800 
    245 H245       -1.9392  -19.4967  -50.9010 H         1 UNK         0.0800 
    246 H246       -2.0097  -17.0683  -50.0809 H         1 UNK         0.0800 
    247 H247       -1.7774  -15.6665  -51.0914 H         1 UNK         0.0800 
@<TRIPOS>BOND
     1    1    2 1    
     2    1  127 1    
     3    1  128 1    
     4    1  129 1    
     5    2    3 2    
     6    2    4 am   BACKBONE|DICT|INTERRES
     7    4    5 1    
     8    4  130 1    
     9    5    6 1    
    10    5   65 1    
    11    5  131 1    
    12    6    7 1    
    13    6  132 1    
    14    6  133 1    
    15    7    8 1    
    16    8    9 1    
    17    8  134 1    
    18    8  135 1    
    19    9   10 ar   
    20    9   14 ar   
    21   10   11 ar   
    22   10  136 1    
    23   11   12 ar   
    24   11  126 1    
    25   12   13 ar   
    26   12  137 1    
    27   13   14 ar   
    28   13   15 1    
    29   14  138 1    
    30   15   16 1    
    31   15  139 1    
    32   15  140 1    
    33   16   17 1    
    34   17   18 1    
    35   17  141 1    
    36   17  142 1    
    37   18   19 1    
    38   18   67 1    
    39   18  143 1    
    40   19   20 am   BACKBONE|DICT|INTERRES
    41   19  144 1    
    42   20   21 2    
    43   20   22 1    
    44   22   23 1    
    45   22   24 1    
    46   22  145 1    
    47   23  146 1    
    48   23  147 1    
    49   23  148 1    
    50   24   25 am   BACKBONE|DICT|INTERRES
    51   24  149 1    
    52   25   26 2    
    53   25   27 1    
    54   27   28 1    
    55   27   29 1    
    56   27  150 1    
    57   28  151 1    
    58   28  152 1    
    59   28  153 1    
    60   29   30 am   BACKBONE|DICT|INTERRES
    61   29  154 1    
    62   30   31 2    
    63   30   32 1    
    64   32   33 1    
    65   32   34 1    
    66   32  155 1    
    67   33  156 1    
    68   33  157 1    
    69   33  158 1    
    70   34   35 am   BACKBONE|DICT|INTERRES
    71   34  159 1    
    72   35   36 2    
    73   35   37 1    
    74   37   38 1    
    75   37   39 1    
    76   37  160 1    
    77   38  161 1    
    78   38  162 1    
    79   38  163 1    
    80   39   40 am   BACKBONE|DICT|INTERRES
    81   39  164 1    
    82   40   41 2    
    83   40   42 1    
    84   42   43 1    
    85   42   44 1    
    86   42  165 1    
    87   43  166 1    
    88   43  167 1    
    89   43  168 1    
    90   44   45 am   BACKBONE|DICT|INTERRES
    91   44  169 1    
    92   45   46 2    
    93   45   47 1    
    94   47   48 1    
    95   47   49 1    
    96   47  170 1    
    97   48  171 1    
    98   48  172 1    
    99   48  173 1    
   100   49   50 am   BACKBONE|DICT|INTERRES
   101   49  174 1    
   102   50   51 2    
   103   50   52 1    
   104   52   53 1    
   105   52   54 1    
   106   52  175 1    
   107   53  176 1    
   108   53  177 1    
   109   53  178 1    
   110   54   55 am   BACKBONE|DICT|INTERRES
   111   54  179 1    
   112   55   56 2    
   113   55   57 1    
   114   57   58 1    
   115   57   59 1    
   116   57  180 1    
   117   58  181 1    
   118   58  182 1    
   119   58  183 1    
   120   59   60 am   BACKBONE|DICT|INTERRES
   121   59  184 1    
   122   60   61 2    
   123   60   62 1    
   124   62   63 1    
   125   62   64 1    
   126   62  185 1    
   127   63  186 1    
   128   63  187 1    
   129   63  188 1    
   130   64   65 am   BACKBONE|DICT|INTERRES
   131   64  189 1    
   132   65   66 2    
   133   67   68 2    
   134   67   69 am   BACKBONE|DICT|INTERRES
   135   69   70 1    
   136   69  190 1    
   137   70   71 1    
   138   70   72 1    
   139   70  191 1    
   140   71  192 1    
   141   71  193 1    
   142   71  194 1    
   143   72   73 2    
   144   72   74 am   BACKBONE|DICT|INTERRES
   145   74   75 1    
   146   74  195 1    
   147   75   76 1    
   148   75   77 1    
   149   75  196 1    
   150   76  197 1    
   151   76  198 1    
   152   76  199 1    
   153   77   78 2    
   154   77   79 am   BACKBONE|DICT|INTERRES
   155   79   80 1    
   156   79  200 1    
   157   80   81 1    
   158   80   82 1    
   159   80  201 1    
   160   81  202 1    
   161   81  203 1    
   162   81  204 1    
   163   82   83 2    
   164   82   84 am   BACKBONE|DICT|INTERRES
   165   84   85 1    
   166   84  205 1    
   167   85   86 1    
   168   85   87 1    
   169   85  206 1    
   170   86  207 1    
   171   86  208 1    
   172   86  209 1    
   173   87   88 2    
   174   87   89 am   BACKBONE|DICT|INTERRES
   175   89   90 1    
   176   89  210 1    
   177   90   91 1    
   178   90   92 1    
   179   90  211 1    
   180   91  212 1    
   181   91  213 1    
   182   91  214 1    
   183   92   93 2    
   184   92   94 am   BACKBONE|DICT|INTERRES
   185   94   95 1    
   186   94  215 1    
   187   95   96 1    
   188   95   97 1    
   189   95  216 1    
   190   96  217 1    
   191   96  218 1    
   192   96  219 1    
   193   97   98 2    
   194   97   99 am   BACKBONE|DICT|INTERRES
   195   99  100 1    
   196   99  220 1    
   197  100  101 1    
   198  100  102 1    
   199  100  221 1    
   200  101  222 1    
   201  101  223 1    
   202  101  224 1    
   203  102  103 2    
   204  102  104 am   BACKBONE|DICT|INTERRES
   205  104  105 1    
   206  104  225 1    
   207  105  106 1    
   208  105  107 1    
   209  105  226 1    
   210  106  227 1    
   211  106  228 1    
   212  106  229 1    
   213  107  108 2    
   214  107  109 am   BACKBONE|DICT|INTERRES
   215  109  110 1    
   216  109  230 1    
   217  110  111 1    
   218  110  112 1    
   219  110  231 1    
   220  111  232 1    
   221  111  233 1    
   222  111  234 1    
   223  112  113 2    
   224  112  114 am   BACKBONE|DICT|INTERRES
   225  114  115 1    
   226  114  235 1    
   227  115  116 1    
   228  115  117 1    
   229  115  236 1    
   230  116  237 1    
   231  116  238 1    
   232  116  239 1    
   233  117  118 2    
   234  117  119 am   BACKBONE|DICT|INTERRES
   235  119  120 1    
   236  119  240 1    
   237  120  121 1    
   238  120  124 1    
   239  120  241 1    
   240  121  122 am   BACKBONE|DICT|INTERRES
   241  121  123 2    
   242  122  242 1    
   243  122  243 1    
   244  124  125 1    
   245  124  244 1    
   246  124  245 1    
   247  125  126 1    
   248  126  246 1    
   249  126  247 1    
@<TRIPOS>SUBSTRUCTURE
     1 UNK         1 GROUP             0       ****    0 ROOT    
