@<TRIPOS>MOLECULE
3R540
247   249    1
SMALL
USER_CHARGES


@<TRIPOS>ATOM
      1 CA          5.6516  -10.9051  -51.9158 C.3       0 UNK        -0.1800 
      2 C           5.2872  -12.1082  -51.0569 C.2       0 UNK         0.5000 
      3 O           5.9490  -13.1435  -51.1413 O.2       0 UNK        -0.5000 
      4 N           4.2349  -11.9786  -50.2397 N.am      1 UNK        -0.5000 
      5 CA          3.7810  -13.0001  -49.2904 C.3       1 UNK         0.1400 
      6 C6          2.3003  -12.7718  -48.8838 C.3       23 UNK        -0.0398 
      7 S7          1.4203  -14.3366  -48.5513 S.3       23 UNK        -0.2404 
      8 C8          0.8278  -14.7141  -50.2277 C.3       23 UNK        -0.0205 
      9 C9          0.0504  -16.0182  -50.2736 C.ar      23 UNK        -0.0193 
     10 C10        -1.3458  -16.0051  -50.2379 C.ar      23 UNK        -0.1150 
     11 C11        -2.0709  -17.1940  -50.3565 C.ar      23 UNK        -0.0193 
     12 C12        -1.3854  -18.4086  -50.4672 C.ar      23 UNK        -0.1150 
     13 C13         0.0135  -18.4377  -50.4846 C.ar      23 UNK        -0.0193 
     14 C14         0.7243  -17.2359  -50.3990 C.ar      23 UNK        -0.1150 
     15 C15         0.7460  -19.7663  -50.6411 C.3       23 UNK        -0.0205 
     16 S16         2.0789  -20.0304  -49.4186 S.3       23 UNK        -0.2404 
     17 C17         1.2046  -19.8896  -47.8227 C.3       23 UNK        -0.0398 
     18 CA          0.7257  -21.2521  -47.2637 C.3       11 UNK         0.1400 
     19 N           0.5660  -21.2268  -45.8072 N.am      11 UNK        -0.5000 
     20 C           0.2677  -22.2886  -45.0438 C.2       10 UNK         0.5000 
     21 O           0.1706  -23.4373  -45.4752 O.2       10 UNK        -0.5000 
     22 CA         -0.0301  -22.0133  -43.5580 C.3       10 UNK         0.1400 
     23 CB          1.2688  -21.9122  -42.7455 C.3       10 UNK        -0.1800 
     24 N          -0.8388  -20.8073  -43.3644 N.am      10 UNK        -0.5000 
     25 C          -2.0959  -20.6659  -43.8102 C.2       9 UNK         0.5000 
     26 O          -2.7240  -21.5658  -44.3665 O.2       9 UNK        -0.5000 
     27 CA         -2.7466  -19.2789  -43.6579 C.3       9 UNK         0.1400 
     28 CB         -3.3156  -19.0929  -42.2439 C.3       9 UNK        -0.1800 
     29 N          -1.8252  -18.1862  -43.9708 N.am      9 UNK        -0.5000 
     30 C          -1.2787  -17.9691  -45.1761 C.2       8 UNK         0.5000 
     31 O          -1.5443  -18.6386  -46.1737 O.2       8 UNK        -0.5000 
     32 CA         -0.2076  -16.8649  -45.2661 C.3       8 UNK         0.1400 
     33 CB         -0.8469  -15.4763  -45.4079 C.3       8 UNK        -0.1800 
     34 N           0.6942  -16.8830  -44.1122 N.am      8 UNK        -0.5000 
     35 C           1.5409  -17.8868  -43.8412 C.2       7 UNK         0.5000 
     36 O           1.7002  -18.8592  -44.5775 O.2       7 UNK        -0.5000 
     37 CA          2.2924  -17.8271  -42.5018 C.3       7 UNK         0.1400 
     38 CB          3.5790  -17.0057  -42.6295 C.3       7 UNK        -0.1800 
     39 N           1.4569  -17.2804  -41.4339 N.am      7 UNK        -0.5000 
     40 C           0.4658  -17.9661  -40.8465 C.2       6 UNK         0.5000 
     41 O           0.1778  -19.1266  -41.1375 O.2       6 UNK        -0.5000 
     42 CA         -0.3685  -17.2240  -39.7856 C.3       6 UNK         0.1400 
     43 CB          0.2975  -17.3284  -38.4056 C.3       6 UNK        -0.1800 
     44 N          -0.5851  -15.8144  -40.1111 N.am      6 UNK        -0.5000 
     45 C          -1.2574  -15.3729  -41.1832 C.2       5 UNK         0.5000 
     46 O          -1.8074  -16.1149  -41.9953 O.2       5 UNK        -0.5000 
     47 CA         -1.2840  -13.8508  -41.4133 C.3       5 UNK         0.1400 
     48 CB         -2.5583  -13.2400  -40.8120 C.3       5 UNK        -0.1800 
     49 N          -0.1127  -13.1510  -40.8762 N.am      5 UNK        -0.5000 
     50 C           1.1496  -13.3406  -41.2843 C.2       4 UNK         0.5000 
     51 O           1.4668  -14.1730  -42.1369 O.2       4 UNK        -0.5000 
     52 CA          2.2086  -12.4669  -40.5837 C.3       4 UNK         0.1400 
     53 CB          2.6479  -13.0911  -39.2435 C.3       4 UNK        -0.1800 
     54 N           3.3526  -12.1373  -41.4427 N.am      4 UNK        -0.5000 
     55 C           4.3515  -12.9296  -41.8560 C.2       3 UNK         0.5000 
     56 O           4.5372  -14.0889  -41.4821 O.2       3 UNK        -0.5000 
     57 CA          5.3534  -12.2844  -42.8311 C.3       3 UNK         0.1400 
     58 CB          6.6638  -11.9325  -42.1093 C.3       3 UNK        -0.1800 
     59 N           5.6508  -13.1580  -43.9656 N.am      3 UNK        -0.5000 
     60 C           4.7814  -13.4586  -44.9378 C.2       2 UNK         0.5000 
     61 O           3.6275  -13.0242  -44.9849 O.2       2 UNK        -0.5000 
     62 CA          5.2975  -14.4025  -46.0436 C.3       2 UNK         0.1400 
     63 CB          5.1138  -15.8715  -45.6375 C.3       2 UNK        -0.1800 
     64 N           4.6131  -14.1844  -47.3173 N.am      2 UNK        -0.5000 
     65 C           4.7076  -13.0728  -48.0562 C.2       1 UNK         0.5000 
     66 O           5.4623  -12.1337  -47.7846 O.2       1 UNK        -0.5000 
     67 C          -0.5652  -21.7230  -47.9614 C.2       11 UNK         0.5000 
     68 O          -0.5088  -22.6302  -48.7900 O.2       11 UNK        -0.5000 
     69 N          -1.7080  -21.1331  -47.5817 N.am      12 UNK        -0.5000 
     70 CA         -3.0360  -21.5042  -48.0668 C.3       12 UNK         0.1400 
     71 CB         -4.0870  -20.5393  -47.4996 C.3       12 UNK        -0.1800 
     72 C          -3.4011  -22.9658  -47.7543 C.2       12 UNK         0.5000 
     73 O          -3.8978  -23.6607  -48.6398 O.2       12 UNK        -0.5000 
     74 N          -3.1145  -23.4208  -46.5271 N.am      13 UNK        -0.5000 
     75 CA         -3.3066  -24.8041  -46.0886 C.3       13 UNK         0.1400 
     76 CB         -3.0259  -24.9174  -44.5829 C.3       13 UNK        -0.1800 
     77 C          -2.4526  -25.8057  -46.8878 C.2       13 UNK         0.5000 
     78 O          -2.9817  -26.8197  -47.3452 O.2       13 UNK        -0.5000 
     79 N          -1.1668  -25.4808  -47.0896 N.am      14 UNK        -0.5000 
     80 CA         -0.2296  -26.2528  -47.9120 C.3       14 UNK         0.1400 
     81 CB          1.1841  -25.6717  -47.7594 C.3       14 UNK        -0.1800 
     82 C          -0.6390  -26.3099  -49.3972 C.2       14 UNK         0.5000 
     83 O          -0.4559  -27.3418  -50.0429 O.2       14 UNK        -0.5000 
     84 N          -1.2336  -25.2178  -49.8918 N.am      15 UNK        -0.5000 
     85 CA         -1.8117  -25.0766  -51.2276 C.3       15 UNK         0.1400 
     86 CB         -1.7245  -23.5972  -51.6416 C.3       15 UNK        -0.1800 
     87 C          -3.2523  -25.6282  -51.3409 C.2       15 UNK         0.5000 
     88 O          -3.9472  -25.2852  -52.2972 O.2       15 UNK        -0.5000 
     89 N          -3.6824  -26.4659  -50.3835 N.am      16 UNK        -0.5000 
     90 CA         -4.9579  -27.1908  -50.3412 C.3       16 UNK         0.1400 
     91 CB         -5.0152  -28.2466  -51.4655 C.3       16 UNK        -0.1800 
     92 C          -6.1792  -26.2498  -50.3344 C.2       16 UNK         0.5000 
     93 O          -7.0585  -26.3619  -51.1902 O.2       16 UNK        -0.5000 
     94 N          -6.1819  -25.3224  -49.3674 N.am      17 UNK        -0.5000 
     95 CA         -7.1304  -24.2150  -49.2001 C.3       17 UNK         0.1400 
     96 CB         -8.5753  -24.7171  -48.9932 C.3       17 UNK        -0.1800 
     97 C          -6.9892  -23.1703  -50.3260 C.2       17 UNK         0.5000 
     98 O          -7.9869  -22.6496  -50.8273 O.2       17 UNK        -0.5000 
     99 N          -5.7270  -22.8875  -50.6793 N.am      18 UNK        -0.5000 
    100 CA        -5.2609  -21.9176  -51.6702 C.3       18 UNK         0.1400 
    101 CB        -5.5161  -20.4865  -51.1682 C.3       18 UNK        -0.1800 
    102 C         -5.8162  -22.1620  -53.0866 C.2       18 UNK         0.5000 
    103 O         -6.1879  -21.2034  -53.7735 O.2       18 UNK        -0.5000 
    104 N         -5.8479  -23.4365  -53.4984 N.am      19 UNK        -0.5000 
    105 CA        -6.3450  -23.9107  -54.7884 C.3       19 UNK         0.1400 
    106 CB        -6.2885  -25.4466  -54.8178 C.3       19 UNK        -0.1800 
    107 C         -5.5561  -23.2949  -55.9577 C.2       19 UNK         0.5000 
    108 O         -4.3792  -23.6129  -56.1375 O.2       19 UNK        -0.5000 
    109 N         -6.2162  -22.3824  -56.6851 N.am      20 UNK        -0.5000 
    110 CA        -5.6891  -21.5499  -57.7749 C.3       20 UNK         0.1400 
    111 CB        -5.2159  -22.4181  -58.9600 C.3       20 UNK        -0.1800 
    112 C         -4.6216  -20.5202  -57.3347 C.2       20 UNK         0.5000 
    113 O         -3.9801  -19.9156  -58.1959 O.2       20 UNK        -0.5000 
    114 N         -4.4645  -20.3143  -56.0200 N.am      21 UNK        -0.5000 
    115 CA        -3.5716  -19.3212  -55.4265 C.3       21 UNK         0.1400 
    116 CB        -2.7630  -19.9590  -54.2825 C.3       21 UNK        -0.1800 
    117 C         -4.3870  -18.1174  -54.9341 C.2       21 UNK         0.5000 
    118 O         -4.1166  -16.9931  -55.3584 O.2       21 UNK        -0.5000 
    119 N         -5.3823  -18.3810  -54.0763 N.am      22 UNK        -0.5000 
    120 CA        -6.2971  -17.3780  -53.5003 C.3       22 UNK         0.1400 
    121 C         -7.7882  -17.8189  -53.5409 C.2       22 UNK         0.5000 
    122 N         -8.1203  -19.0743  -53.8235 N.am      22 UNK        -0.7600 
    123 O         -8.6727  -16.9944  -53.3271 O.2       22 UNK        -0.5000 
    124 C124       -5.9015  -16.9212  -52.0637 C.3       23 UNK        -0.0398 
    125 S125       -4.1787  -16.3308  -51.9164 S.3       23 UNK        -0.2404 
    126 C126       -3.5918  -17.1575  -50.4002 C.3       23 UNK        -0.0205 
    127 H127        4.9753  -10.0666  -51.7477 H         1 UNK         0.0600 
    128 H128        5.6077  -11.1705  -52.9720 H         1 UNK         0.0600 
    129 H129        6.6651  -10.5751  -51.6877 H         1 UNK         0.0600 
    130 H130        3.7591  -11.0892  -50.1892 H         1 UNK         0.3000 
    131 H131        3.8540  -13.9603  -49.8066 H         1 UNK         0.0600 
    132 H132        2.2181  -12.1250  -48.0078 H         1 UNK         0.0800 
    133 H133        1.7610  -12.2499  -49.6758 H         1 UNK         0.0800 
    134 H134        0.2024  -13.8942  -50.5846 H         1 UNK         0.0800 
    135 H135        1.6771  -14.7712  -50.9104 H         1 UNK         0.0800 
    136 H136       -1.8730  -15.0649  -50.1561 H         1 UNK         0.1150 
    137 H137       -1.9419  -19.3308  -50.5582 H         1 UNK         0.1150 
    138 H138        1.8046  -17.2475  -50.4340 H         1 UNK         0.1150 
    139 H139        0.0473  -20.6020  -50.5917 H         1 UNK         0.0800 
    140 H140        1.1831  -19.8008  -51.6396 H         1 UNK         0.0800 
    141 H141        0.3911  -19.1668  -47.8915 H         1 UNK         0.0800 
    142 H142        1.9242  -19.4469  -47.1337 H         1 UNK         0.0800 
    143 H143        1.4984  -21.9959  -47.4699 H         1 UNK         0.0600 
    144 H144        0.6888  -20.3258  -45.3547 H         1 UNK         0.3000 
    145 H145       -0.6014  -22.8602  -43.1726 H         1 UNK         0.0600 
    146 H146        1.0605  -21.7727  -41.6846 H         1 UNK         0.0600 
    147 H147        1.8606  -22.8230  -42.8439 H         1 UNK         0.0600 
    148 H148        1.8906  -21.0812  -43.0768 H         1 UNK         0.0600 
    149 H149       -0.4091  -20.0449  -42.8516 H         1 UNK         0.3000 
    150 H150       -3.5769  -19.2228  -44.3644 H         1 UNK         0.0600 
    151 H151       -3.8377  -18.1404  -42.1515 H         1 UNK         0.0600 
    152 H152       -4.0308  -19.8809  -42.0046 H         1 UNK         0.0600 
    153 H153       -2.5326  -19.1194  -41.4865 H         1 UNK         0.0600 
    154 H154       -1.6093  -17.5437  -43.2131 H         1 UNK         0.3000 
    155 H155        0.3888  -17.0518  -46.1620 H         1 UNK         0.0600 
    156 H156       -1.4733  -15.4288  -46.2996 H         1 UNK         0.0600 
    157 H157       -0.0862  -14.7011  -45.5048 H         1 UNK         0.0600 
    158 H158       -1.4739  -15.2278  -44.5518 H         1 UNK         0.0600 
    159 H159        0.6282  -16.1135  -43.4596 H         1 UNK         0.3000 
    160 H160        2.5760  -18.8456  -42.2284 H         1 UNK         0.0600 
    161 H161        3.3799  -15.9986  -42.9977 H         1 UNK         0.0600 
    162 H162        4.2693  -17.4846  -43.3235 H         1 UNK         0.0600 
    163 H163        4.0920  -16.9179  -41.6717 H         1 UNK         0.0600 
    164 H164        1.6019  -16.3084  -41.1948 H         1 UNK         0.3000 
    165 H165       -1.3449  -17.7097  -39.7321 H         1 UNK         0.0600 
    166 H166       -0.3248  -16.8782  -37.6320 H         1 UNK         0.0600 
    167 H167        0.4565  -18.3711  -38.1272 H         1 UNK         0.0600 
    168 H168        1.2685  -16.8318  -38.3877 H         1 UNK         0.0600 
    169 H169       -0.1648  -15.1336  -39.4964 H         1 UNK         0.3000 
    170 H170       -1.3028  -13.6857  -42.4925 H         1 UNK         0.0600 
    171 H171       -3.4500  -13.7251  -41.2117 H         1 UNK         0.0600 
    172 H172       -2.5840  -13.3485  -39.7270 H         1 UNK         0.0600 
    173 H173       -2.6361  -12.1781  -41.0463 H         1 UNK         0.0600 
    174 H174       -0.2966  -12.4590  -40.1637 H         1 UNK         0.3000 
    175 H175        1.7393  -11.5077  -40.3592 H         1 UNK         0.0600 
    176 H176        3.0303  -14.1046  -39.3681 H         1 UNK         0.0600 
    177 H177        3.4244  -12.4946  -38.7645 H         1 UNK         0.0600 
    178 H178        1.8095  -13.1489  -38.5487 H         1 UNK         0.0600 
    179 H179        3.3163  -11.2069  -41.8350 H         1 UNK         0.3000 
    180 H180        4.9237  -11.3599  -43.2234 H         1 UNK         0.0600 
    181 H181        7.1585  -12.8218  -41.7164 H         1 UNK         0.0600 
    182 H182        6.4780  -11.2626  -41.2687 H         1 UNK         0.0600 
    183 H183        7.3608  -11.4276  -42.7785 H         1 UNK         0.0600 
    184 H184        6.5658  -13.5843  -43.9731 H         1 UNK         0.3000 
    185 H185        6.3622  -14.2122  -46.1948 H         1 UNK         0.0600 
    186 H186        5.6442  -16.0861  -44.7093 H         1 UNK         0.0600 
    187 H187        4.0617  -16.1169  -45.4861 H         1 UNK         0.0600 
    188 H188        5.5091  -16.5452  -46.3980 H         1 UNK         0.0600 
    189 H189        3.9276  -14.8785  -47.5782 H         1 UNK         0.3000 
    190 H190       -1.6645  -20.3592  -46.9226 H         1 UNK         0.3000 
    191 H191       -3.0294  -21.3939  -49.1527 H         1 UNK         0.0600 
    192 H192       -3.8988  -19.5167  -47.8280 H         1 UNK         0.0600 
    193 H193       -5.0903  -20.8115  -47.8289 H         1 UNK         0.0600 
    194 H194       -4.0929  -20.5432  -46.4105 H         1 UNK         0.0600 
    195 H195       -2.7574  -22.7676  -45.8343 H         1 UNK         0.3000 
    196 H196       -4.3553  -25.0586  -46.2546 H         1 UNK         0.0600 
    197 H197       -3.1914  -25.9361  -44.2303 H         1 UNK         0.0600 
    198 H198       -3.6835  -24.2635  -44.0099 H         1 UNK         0.0600 
    199 H199       -1.9973  -24.6495  -44.3421 H         1 UNK         0.0600 
    200 H200       -0.7991  -24.6392  -46.6533 H         1 UNK         0.3000 
    201 H201       -0.2198  -27.2766  -47.5327 H         1 UNK         0.0600 
    202 H202        1.5108  -25.6992  -46.7197 H         1 UNK         0.0600 
    203 H203        1.2322  -24.6359  -48.0966 H         1 UNK         0.0600 
    204 H204        1.9071  -26.2422  -48.3436 H         1 UNK         0.0600 
    205 H205       -1.2820  -24.3935  -49.3005 H         1 UNK         0.3000 
    206 H206       -1.2075  -25.6509  -51.9324 H         1 UNK         0.0600 
    207 H207       -0.6882  -23.2596  -51.6648 H         1 UNK         0.0600 
    208 H208       -2.1393  -23.4291  -52.6363 H         1 UNK         0.0600 
    209 H209       -2.2601  -22.9592  -50.9403 H         1 UNK         0.0600 
    210 H210       -3.0665  -26.6358  -49.5986 H         1 UNK         0.3000 
    211 H211       -4.9757  -27.7248  -49.3899 H         1 UNK         0.0600 
    212 H212       -5.0282  -27.7878  -52.4549 H         1 UNK         0.0600 
    213 H213       -5.9128  -28.8599  -51.3787 H         1 UNK         0.0600 
    214 H214       -4.1579  -28.9181  -51.4190 H         1 UNK         0.0600 
    215 H215       -5.3574  -25.2635  -48.7819 H         1 UNK         0.3000 
    216 H216       -6.8333  -23.7053  -48.2823 H         1 UNK         0.0600 
    217 H217       -9.2325  -23.8956  -48.7061 H         1 UNK         0.0600 
    218 H218       -8.6241  -25.4636  -48.2007 H         1 UNK         0.0600 
    219 H219       -8.9898  -25.1596  -49.8991 H         1 UNK         0.0600 
    220 H220       -4.9962  -23.3703  -50.1639 H         1 UNK         0.3000 
    221 H221       -4.1832  -22.0493  -51.7442 H         1 UNK         0.0600 
    222 H222       -6.5758  -20.2296  -51.1938 H         1 UNK         0.0600 
    223 H223       -5.1654  -20.3543  -50.1472 H         1 UNK         0.0600 
    224 H224       -4.9796  -19.7677  -51.7832 H         1 UNK         0.0600 
    225 H225       -5.4245  -24.1434  -52.9036 H         1 UNK         0.3000 
    226 H226       -7.3924  -23.6125  -54.8681 H         1 UNK         0.0600 
    227 H227       -6.8893  -25.8782  -54.0169 H         1 UNK         0.0600 
    228 H228       -6.6743  -25.8340  -55.7614 H         1 UNK         0.0600 
    229 H229       -5.2683  -25.8150  -54.7027 H         1 UNK         0.0600 
    230 H230       -7.1698  -22.1757  -56.4207 H         1 UNK         0.3000 
    231 H231       -6.5355  -20.9584  -58.1268 H         1 UNK         0.0600 
    232 H232       -4.3121  -22.9782  -58.7190 H         1 UNK         0.0600 
    233 H233       -4.9921  -21.8022  -59.8317 H         1 UNK         0.0600 
    234 H234       -5.9842  -23.1313  -59.2586 H         1 UNK         0.0600 
    235 H235       -5.0647  -20.8247  -55.3826 H         1 UNK         0.3000 
    236 H236       -2.8570  -18.9579  -56.1681 H         1 UNK         0.0600 
    237 H237       -2.1312  -20.7660  -54.6538 H         1 UNK         0.0600 
    238 H238       -2.1094  -19.2241  -53.8102 H         1 UNK         0.0600 
    239 H239       -3.4029  -20.3722  -53.5055 H         1 UNK         0.0600 
    240 H240       -5.5693  -19.3436  -53.8251 H         1 UNK         0.3000 
    241 H241       -6.2652  -16.4905  -54.1350 H         1 UNK         0.0600 
    242 H242       -9.0973  -19.3187  -53.8499 H         1 UNK         0.3800 
    243 H243       -7.4284  -19.8052  -53.9479 H         1 UNK         0.3800 
    244 H244       -6.5478  -16.1019  -51.7444 H         1 UNK         0.0800 
    245 H245       -6.0753  -17.7239  -51.3481 H         1 UNK         0.0800 
    246 H246       -3.9906  -18.1693  -50.3462 H         1 UNK         0.0800 
    247 H247       -3.9720  -16.6270  -49.5262 H         1 UNK         0.0800 
@<TRIPOS>BOND
     1    1    2 1    
     2    1  127 1    
     3    1  128 1    
     4    1  129 1    
     5    2    3 2    
     6    2    4 am   BACKBONE|DICT|INTERRES
     7    4    5 1    
     8    4  130 1    
     9    5    6 1    
    10    5   65 1    
    11    5  131 1    
    12    6    7 1    
    13    6  132 1    
    14    6  133 1    
    15    7    8 1    
    16    8    9 1    
    17    8  134 1    
    18    8  135 1    
    19    9   10 ar   
    20    9   14 ar   
    21   10   11 ar   
    22   10  136 1    
    23   11   12 ar   
    24   11  126 1    
    25   12   13 ar   
    26   12  137 1    
    27   13   14 ar   
    28   13   15 1    
    29   14  138 1    
    30   15   16 1    
    31   15  139 1    
    32   15  140 1    
    33   16   17 1    
    34   17   18 1    
    35   17  141 1    
    36   17  142 1    
    37   18   19 1    
    38   18   67 1    
    39   18  143 1    
    40   19   20 am   BACKBONE|DICT|INTERRES
    41   19  144 1    
    42   20   21 2    
    43   20   22 1    
    44   22   23 1    
    45   22   24 1    
    46   22  145 1    
    47   23  146 1    
    48   23  147 1    
    49   23  148 1    
    50   24   25 am   BACKBONE|DICT|INTERRES
    51   24  149 1    
    52   25   26 2    
    53   25   27 1    
    54   27   28 1    
    55   27   29 1    
    56   27  150 1    
    57   28  151 1    
    58   28  152 1    
    59   28  153 1    
    60   29   30 am   BACKBONE|DICT|INTERRES
    61   29  154 1    
    62   30   31 2    
    63   30   32 1    
    64   32   33 1    
    65   32   34 1    
    66   32  155 1    
    67   33  156 1    
    68   33  157 1    
    69   33  158 1    
    70   34   35 am   BACKBONE|DICT|INTERRES
    71   34  159 1    
    72   35   36 2    
    73   35   37 1    
    74   37   38 1    
    75   37   39 1    
    76   37  160 1    
    77   38  161 1    
    78   38  162 1    
    79   38  163 1    
    80   39   40 am   BACKBONE|DICT|INTERRES
    81   39  164 1    
    82   40   41 2    
    83   40   42 1    
    84   42   43 1    
    85   42   44 1    
    86   42  165 1    
    87   43  166 1    
    88   43  167 1    
    89   43  168 1    
    90   44   45 am   BACKBONE|DICT|INTERRES
    91   44  169 1    
    92   45   46 2    
    93   45   47 1    
    94   47   48 1    
    95   47   49 1    
    96   47  170 1    
    97   48  171 1    
    98   48  172 1    
    99   48  173 1    
   100   49   50 am   BACKBONE|DICT|INTERRES
   101   49  174 1    
   102   50   51 2    
   103   50   52 1    
   104   52   53 1    
   105   52   54 1    
   106   52  175 1    
   107   53  176 1    
   108   53  177 1    
   109   53  178 1    
   110   54   55 am   BACKBONE|DICT|INTERRES
   111   54  179 1    
   112   55   56 2    
   113   55   57 1    
   114   57   58 1    
   115   57   59 1    
   116   57  180 1    
   117   58  181 1    
   118   58  182 1    
   119   58  183 1    
   120   59   60 am   BACKBONE|DICT|INTERRES
   121   59  184 1    
   122   60   61 2    
   123   60   62 1    
   124   62   63 1    
   125   62   64 1    
   126   62  185 1    
   127   63  186 1    
   128   63  187 1    
   129   63  188 1    
   130   64   65 am   BACKBONE|DICT|INTERRES
   131   64  189 1    
   132   65   66 2    
   133   67   68 2    
   134   67   69 am   BACKBONE|DICT|INTERRES
   135   69   70 1    
   136   69  190 1    
   137   70   71 1    
   138   70   72 1    
   139   70  191 1    
   140   71  192 1    
   141   71  193 1    
   142   71  194 1    
   143   72   73 2    
   144   72   74 am   BACKBONE|DICT|INTERRES
   145   74   75 1    
   146   74  195 1    
   147   75   76 1    
   148   75   77 1    
   149   75  196 1    
   150   76  197 1    
   151   76  198 1    
   152   76  199 1    
   153   77   78 2    
   154   77   79 am   BACKBONE|DICT|INTERRES
   155   79   80 1    
   156   79  200 1    
   157   80   81 1    
   158   80   82 1    
   159   80  201 1    
   160   81  202 1    
   161   81  203 1    
   162   81  204 1    
   163   82   83 2    
   164   82   84 am   BACKBONE|DICT|INTERRES
   165   84   85 1    
   166   84  205 1    
   167   85   86 1    
   168   85   87 1    
   169   85  206 1    
   170   86  207 1    
   171   86  208 1    
   172   86  209 1    
   173   87   88 2    
   174   87   89 am   BACKBONE|DICT|INTERRES
   175   89   90 1    
   176   89  210 1    
   177   90   91 1    
   178   90   92 1    
   179   90  211 1    
   180   91  212 1    
   181   91  213 1    
   182   91  214 1    
   183   92   93 2    
   184   92   94 am   BACKBONE|DICT|INTERRES
   185   94   95 1    
   186   94  215 1    
   187   95   96 1    
   188   95   97 1    
   189   95  216 1    
   190   96  217 1    
   191   96  218 1    
   192   96  219 1    
   193   97   98 2    
   194   97   99 am   BACKBONE|DICT|INTERRES
   195   99  100 1    
   196   99  220 1    
   197  100  101 1    
   198  100  102 1    
   199  100  221 1    
   200  101  222 1    
   201  101  223 1    
   202  101  224 1    
   203  102  103 2    
   204  102  104 am   BACKBONE|DICT|INTERRES
   205  104  105 1    
   206  104  225 1    
   207  105  106 1    
   208  105  107 1    
   209  105  226 1    
   210  106  227 1    
   211  106  228 1    
   212  106  229 1    
   213  107  108 2    
   214  107  109 am   BACKBONE|DICT|INTERRES
   215  109  110 1    
   216  109  230 1    
   217  110  111 1    
   218  110  112 1    
   219  110  231 1    
   220  111  232 1    
   221  111  233 1    
   222  111  234 1    
   223  112  113 2    
   224  112  114 am   BACKBONE|DICT|INTERRES
   225  114  115 1    
   226  114  235 1    
   227  115  116 1    
   228  115  117 1    
   229  115  236 1    
   230  116  237 1    
   231  116  238 1    
   232  116  239 1    
   233  117  118 2    
   234  117  119 am   BACKBONE|DICT|INTERRES
   235  119  120 1    
   236  119  240 1    
   237  120  121 1    
   238  120  124 1    
   239  120  241 1    
   240  121  122 am   BACKBONE|DICT|INTERRES
   241  121  123 2    
   242  122  242 1    
   243  122  243 1    
   244  124  125 1    
   245  124  244 1    
   246  124  245 1    
   247  125  126 1    
   248  126  246 1    
   249  126  247 1    
@<TRIPOS>SUBSTRUCTURE
     1 UNK         1 GROUP             0       ****    0 ROOT    
