@<TRIPOS>MOLECULE
3R540
247   249    1
SMALL
USER_CHARGES


@<TRIPOS>ATOM
      1 CA         -2.2208  -11.1839  -43.8483 C.3       0 UNK        -0.1800 
      2 C          -1.4267  -11.0367  -45.1367 C.2       0 UNK         0.5000 
      3 O          -0.2951  -11.5137  -45.2126 O.2       0 UNK        -0.5000 
      4 N          -1.9934  -10.3531  -46.1412 N.am      1 UNK        -0.5000 
      5 CA         -1.4643  -10.1966  -47.5111 C.3       1 UNK         0.1400 
      6 C6         -1.3655  -11.5462  -48.2792 C.3       23 UNK        -0.0398 
      7 S7         -2.9150  -12.5073  -48.2735 S.3       23 UNK        -0.2404 
      8 C8         -2.3988  -13.9399  -49.2665 C.3       23 UNK        -0.0205 
      9 C9         -3.5153  -14.9650  -49.3746 C.ar      23 UNK        -0.0193 
     10 C10        -4.5719  -14.7597  -50.2653 C.ar      23 UNK        -0.1150 
     11 C11        -5.6047  -15.6957  -50.3738 C.ar      23 UNK        -0.0193 
     12 C12        -5.5754  -16.8477  -49.5816 C.ar      23 UNK        -0.1150 
     13 C13        -4.5249  -17.0609  -48.6836 C.ar      23 UNK        -0.0193 
     14 C14        -3.4962  -16.1189  -48.5872 C.ar      23 UNK        -0.1150 
     15 C15        -4.4871  -18.3080  -47.8176 C.3       23 UNK        -0.0205 
     16 S16        -5.0204  -17.9389  -46.1109 S.3       23 UNK        -0.2404 
     17 C17        -4.8327  -19.4885  -45.1427 C.3       23 UNK        -0.0398 
     18 CA         -4.1848  -20.7042  -45.8489 C.3       11 UNK         0.1400 
     19 N          -2.7726  -20.4816  -46.1718 N.am      11 UNK        -0.5000 
     20 C          -2.0833  -21.2349  -47.0373 C.2       10 UNK         0.5000 
     21 O          -2.5615  -22.2097  -47.6117 O.2       10 UNK        -0.5000 
     22 CA         -0.6042  -20.8769  -47.2596 C.3       10 UNK         0.1400 
     23 CB         -0.4629  -19.6504  -48.1754 C.3       10 UNK        -0.1800 
     24 N           0.1087  -20.6491  -46.0025 N.am      10 UNK        -0.5000 
     25 C           0.2676  -21.5754  -45.0455 C.2       9 UNK         0.5000 
     26 O          -0.1194  -22.7393  -45.1510 O.2       9 UNK        -0.5000 
     27 CA          0.9248  -21.1171  -43.7314 C.3       9 UNK         0.1400 
     28 CB          2.4534  -21.0815  -43.8731 C.3       9 UNK        -0.1800 
     29 N           0.4383  -19.8135  -43.2764 N.am      9 UNK        -0.5000 
     30 C          -0.8318  -19.5487  -42.9354 C.2       8 UNK         0.5000 
     31 O          -1.7283  -20.3911  -42.9285 O.2       8 UNK        -0.5000 
     32 CA         -1.1745  -18.0834  -42.6082 C.3       8 UNK         0.1400 
     33 CB         -0.7167  -17.7089  -41.1912 C.3       8 UNK        -0.1800 
     34 N          -0.6049  -17.1479  -43.5780 N.am      8 UNK        -0.5000 
     35 C          -0.8957  -17.1468  -44.8868 C.2       7 UNK         0.5000 
     36 O          -1.7112  -17.9061  -45.4070 O.2       7 UNK        -0.5000 
     37 CA         -0.0958  -16.1781  -45.7710 C.3       7 UNK         0.1400 
     38 CB         -0.6973  -14.7663  -45.7182 C.3       7 UNK        -0.1800 
     39 N           1.3201  -16.1536  -45.3940 N.am      7 UNK        -0.5000 
     40 C           2.1635  -17.1741  -45.6160 C.2       6 UNK         0.5000 
     41 O           1.8469  -18.1952  -46.2260 O.2       6 UNK        -0.5000 
     42 CA          3.5781  -17.0701  -45.0149 C.3       6 UNK         0.1400 
     43 CB          4.5471  -16.3645  -45.9720 C.3       6 UNK        -0.1800 
     44 N           3.5916  -16.3963  -43.7169 N.am      6 UNK        -0.5000 
     45 C           3.1092  -16.9457  -42.5934 C.2       5 UNK         0.5000 
     46 O           2.6348  -18.0794  -42.5408 O.2       5 UNK        -0.5000 
     47 CA          3.1133  -16.0736  -41.3246 C.3       5 UNK         0.1400 
     48 CB          4.4291  -16.2520  -40.5535 C.3       5 UNK        -0.1800 
     49 N           2.8983  -14.6504  -41.5883 N.am      5 UNK        -0.5000 
     50 C           1.8244  -14.1280  -42.1953 C.2       4 UNK         0.5000 
     51 O           0.8848  -14.8038  -42.6169 O.2       4 UNK        -0.5000 
     52 CA          1.7977  -12.6007  -42.3868 C.3       4 UNK         0.1400 
     53 CB          2.7478  -11.8325  -41.4415 C.3       4 UNK        -0.1800 
     54 N           2.0435  -12.2112  -43.7764 N.am      4 UNK        -0.5000 
     55 C           3.1148  -12.4796  -44.5401 C.2       3 UNK         0.5000 
     56 O           4.0366  -13.2191  -44.1918 O.2       3 UNK        -0.5000 
     57 CA          3.1866  -11.7856  -45.9154 C.3       3 UNK         0.1400 
     58 CB          2.7604  -12.7406  -47.0403 C.3       3 UNK        -0.1800 
     59 N           2.3241  -10.6046  -45.9703 N.am      3 UNK        -0.5000 
     60 C           2.7260   -9.3370  -46.1374 C.2       2 UNK         0.5000 
     61 O           3.9089   -9.0079  -46.2407 O.2       2 UNK        -0.5000 
     62 CA          1.6216   -8.2509  -46.1860 C.3       2 UNK         0.1400 
     63 CB          1.9726   -7.0845  -47.1334 C.3       2 UNK        -0.1800 
     64 N           0.2842   -8.7889  -46.4746 N.am      2 UNK        -0.5000 
     65 C          -0.1183   -9.4292  -47.5847 C.2       1 UNK         0.5000 
     66 O           0.5456   -9.4704  -48.6214 O.2       1 UNK        -0.5000 
     67 C          -4.3921  -22.0026  -45.0373 C.2       11 UNK         0.5000 
     68 O          -5.4200  -22.6567  -45.2142 O.2       11 UNK        -0.5000 
     69 N          -3.4136  -22.3785  -44.1997 N.am      12 UNK        -0.5000 
     70 CA         -3.3846  -23.6522  -43.4774 C.3       12 UNK         0.1400 
     71 CB         -2.2997  -23.6112  -42.3907 C.3       12 UNK        -0.1800 
     72 C          -3.1780  -24.8580  -44.4143 C.2       12 UNK         0.5000 
     73 O          -3.8270  -25.8874  -44.2241 O.2       12 UNK        -0.5000 
     74 N          -2.3040  -24.7048  -45.4209 N.am      13 UNK        -0.5000 
     75 CA         -2.0926  -25.6813  -46.4938 C.3       13 UNK         0.1400 
     76 CB         -0.8191  -25.3185  -47.2727 C.3       13 UNK        -0.1800 
     77 C          -3.3024  -25.7951  -47.4424 C.2       13 UNK         0.5000 
     78 O          -3.5372  -26.8698  -47.9985 O.2       13 UNK        -0.5000 
     79 N          -4.0387  -24.6863  -47.6063 N.am      14 UNK        -0.5000 
     80 CA         -5.3244  -24.4848  -48.2885 C.3       14 UNK         0.1400 
     81 CB         -6.4305  -25.3247  -47.6245 C.3       14 UNK        -0.1800 
     82 C          -5.3118  -24.7034  -49.8130 C.2       14 UNK         0.5000 
     83 O          -5.9208  -23.9203  -50.5401 O.2       14 UNK        -0.5000 
     84 N          -4.6233  -25.7531  -50.2637 N.am      15 UNK        -0.5000 
     85 CA         -4.4400  -26.1415  -51.6594 C.3       15 UNK         0.1400 
     86 CB         -5.7405  -26.7456  -52.2220 C.3       15 UNK        -0.1800 
     87 C          -3.2635  -27.1173  -51.8456 C.2       15 UNK         0.5000 
     88 O          -2.8583  -27.3344  -52.9873 O.2       15 UNK        -0.5000 
     89 N          -2.7190  -27.6860  -50.7552 N.am      16 UNK        -0.5000 
     90 CA         -1.6960  -28.7397  -50.7761 C.3       16 UNK         0.1400 
     91 CB         -1.4256  -29.1999  -49.3354 C.3       16 UNK        -0.1800 
     92 C          -0.3748  -28.3534  -51.4707 C.2       16 UNK         0.5000 
     93 O           0.2715  -29.2179  -52.0635 O.2       16 UNK        -0.5000 
     94 N          -0.0112  -27.0662  -51.4033 N.am      17 UNK        -0.5000 
     95 CA          1.1789  -26.5011  -52.0461 C.3       17 UNK         0.1400 
     96 CB          1.7883  -25.4433  -51.1095 C.3       17 UNK        -0.1800 
     97 C           0.8799  -25.8963  -53.4348 C.2       17 UNK         0.5000 
     98 O           1.7658  -25.2622  -54.0096 O.2       17 UNK        -0.5000 
     99 N          -0.3587  -26.0496  -53.9325 N.am      18 UNK        -0.5000 
    100 CA        -0.9406  -25.4872  -55.1605 C.3       18 UNK         0.1400 
    101 CB        -0.1674  -25.9156  -56.4227 C.3       18 UNK        -0.1800 
    102 C         -1.1279  -23.9606  -55.0882 C.2       18 UNK         0.5000 
    103 O         -2.2578  -23.4804  -55.1801 O.2       18 UNK        -0.5000 
    104 N         -0.0317  -23.2303  -54.8429 N.am      19 UNK        -0.5000 
    105 CA         0.0040  -21.7840  -54.5969 C.3       19 UNK         0.1400 
    106 CB         1.4685  -21.3233  -54.5633 C.3       19 UNK        -0.1800 
    107 C         -0.7229  -21.3663  -53.3017 C.2       19 UNK         0.5000 
    108 O         -1.0989  -20.2026  -53.1592 O.2       19 UNK        -0.5000 
    109 N         -0.9414  -22.3367  -52.4033 N.am      20 UNK        -0.5000 
    110 CA        -1.7461  -22.2385  -51.1867 C.3       20 UNK         0.1400 
    111 CB        -1.7441  -23.6127  -50.5013 C.3       20 UNK        -0.1800 
    112 C         -3.1906  -21.7569  -51.4298 C.2       20 UNK         0.5000 
    113 O         -3.7397  -21.0344  -50.5975 O.2       20 UNK        -0.5000 
    114 N         -3.7617  -22.1229  -52.5858 N.am      21 UNK        -0.5000 
    115 CA        -5.1064  -21.7476  -53.0193 C.3       21 UNK         0.1400 
    116 CB        -5.6294  -22.8243  -53.9883 C.3       21 UNK        -0.1800 
    117 C         -5.1466  -20.3274  -53.6243 C.2       21 UNK         0.5000 
    118 O         -5.6101  -20.1529  -54.7529 O.2       21 UNK        -0.5000 
    119 N         -4.6712  -19.3349  -52.8589 N.am      22 UNK        -0.5000 
    120 CA        -4.6595  -17.9047  -53.2154 C.3       22 UNK         0.1400 
    121 C         -3.7323  -17.5608  -54.4262 C.2       22 UNK         0.5000 
    122 N         -2.6010  -18.2340  -54.5946 N.am      22 UNK        -0.7600 
    123 O         -4.0224  -16.6771  -55.2282 O.2       22 UNK        -0.5000 
    124 C124       -6.1071  -17.3421  -53.3391 C.3       23 UNK        -0.0398 
    125 S125       -6.2383  -15.5398  -53.0717 S.3       23 UNK        -0.2404 
    126 C126       -6.7597  -15.4408  -51.3302 C.3       23 UNK        -0.0205 
    127 H127       -3.2024  -10.7153  -43.9210 H         1 UNK         0.0600 
    128 H128       -1.6812  -10.7239  -43.0207 H         1 UNK         0.0600 
    129 H129       -2.3628  -12.2401  -43.6190 H         1 UNK         0.0600 
    130 H130       -2.9160   -9.9656  -46.0004 H         1 UNK         0.3000 
    131 H131       -2.1860   -9.5711  -48.0383 H         1 UNK         0.0600 
    132 H132       -1.0948  -11.3706  -49.3219 H         1 UNK         0.0800 
    133 H133       -0.5727  -12.1669  -47.8593 H         1 UNK         0.0800 
    134 H134       -2.1093  -13.6068  -50.2643 H         1 UNK         0.0800 
    135 H135       -1.5113  -14.3909  -48.8196 H         1 UNK         0.0800 
    136 H136       -4.5937  -13.8656  -50.8728 H         1 UNK         0.1150 
    137 H137       -6.3726  -17.5739  -49.6571 H         1 UNK         0.1150 
    138 H138       -2.6868  -16.2844  -47.8897 H         1 UNK         0.1150 
    139 H139       -5.1156  -19.0893  -48.2471 H         1 UNK         0.0800 
    140 H140       -3.4649  -18.6799  -47.8265 H         1 UNK         0.0800 
    141 H141       -5.8359  -19.7506  -44.8014 H         1 UNK         0.0800 
    142 H142       -4.2697  -19.2463  -44.2395 H         1 UNK         0.0800 
    143 H143       -4.7170  -20.8635  -46.7884 H         1 UNK         0.0600 
    144 H144       -2.3296  -19.6640  -45.7581 H         1 UNK         0.3000 
    145 H145       -0.1345  -21.7262  -47.7602 H         1 UNK         0.0600 
    146 H146        0.5771  -19.4916  -48.4607 H         1 UNK         0.0600 
    147 H147       -0.8168  -18.7406  -47.6938 H         1 UNK         0.0600 
    148 H148       -1.0397  -19.7683  -49.0922 H         1 UNK         0.0600 
    149 H149        0.4926  -19.7214  -45.8594 H         1 UNK         0.3000 
    150 H150        0.6734  -21.8503  -42.9625 H         1 UNK         0.0600 
    151 H151        2.8384  -22.0480  -44.2007 H         1 UNK         0.0600 
    152 H152        2.9317  -20.8468  -42.9221 H         1 UNK         0.0600 
    153 H153        2.7729  -20.3358  -44.6016 H         1 UNK         0.0600 
    154 H154        1.1311  -19.0740  -43.2004 H         1 UNK         0.3000 
    155 H155       -2.2606  -17.9790  -42.6518 H         1 UNK         0.0600 
    156 H156       -1.1941  -18.3483  -40.4478 H         1 UNK         0.0600 
    157 H157       -0.9772  -16.6778  -40.9512 H         1 UNK         0.0600 
    158 H158        0.3605  -17.8186  -41.0722 H         1 UNK         0.0600 
    159 H159        0.0475  -16.4539  -43.2248 H         1 UNK         0.3000 
    160 H160       -0.1710  -16.5307  -46.8017 H         1 UNK         0.0600 
    161 H161       -0.5855  -14.3077  -44.7361 H         1 UNK         0.0600 
    162 H162       -1.7635  -14.7860  -45.9483 H         1 UNK         0.0600 
    163 H163       -0.2290  -14.1119  -46.4495 H         1 UNK         0.0600 
    164 H164        1.6241  -15.3839  -44.8152 H         1 UNK         0.3000 
    165 H165        3.9427  -18.0899  -44.8735 H         1 UNK         0.0600 
    166 H166        5.5760  -16.4578  -45.6242 H         1 UNK         0.0600 
    167 H167        4.5009  -16.7972  -46.9723 H         1 UNK         0.0600 
    168 H168        4.3235  -15.3037  -46.0568 H         1 UNK         0.0600 
    169 H169        3.9355  -15.4436  -43.6914 H         1 UNK         0.3000 
    170 H170        2.2961  -16.4158  -40.6872 H         1 UNK         0.0600 
    171 H171        5.2840  -15.8929  -41.1279 H         1 UNK         0.0600 
    172 H172        4.4087  -15.7118  -39.6068 H         1 UNK         0.0600 
    173 H173        4.6067  -17.3033  -40.3223 H         1 UNK         0.0600 
    174 H174        3.6374  -14.0228  -41.3073 H         1 UNK         0.3000 
    175 H175        0.7789  -12.2858  -42.1555 H         1 UNK         0.0600 
    176 H176        3.7984  -12.0336  -41.6537 H         1 UNK         0.0600 
    177 H177        2.5970  -10.7569  -41.5344 H         1 UNK         0.0600 
    178 H178        2.5611  -12.0922  -40.3986 H         1 UNK         0.0600 
    179 H179        1.2736  -11.7161  -44.2160 H         1 UNK         0.3000 
    180 H180        4.2278  -11.5034  -46.0823 H         1 UNK         0.0600 
    181 H181        2.7504  -12.2316  -48.0045 H         1 UNK         0.0600 
    182 H182        1.7642  -13.1446  -46.8688 H         1 UNK         0.0600 
    183 H183        3.4493  -13.5778  -47.1305 H         1 UNK         0.0600 
    184 H184        1.3296  -10.7840  -45.8688 H         1 UNK         0.3000 
    185 H185        1.5655   -7.8429  -45.1760 H         1 UNK         0.0600 
    186 H186        1.1747   -6.3424  -47.1584 H         1 UNK         0.0600 
    187 H187        2.8782   -6.5736  -46.8044 H         1 UNK         0.0600 
    188 H188        2.1466   -7.4261  -48.1539 H         1 UNK         0.0600 
    189 H189       -0.3483   -8.8144  -45.6870 H         1 UNK         0.3000 
    190 H190       -2.6318  -21.7493  -44.0436 H         1 UNK         0.3000 
    191 H191       -4.3495  -23.7794  -42.9823 H         1 UNK         0.0600 
    192 H192       -2.4842  -22.8051  -41.6805 H         1 UNK         0.0600 
    193 H193       -1.3073  -23.4618  -42.8155 H         1 UNK         0.0600 
    194 H194       -2.2779  -24.5437  -41.8256 H         1 UNK         0.0600 
    195 H195       -1.7540  -23.8523  -45.4661 H         1 UNK         0.3000 
    196 H196       -1.9432  -26.6624  -46.0385 H         1 UNK         0.0600 
    197 H197        0.0601  -25.3729  -46.6306 H         1 UNK         0.0600 
    198 H198       -0.8690  -24.3078  -47.6760 H         1 UNK         0.0600 
    199 H199       -0.6555  -26.0006  -48.1076 H         1 UNK         0.0600 
    200 H200       -3.6458  -23.8353  -47.2162 H         1 UNK         0.3000 
    201 H201       -5.5708  -23.4335  -48.1301 H         1 UNK         0.0600 
    202 H202       -6.5024  -25.1043  -46.5591 H         1 UNK         0.0600 
    203 H203       -6.2510  -26.3945  -47.7343 H         1 UNK         0.0600 
    204 H204       -7.4033  -25.1089  -48.0681 H         1 UNK         0.0600 
    205 H205       -4.1872  -26.3327  -49.5522 H         1 UNK         0.3000 
    206 H206       -4.1929  -25.2455  -52.2317 H         1 UNK         0.0600 
    207 H207       -6.0532  -27.6203  -51.6508 H         1 UNK         0.0600 
    208 H208       -6.5574  -26.0244  -52.2040 H         1 UNK         0.0600 
    209 H209       -5.6131  -27.0571  -53.2595 H         1 UNK         0.0600 
    210 H210       -3.0862  -27.4711  -49.8363 H         1 UNK         0.3000 
    211 H211       -2.1135  -29.5844  -51.3280 H         1 UNK         0.0600 
    212 H212       -1.0350  -28.3889  -48.7201 H         1 UNK         0.0600 
    213 H213       -0.6960  -30.0106  -49.3127 H         1 UNK         0.0600 
    214 H214       -2.3353  -29.5697  -48.8618 H         1 UNK         0.0600 
    215 H215       -0.6024  -26.4292  -50.8917 H         1 UNK         0.3000 
    216 H216        1.9262  -27.2837  -52.1918 H         1 UNK         0.0600 
    217 H217        2.7589  -25.1097  -51.4787 H         1 UNK         0.0600 
    218 H218        1.9461  -25.8430  -50.1075 H         1 UNK         0.0600 
    219 H219        1.1555  -24.5610  -51.0257 H         1 UNK         0.0600 
    220 H220       -1.0160  -26.5998  -53.3890 H         1 UNK         0.3000 
    221 H221       -1.9394  -25.9203  -55.2355 H         1 UNK         0.0600 
    222 H222        0.8404  -25.5017  -56.4543 H         1 UNK         0.0600 
    223 H223       -0.0853  -27.0009  -56.4823 H         1 UNK         0.0600 
    224 H224       -0.6826  -25.5791  -57.3231 H         1 UNK         0.0600 
    225 H225        0.8426  -23.7365  -54.7291 H         1 UNK         0.3000 
    226 H226       -0.4984  -21.2865  -55.4288 H         1 UNK         0.0600 
    227 H227        1.9730  -21.5449  -55.5039 H         1 UNK         0.0600 
    228 H228        1.5371  -20.2462  -54.4044 H         1 UNK         0.0600 
    229 H229        2.0243  -21.8109  -53.7612 H         1 UNK         0.0600 
    230 H230       -0.5746  -23.2487  -52.6246 H         1 UNK         0.3000 
    231 H231       -1.2670  -21.5188  -50.5236 H         1 UNK         0.0600 
    232 H232       -2.4788  -23.6562  -49.7001 H         1 UNK         0.0600 
    233 H233       -0.7743  -23.8254  -50.0556 H         1 UNK         0.0600 
    234 H234       -1.9828  -24.4129  -51.2007 H         1 UNK         0.0600 
    235 H235       -3.2139  -22.6487  -53.2546 H         1 UNK         0.3000 
    236 H236       -5.7688  -21.7389  -52.1514 H         1 UNK         0.0600 
    237 H237       -5.0069  -22.9002  -54.8807 H         1 UNK         0.0600 
    238 H238       -5.6551  -23.8037  -53.5118 H         1 UNK         0.0600 
    239 H239       -6.6464  -22.6004  -54.3123 H         1 UNK         0.0600 
    240 H240       -4.2900  -19.5810  -51.9518 H         1 UNK         0.3000 
    241 H241       -4.1942  -17.4108  -52.3619 H         1 UNK         0.0600 
    242 H242       -2.2930  -18.9495  -53.9419 H         1 UNK         0.3800 
    243 H243       -2.0127  -18.0013  -55.3780 H         1 UNK         0.3800 
    244 H244       -6.7615  -17.8357  -52.6196 H         1 UNK         0.0800 
    245 H245       -6.5247  -17.5768  -54.3194 H         1 UNK         0.0800 
    246 H246       -7.1559  -14.4420  -51.1421 H         1 UNK         0.0800 
    247 H247       -7.5845  -16.1315  -51.1484 H         1 UNK         0.0800 
@<TRIPOS>BOND
     1    1    2 1    
     2    1  127 1    
     3    1  128 1    
     4    1  129 1    
     5    2    3 2    
     6    2    4 am   BACKBONE|DICT|INTERRES
     7    4    5 1    
     8    4  130 1    
     9    5    6 1    
    10    5   65 1    
    11    5  131 1    
    12    6    7 1    
    13    6  132 1    
    14    6  133 1    
    15    7    8 1    
    16    8    9 1    
    17    8  134 1    
    18    8  135 1    
    19    9   10 ar   
    20    9   14 ar   
    21   10   11 ar   
    22   10  136 1    
    23   11   12 ar   
    24   11  126 1    
    25   12   13 ar   
    26   12  137 1    
    27   13   14 ar   
    28   13   15 1    
    29   14  138 1    
    30   15   16 1    
    31   15  139 1    
    32   15  140 1    
    33   16   17 1    
    34   17   18 1    
    35   17  141 1    
    36   17  142 1    
    37   18   19 1    
    38   18   67 1    
    39   18  143 1    
    40   19   20 am   BACKBONE|DICT|INTERRES
    41   19  144 1    
    42   20   21 2    
    43   20   22 1    
    44   22   23 1    
    45   22   24 1    
    46   22  145 1    
    47   23  146 1    
    48   23  147 1    
    49   23  148 1    
    50   24   25 am   BACKBONE|DICT|INTERRES
    51   24  149 1    
    52   25   26 2    
    53   25   27 1    
    54   27   28 1    
    55   27   29 1    
    56   27  150 1    
    57   28  151 1    
    58   28  152 1    
    59   28  153 1    
    60   29   30 am   BACKBONE|DICT|INTERRES
    61   29  154 1    
    62   30   31 2    
    63   30   32 1    
    64   32   33 1    
    65   32   34 1    
    66   32  155 1    
    67   33  156 1    
    68   33  157 1    
    69   33  158 1    
    70   34   35 am   BACKBONE|DICT|INTERRES
    71   34  159 1    
    72   35   36 2    
    73   35   37 1    
    74   37   38 1    
    75   37   39 1    
    76   37  160 1    
    77   38  161 1    
    78   38  162 1    
    79   38  163 1    
    80   39   40 am   BACKBONE|DICT|INTERRES
    81   39  164 1    
    82   40   41 2    
    83   40   42 1    
    84   42   43 1    
    85   42   44 1    
    86   42  165 1    
    87   43  166 1    
    88   43  167 1    
    89   43  168 1    
    90   44   45 am   BACKBONE|DICT|INTERRES
    91   44  169 1    
    92   45   46 2    
    93   45   47 1    
    94   47   48 1    
    95   47   49 1    
    96   47  170 1    
    97   48  171 1    
    98   48  172 1    
    99   48  173 1    
   100   49   50 am   BACKBONE|DICT|INTERRES
   101   49  174 1    
   102   50   51 2    
   103   50   52 1    
   104   52   53 1    
   105   52   54 1    
   106   52  175 1    
   107   53  176 1    
   108   53  177 1    
   109   53  178 1    
   110   54   55 am   BACKBONE|DICT|INTERRES
   111   54  179 1    
   112   55   56 2    
   113   55   57 1    
   114   57   58 1    
   115   57   59 1    
   116   57  180 1    
   117   58  181 1    
   118   58  182 1    
   119   58  183 1    
   120   59   60 am   BACKBONE|DICT|INTERRES
   121   59  184 1    
   122   60   61 2    
   123   60   62 1    
   124   62   63 1    
   125   62   64 1    
   126   62  185 1    
   127   63  186 1    
   128   63  187 1    
   129   63  188 1    
   130   64   65 am   BACKBONE|DICT|INTERRES
   131   64  189 1    
   132   65   66 2    
   133   67   68 2    
   134   67   69 am   BACKBONE|DICT|INTERRES
   135   69   70 1    
   136   69  190 1    
   137   70   71 1    
   138   70   72 1    
   139   70  191 1    
   140   71  192 1    
   141   71  193 1    
   142   71  194 1    
   143   72   73 2    
   144   72   74 am   BACKBONE|DICT|INTERRES
   145   74   75 1    
   146   74  195 1    
   147   75   76 1    
   148   75   77 1    
   149   75  196 1    
   150   76  197 1    
   151   76  198 1    
   152   76  199 1    
   153   77   78 2    
   154   77   79 am   BACKBONE|DICT|INTERRES
   155   79   80 1    
   156   79  200 1    
   157   80   81 1    
   158   80   82 1    
   159   80  201 1    
   160   81  202 1    
   161   81  203 1    
   162   81  204 1    
   163   82   83 2    
   164   82   84 am   BACKBONE|DICT|INTERRES
   165   84   85 1    
   166   84  205 1    
   167   85   86 1    
   168   85   87 1    
   169   85  206 1    
   170   86  207 1    
   171   86  208 1    
   172   86  209 1    
   173   87   88 2    
   174   87   89 am   BACKBONE|DICT|INTERRES
   175   89   90 1    
   176   89  210 1    
   177   90   91 1    
   178   90   92 1    
   179   90  211 1    
   180   91  212 1    
   181   91  213 1    
   182   91  214 1    
   183   92   93 2    
   184   92   94 am   BACKBONE|DICT|INTERRES
   185   94   95 1    
   186   94  215 1    
   187   95   96 1    
   188   95   97 1    
   189   95  216 1    
   190   96  217 1    
   191   96  218 1    
   192   96  219 1    
   193   97   98 2    
   194   97   99 am   BACKBONE|DICT|INTERRES
   195   99  100 1    
   196   99  220 1    
   197  100  101 1    
   198  100  102 1    
   199  100  221 1    
   200  101  222 1    
   201  101  223 1    
   202  101  224 1    
   203  102  103 2    
   204  102  104 am   BACKBONE|DICT|INTERRES
   205  104  105 1    
   206  104  225 1    
   207  105  106 1    
   208  105  107 1    
   209  105  226 1    
   210  106  227 1    
   211  106  228 1    
   212  106  229 1    
   213  107  108 2    
   214  107  109 am   BACKBONE|DICT|INTERRES
   215  109  110 1    
   216  109  230 1    
   217  110  111 1    
   218  110  112 1    
   219  110  231 1    
   220  111  232 1    
   221  111  233 1    
   222  111  234 1    
   223  112  113 2    
   224  112  114 am   BACKBONE|DICT|INTERRES
   225  114  115 1    
   226  114  235 1    
   227  115  116 1    
   228  115  117 1    
   229  115  236 1    
   230  116  237 1    
   231  116  238 1    
   232  116  239 1    
   233  117  118 2    
   234  117  119 am   BACKBONE|DICT|INTERRES
   235  119  120 1    
   236  119  240 1    
   237  120  121 1    
   238  120  124 1    
   239  120  241 1    
   240  121  122 am   BACKBONE|DICT|INTERRES
   241  121  123 2    
   242  122  242 1    
   243  122  243 1    
   244  124  125 1    
   245  124  244 1    
   246  124  245 1    
   247  125  126 1    
   248  126  246 1    
   249  126  247 1    
@<TRIPOS>SUBSTRUCTURE
     1 UNK         1 GROUP             0       ****    0 ROOT    
