@<TRIPOS>MOLECULE
3R540
247   249    1
SMALL
USER_CHARGES


@<TRIPOS>ATOM
      1 CA          6.5871  -11.1798  -49.0056 C.3       0 UNK        -0.1800 
      2 C           5.3647  -11.8258  -48.3696 C.2       0 UNK         0.5000 
      3 O           5.2052  -11.7700  -47.1493 O.2       0 UNK        -0.5000 
      4 N           4.4992  -12.4368  -49.1877 N.am      1 UNK        -0.5000 
      5 CA          3.2643  -13.1046  -48.7654 C.3       1 UNK         0.1400 
      6 C6          2.8079  -14.1903  -49.7697 C.3       23 UNK        -0.0398 
      7 S7          3.9831  -15.5811  -49.8456 S.3       23 UNK        -0.2404 
      8 C8          3.1886  -16.6449  -51.0905 C.3       23 UNK        -0.0205 
      9 C9          1.8430  -17.1830  -50.6240 C.ar      23 UNK        -0.0193 
     10 C10         0.6572  -16.6963  -51.1807 C.ar      23 UNK        -0.1150 
     11 C11        -0.5783  -17.2103  -50.7783 C.ar      23 UNK        -0.0193 
     12 C12        -0.6216  -18.2120  -49.8050 C.ar      23 UNK        -0.1150 
     13 C13         0.5535  -18.7107  -49.2382 C.ar      23 UNK        -0.0193 
     14 C14         1.7837  -18.1820  -49.6482 C.ar      23 UNK        -0.1150 
     15 C15         0.4726  -19.7768  -48.1504 C.3       23 UNK        -0.0205 
     16 S16         1.7411  -21.0737  -48.3079 S.3       23 UNK        -0.2404 
     17 C17         0.7975  -22.5004  -48.9510 C.3       23 UNK        -0.0398 
     18 CA          0.3183  -23.4956  -47.8566 C.3       11 UNK         0.1400 
     19 N           1.3034  -23.6537  -46.7806 N.am      11 UNK        -0.5000 
     20 C           1.2802  -24.5679  -45.8064 C.2       10 UNK         0.5000 
     21 O           0.4490  -25.4730  -45.7524 O.2       10 UNK        -0.5000 
     22 CA          2.3044  -24.4039  -44.6664 C.3       10 UNK         0.1400 
     23 CB          3.5083  -25.3281  -44.8990 C.3       10 UNK        -0.1800 
     24 N           2.7855  -23.0306  -44.4517 N.am      10 UNK        -0.5000 
     25 C           2.0231  -21.9631  -44.1681 C.2       9 UNK         0.5000 
     26 O           0.7910  -21.9906  -44.1620 O.2       9 UNK        -0.5000 
     27 CA          2.7763  -20.6481  -43.8783 C.3       9 UNK         0.1400 
     28 CB          3.2308  -19.9703  -45.1785 C.3       9 UNK        -0.1800 
     29 N           1.9896  -19.6872  -43.1030 N.am      9 UNK        -0.5000 
     30 C           1.6354  -19.8480  -41.8212 C.2       8 UNK         0.5000 
     31 O           1.9326  -20.8364  -41.1479 O.2       8 UNK        -0.5000 
     32 CA          0.8533  -18.6989  -41.1617 C.3       8 UNK         0.1400 
     33 CB          1.8252  -17.6455  -40.6076 C.3       8 UNK        -0.1800 
     34 N          -0.0925  -18.0485  -42.0692 N.am      8 UNK        -0.5000 
     35 C          -1.3231  -18.5064  -42.3354 C.2       7 UNK         0.5000 
     36 O          -1.7776  -19.5435  -41.8531 O.2       7 UNK        -0.5000 
     37 CA         -2.2159  -17.6567  -43.2611 C.3       7 UNK         0.1400 
     38 CB         -3.1020  -16.7168  -42.4293 C.3       7 UNK        -0.1800 
     39 N          -1.4381  -16.8567  -44.2061 N.am      7 UNK        -0.5000 
     40 C          -1.1160  -17.2417  -45.4487 C.2       6 UNK         0.5000 
     41 O          -1.5226  -18.2789  -45.9691 O.2       6 UNK        -0.5000 
     42 CA         -0.1792  -16.3206  -46.2565 C.3       6 UNK         0.1400 
     43 CB         -0.9819  -15.4735  -47.2555 C.3       6 UNK        -0.1800 
     44 N           0.6358  -15.4334  -45.4280 N.am      6 UNK        -0.5000 
     45 C           1.5840  -15.8250  -44.5676 C.2       5 UNK         0.5000 
     46 O           1.8908  -17.0005  -44.3686 O.2       5 UNK        -0.5000 
     47 CA          2.2489  -14.7113  -43.7406 C.3       5 UNK         0.1400 
     48 CB          3.3445  -14.0047  -44.5533 C.3       5 UNK        -0.1800 
     49 N           1.2821  -13.7221  -43.2573 N.am      5 UNK        -0.5000 
     50 C           0.3125  -13.9739  -42.3667 C.2       4 UNK         0.5000 
     51 O           0.1212  -15.0802  -41.8653 O.2       4 UNK        -0.5000 
     52 CA         -0.6189  -12.8033  -42.0038 C.3       4 UNK         0.1400 
     53 CB          0.0743  -11.8345  -41.0339 C.3       4 UNK        -0.1800 
     54 N          -1.0722  -12.0700  -43.1853 N.am      4 UNK        -0.5000 
     55 C          -1.9373  -12.5547  -44.0873 C.2       3 UNK         0.5000 
     56 O          -2.4916  -13.6489  -43.9846 O.2       3 UNK        -0.5000 
     57 CA         -2.1977  -11.6866  -45.3360 C.3       3 UNK         0.1400 
     58 CB         -3.3450  -10.6992  -45.0746 C.3       3 UNK        -0.1800 
     59 N          -1.0245  -10.9480  -45.8231 N.am      3 UNK        -0.5000 
     60 C           0.1434  -11.5102  -46.1606 C.2       2 UNK         0.5000 
     61 O           0.3822  -12.7101  -46.0113 O.2       2 UNK        -0.5000 
     62 CA          1.2393  -10.5791  -46.7174 C.3       2 UNK         0.1400 
     63 CB          1.8643   -9.7495  -45.5848 C.3       2 UNK        -0.1800 
     64 N           2.3005  -11.3522  -47.3633 N.am      2 UNK        -0.5000 
     65 C           2.1535  -12.0730  -48.4813 C.2       1 UNK         0.5000 
     66 O           1.1977  -11.9535  -49.2508 O.2       1 UNK        -0.5000 
     67 C          -1.1115  -23.1677  -47.3618 C.2       11 UNK         0.5000 
     68 O          -2.0479  -23.3119  -48.1474 O.2       11 UNK        -0.5000 
     69 N          -1.2722  -22.7607  -46.0934 N.am      12 UNK        -0.5000 
     70 CA         -2.5652  -22.5933  -45.4248 C.3       12 UNK         0.1400 
     71 CB         -2.4640  -21.4278  -44.4345 C.3       12 UNK        -0.1800 
     72 C          -3.0449  -23.8666  -44.6999 C.2       12 UNK         0.5000 
     73 O          -4.1912  -23.8961  -44.2497 O.2       12 UNK        -0.5000 
     74 N          -2.1805  -24.8835  -44.5838 N.am      13 UNK        -0.5000 
     75 CA         -2.5051  -26.1907  -44.0123 C.3       13 UNK         0.1400 
     76 CB         -1.4066  -26.6002  -43.0177 C.3       13 UNK        -0.1800 
     77 C          -2.6536  -27.2404  -45.1249 C.2       13 UNK         0.5000 
     78 O          -3.5914  -28.0376  -45.0911 O.2       13 UNK        -0.5000 
     79 N          -1.7350  -27.2120  -46.1002 N.am      14 UNK        -0.5000 
     80 CA         -1.7016  -28.1097  -47.2558 C.3       14 UNK         0.1400 
     81 CB         -0.2965  -28.0520  -47.8758 C.3       14 UNK        -0.1800 
     82 C          -2.7684  -27.7868  -48.3206 C.2       14 UNK         0.5000 
     83 O          -3.0796  -28.6494  -49.1431 O.2       14 UNK        -0.5000 
     84 N          -3.2999  -26.5609  -48.2984 N.am      15 UNK        -0.5000 
     85 CA         -4.3136  -26.0466  -49.2100 C.3       15 UNK         0.1400 
     86 CB         -3.6350  -25.5504  -50.5010 C.3       15 UNK        -0.1800 
     87 C          -5.0823  -24.9192  -48.5061 C.2       15 UNK         0.5000 
     88 O          -4.7073  -24.5050  -47.4071 O.2       15 UNK        -0.5000 
     89 N          -6.1368  -24.4151  -49.1550 N.am      16 UNK        -0.5000 
     90 CA         -6.9307  -23.2735  -48.6978 C.3       16 UNK         0.1400 
     91 CB         -8.3195  -23.3481  -49.3585 C.3       16 UNK        -0.1800 
     92 C          -6.2035  -21.9449  -48.9945 C.2       16 UNK         0.5000 
     93 O          -6.6415  -21.1895  -49.8626 O.2       16 UNK        -0.5000 
     94 N          -5.0693  -21.7214  -48.3124 N.am      17 UNK        -0.5000 
     95 CA         -4.1288  -20.6042  -48.4894 C.3       17 UNK         0.1400 
     96 CB         -4.7544  -19.2724  -48.0286 C.3       17 UNK        -0.1800 
     97 C          -3.5940  -20.5614  -49.9327 C.2       17 UNK         0.5000 
     98 O          -3.8110  -19.5885  -50.6536 O.2       17 UNK        -0.5000 
     99 N          -2.9747  -21.6792  -50.3368 N.am      18 UNK        -0.5000 
    100 CA        -2.4865  -22.0123  -51.6823 C.3       18 UNK         0.1400 
    101 CB        -1.4421  -20.9902  -52.1685 C.3       18 UNK        -0.1800 
    102 C         -3.5983  -22.2497  -52.7322 C.2       18 UNK         0.5000 
    103 O         -3.2797  -22.6147  -53.8651 O.2       18 UNK        -0.5000 
    104 N         -4.8722  -22.0889  -52.3404 N.am      19 UNK        -0.5000 
    105 CA        -6.0906  -22.3346  -53.1131 C.3       19 UNK         0.1400 
    106 CB        -6.3297  -23.8544  -53.2544 C.3       19 UNK        -0.1800 
    107 C         -6.1059  -21.5599  -54.4469 C.2       19 UNK         0.5000 
    108 O         -6.0425  -20.3290  -54.4306 O.2       19 UNK        -0.5000 
    109 N         -6.1742  -22.2805  -55.5743 N.am      20 UNK        -0.5000 
    110 CA        -6.2646  -21.7509  -56.9382 C.3       20 UNK         0.1400 
    111 CB        -6.4361  -22.9277  -57.9114 C.3       20 UNK        -0.1800 
    112 C         -5.0852  -20.8579  -57.3758 C.2       20 UNK         0.5000 
    113 O         -5.2374  -20.0952  -58.3309 O.2       20 UNK        -0.5000 
    114 N         -3.9439  -20.9480  -56.6780 N.am      21 UNK        -0.5000 
    115 CA        -2.7830  -20.0836  -56.8907 C.3       21 UNK         0.1400 
    116 CB        -1.5659  -20.6908  -56.1796 C.3       21 UNK        -0.1800 
    117 C         -3.0098  -18.6322  -56.4199 C.2       21 UNK         0.5000 
    118 O         -2.3645  -17.7293  -56.9553 O.2       21 UNK        -0.5000 
    119 N         -3.9062  -18.4329  -55.4433 N.am      22 UNK        -0.5000 
    120 CA        -4.2392  -17.1211  -54.8604 C.3       22 UNK         0.1400 
    121 C         -5.7354  -16.7418  -55.0323 C.2       22 UNK         0.5000 
    122 N         -6.6597  -17.6877  -55.1436 N.am      22 UNK        -0.7600 
    123 O         -6.0650  -15.5598  -55.0813 O.2       22 UNK        -0.5000 
    124 C124       -3.8294  -17.0279  -53.3688 C.3       23 UNK        -0.0398 
    125 S125       -2.0364  -17.2412  -53.1187 S.3       23 UNK        -0.2404 
    126 C126       -1.8656  -16.6872  -51.3954 C.3       23 UNK        -0.0205 
    127 H127        7.4976  -11.6207  -48.5999 H         1 UNK         0.0600 
    128 H128        6.5999  -10.1110  -48.7921 H         1 UNK         0.0600 
    129 H129        6.5985  -11.3112  -50.0878 H         1 UNK         0.0600 
    130 H130        4.6776  -12.4402  -50.1818 H         1 UNK         0.3000 
    131 H131        3.4573  -13.6161  -47.8197 H         1 UNK         0.0600 
    132 H132        1.8381  -14.5932  -49.4715 H         1 UNK         0.0800 
    133 H133        2.6777  -13.7707  -50.7686 H         1 UNK         0.0800 
    134 H134        3.0820  -16.0896  -52.0237 H         1 UNK         0.0800 
    135 H135        3.8507  -17.4835  -51.3102 H         1 UNK         0.0800 
    136 H136        0.6921  -15.9252  -51.9375 H         1 UNK         0.1150 
    137 H137       -1.5761  -18.5982  -49.4816 H         1 UNK         0.1150 
    138 H138        2.7015  -18.5456  -49.2082 H         1 UNK         0.1150 
    139 H139        0.6090  -19.2897  -47.1868 H         1 UNK         0.0800 
    140 H140       -0.5199  -20.2284  -48.1189 H         1 UNK         0.0800 
    141 H141       -0.0219  -22.1545  -49.5825 H         1 UNK         0.0800 
    142 H142        1.4693  -23.0298  -49.6278 H         1 UNK         0.0800 
    143 H143        0.2282  -24.4729  -48.3354 H         1 UNK         0.0600 
    144 H144        2.0071  -22.9300  -46.7373 H         1 UNK         0.3000 
    145 H145        1.8064  -24.7187  -43.7472 H         1 UNK         0.0600 
    146 H146        4.1889  -25.3129  -44.0475 H         1 UNK         0.0600 
    147 H147        3.1876  -26.3618  -45.0370 H         1 UNK         0.0600 
    148 H148        4.0720  -25.0380  -45.7865 H         1 UNK         0.0600 
    149 H149        3.7886  -22.9134  -44.4593 H         1 UNK         0.3000 
    150 H150        3.6654  -20.8974  -43.2955 H         1 UNK         0.0600 
    151 H151        3.7841  -20.6575  -45.8195 H         1 UNK         0.0600 
    152 H152        3.8851  -19.1235  -44.9703 H         1 UNK         0.0600 
    153 H153        2.3817  -19.5949  -45.7473 H         1 UNK         0.0600 
    154 H154        1.7320  -18.8265  -43.5756 H         1 UNK         0.3000 
    155 H155        0.3005  -19.1166  -40.3175 H         1 UNK         0.0600 
    156 H156        2.5389  -18.0958  -39.9165 H         1 UNK         0.0600 
    157 H157        1.2925  -16.8667  -40.0618 H         1 UNK         0.0600 
    158 H158        2.3954  -17.1666  -41.4041 H         1 UNK         0.0600 
    159 H159        0.1889  -17.1542  -42.4500 H         1 UNK         0.3000 
    160 H160       -2.8720  -18.3383  -43.8064 H         1 UNK         0.0600 
    161 H161       -2.5080  -16.0044  -41.8555 H         1 UNK         0.0600 
    162 H162       -3.7148  -17.2789  -41.7235 H         1 UNK         0.0600 
    163 H163       -3.7787  -16.1480  -43.0673 H         1 UNK         0.0600 
    164 H164       -1.0914  -15.9687  -43.8701 H         1 UNK         0.3000 
    165 H165        0.5027  -16.9571  -46.8221 H         1 UNK         0.0600 
    166 H166       -0.3214  -14.8913  -47.8986 H         1 UNK         0.0600 
    167 H167       -1.5928  -16.1036  -47.9030 H         1 UNK         0.0600 
    168 H168       -1.6502  -14.7798  -46.7442 H         1 UNK         0.0600 
    169 H169        0.4708  -14.4339  -45.5417 H         1 UNK         0.3000 
    170 H170        2.7182  -15.1769  -42.8718 H         1 UNK         0.0600 
    171 H171        4.0814  -14.7198  -44.9212 H         1 UNK         0.0600 
    172 H172        2.9335  -13.4845  -45.4178 H         1 UNK         0.0600 
    173 H173        3.8771  -13.2731  -43.9457 H         1 UNK         0.0600 
    174 H174        1.3248  -12.8066  -43.6785 H         1 UNK         0.3000 
    175 H175       -1.4944  -13.2184  -41.4996 H         1 UNK         0.0600 
    176 H176        0.9450  -11.3593  -41.4875 H         1 UNK         0.0600 
    177 H177       -0.6069  -11.0472  -40.7107 H         1 UNK         0.0600 
    178 H178        0.4141  -12.3566  -40.1385 H         1 UNK         0.0600 
    179 H179       -0.6654  -11.1612  -43.3490 H         1 UNK         0.3000 
    180 H180       -2.5080  -12.3616  -46.1361 H         1 UNK         0.0600 
    181 H181       -3.0792   -9.9660  -44.3122 H         1 UNK         0.0600 
    182 H182       -4.2392  -11.2211  -44.7308 H         1 UNK         0.0600 
    183 H183       -3.6156  -10.1587  -45.9818 H         1 UNK         0.0600 
    184 H184       -1.1447   -9.9541  -45.9550 H         1 UNK         0.3000 
    185 H185        0.7916   -9.9093  -47.4542 H         1 UNK         0.0600 
    186 H186        1.1182   -9.1231  -45.0945 H         1 UNK         0.0600 
    187 H187        2.3140  -10.3853  -44.8209 H         1 UNK         0.0600 
    188 H188        2.6410   -9.0863  -45.9662 H         1 UNK         0.0600 
    189 H189        3.1565  -11.4808  -46.8363 H         1 UNK         0.3000 
    190 H190       -0.4534  -22.6018  -45.5111 H         1 UNK         0.3000 
    191 H191       -3.3292  -22.3427  -46.1591 H         1 UNK         0.0600 
    192 H192       -1.7944  -21.6626  -43.6067 H         1 UNK         0.0600 
    193 H193       -3.4382  -21.1850  -44.0088 H         1 UNK         0.0600 
    194 H194       -2.0882  -20.5309  -44.9217 H         1 UNK         0.0600 
    195 H195       -1.2586  -24.7915  -44.9933 H         1 UNK         0.3000 
    196 H196       -3.4497  -26.1489  -43.4661 H         1 UNK         0.0600 
    197 H197       -1.6335  -27.5656  -42.5639 H         1 UNK         0.0600 
    198 H198       -1.3192  -25.8736  -42.2098 H         1 UNK         0.0600 
    199 H199       -0.4309  -26.6850  -43.4968 H         1 UNK         0.0600 
    200 H200       -0.9611  -26.5555  -46.0230 H         1 UNK         0.3000 
    201 H201       -1.8813  -29.1288  -46.9071 H         1 UNK         0.0600 
    202 H202        0.4668  -28.3333  -47.1501 H         1 UNK         0.0600 
    203 H203       -0.0593  -27.0513  -48.2391 H         1 UNK         0.0600 
    204 H204       -0.2113  -28.7377  -48.7198 H         1 UNK         0.0600 
    205 H205       -3.0466  -25.9182  -47.5583 H         1 UNK         0.3000 
    206 H206       -5.0269  -26.8383  -49.4481 H         1 UNK         0.0600 
    207 H207       -3.1316  -26.3661  -51.0200 H         1 UNK         0.0600 
    208 H208       -4.3554  -25.1241  -51.1986 H         1 UNK         0.0600 
    209 H209       -2.8894  -24.7857  -50.2866 H         1 UNK         0.0600 
    210 H210       -6.3865  -24.7986  -50.0543 H         1 UNK         0.3000 
    211 H211       -7.0722  -23.3396  -47.6168 H         1 UNK         0.0600 
    212 H212       -8.2539  -23.3108  -50.4467 H         1 UNK         0.0600 
    213 H213       -8.9492  -22.5171  -49.0382 H         1 UNK         0.0600 
    214 H214       -8.8358  -24.2686  -49.0858 H         1 UNK         0.0600 
    215 H215       -4.7609  -22.4682  -47.6978 H         1 UNK         0.3000 
    216 H216       -3.2677  -20.7936  -47.8485 H         1 UNK         0.0600 
    217 H217       -4.0270  -18.4618  -48.0910 H         1 UNK         0.0600 
    218 H218       -5.0839  -19.3320  -46.9914 H         1 UNK         0.0600 
    219 H219       -5.6126  -18.9900  -48.6389 H         1 UNK         0.0600 
    220 H220       -2.8384  -22.4068  -49.6387 H         1 UNK         0.3000 
    221 H221       -1.9709  -22.9669  -51.5733 H         1 UNK         0.0600 
    222 H222       -1.9106  -20.0572  -52.4779 H         1 UNK         0.0600 
    223 H223       -0.7130  -20.7564  -51.3936 H         1 UNK         0.0600 
    224 H224       -0.8885  -21.3787  -53.0230 H         1 UNK         0.0600 
    225 H225       -5.0293  -21.6958  -51.4217 H         1 UNK         0.3000 
    226 H226       -6.9143  -21.9271  -52.5257 H         1 UNK         0.0600 
    227 H227       -6.4156  -24.3238  -52.2753 H         1 UNK         0.0600 
    228 H228       -7.2604  -24.0628  -53.7837 H         1 UNK         0.0600 
    229 H229       -5.5188  -24.3520  -53.7878 H         1 UNK         0.0600 
    230 H230       -6.1858  -23.2864  -55.4893 H         1 UNK         0.3000 
    231 H231       -7.1640  -21.1339  -56.9874 H         1 UNK         0.0600 
    232 H232       -6.5434  -22.5756  -58.9383 H         1 UNK         0.0600 
    233 H233       -7.3274  -23.5094  -57.6757 H         1 UNK         0.0600 
    234 H234       -5.5774  -23.5997  -57.8829 H         1 UNK         0.0600 
    235 H235       -3.8945  -21.5965  -55.9018 H         1 UNK         0.3000 
    236 H236       -2.5697  -20.0557  -57.9614 H         1 UNK         0.0600 
    237 H237       -1.3762  -21.7108  -56.5141 H         1 UNK         0.0600 
    238 H238       -0.6659  -20.1078  -56.3783 H         1 UNK         0.0600 
    239 H239       -1.7104  -20.7107  -55.1004 H         1 UNK         0.0600 
    240 H240       -4.4244  -19.2241  -55.0807 H         1 UNK         0.3000 
    241 H241       -3.6883  -16.3410  -55.3889 H         1 UNK         0.0600 
    242 H242       -7.6230  -17.4194  -55.2649 H         1 UNK         0.3800 
    243 H243       -6.4290  -18.6684  -55.0009 H         1 UNK         0.3800 
    244 H244       -4.1154  -16.0593  -52.9545 H         1 UNK         0.0800 
    245 H245       -4.3526  -17.7849  -52.7812 H         1 UNK         0.0800 
    246 H246       -1.8774  -15.5971  -51.3591 H         1 UNK         0.0800 
    247 H247       -2.7265  -17.0281  -50.8178 H         1 UNK         0.0800 
@<TRIPOS>BOND
     1    1    2 1    
     2    1  127 1    
     3    1  128 1    
     4    1  129 1    
     5    2    3 2    
     6    2    4 am   BACKBONE|DICT|INTERRES
     7    4    5 1    
     8    4  130 1    
     9    5    6 1    
    10    5   65 1    
    11    5  131 1    
    12    6    7 1    
    13    6  132 1    
    14    6  133 1    
    15    7    8 1    
    16    8    9 1    
    17    8  134 1    
    18    8  135 1    
    19    9   10 ar   
    20    9   14 ar   
    21   10   11 ar   
    22   10  136 1    
    23   11   12 ar   
    24   11  126 1    
    25   12   13 ar   
    26   12  137 1    
    27   13   14 ar   
    28   13   15 1    
    29   14  138 1    
    30   15   16 1    
    31   15  139 1    
    32   15  140 1    
    33   16   17 1    
    34   17   18 1    
    35   17  141 1    
    36   17  142 1    
    37   18   19 1    
    38   18   67 1    
    39   18  143 1    
    40   19   20 am   BACKBONE|DICT|INTERRES
    41   19  144 1    
    42   20   21 2    
    43   20   22 1    
    44   22   23 1    
    45   22   24 1    
    46   22  145 1    
    47   23  146 1    
    48   23  147 1    
    49   23  148 1    
    50   24   25 am   BACKBONE|DICT|INTERRES
    51   24  149 1    
    52   25   26 2    
    53   25   27 1    
    54   27   28 1    
    55   27   29 1    
    56   27  150 1    
    57   28  151 1    
    58   28  152 1    
    59   28  153 1    
    60   29   30 am   BACKBONE|DICT|INTERRES
    61   29  154 1    
    62   30   31 2    
    63   30   32 1    
    64   32   33 1    
    65   32   34 1    
    66   32  155 1    
    67   33  156 1    
    68   33  157 1    
    69   33  158 1    
    70   34   35 am   BACKBONE|DICT|INTERRES
    71   34  159 1    
    72   35   36 2    
    73   35   37 1    
    74   37   38 1    
    75   37   39 1    
    76   37  160 1    
    77   38  161 1    
    78   38  162 1    
    79   38  163 1    
    80   39   40 am   BACKBONE|DICT|INTERRES
    81   39  164 1    
    82   40   41 2    
    83   40   42 1    
    84   42   43 1    
    85   42   44 1    
    86   42  165 1    
    87   43  166 1    
    88   43  167 1    
    89   43  168 1    
    90   44   45 am   BACKBONE|DICT|INTERRES
    91   44  169 1    
    92   45   46 2    
    93   45   47 1    
    94   47   48 1    
    95   47   49 1    
    96   47  170 1    
    97   48  171 1    
    98   48  172 1    
    99   48  173 1    
   100   49   50 am   BACKBONE|DICT|INTERRES
   101   49  174 1    
   102   50   51 2    
   103   50   52 1    
   104   52   53 1    
   105   52   54 1    
   106   52  175 1    
   107   53  176 1    
   108   53  177 1    
   109   53  178 1    
   110   54   55 am   BACKBONE|DICT|INTERRES
   111   54  179 1    
   112   55   56 2    
   113   55   57 1    
   114   57   58 1    
   115   57   59 1    
   116   57  180 1    
   117   58  181 1    
   118   58  182 1    
   119   58  183 1    
   120   59   60 am   BACKBONE|DICT|INTERRES
   121   59  184 1    
   122   60   61 2    
   123   60   62 1    
   124   62   63 1    
   125   62   64 1    
   126   62  185 1    
   127   63  186 1    
   128   63  187 1    
   129   63  188 1    
   130   64   65 am   BACKBONE|DICT|INTERRES
   131   64  189 1    
   132   65   66 2    
   133   67   68 2    
   134   67   69 am   BACKBONE|DICT|INTERRES
   135   69   70 1    
   136   69  190 1    
   137   70   71 1    
   138   70   72 1    
   139   70  191 1    
   140   71  192 1    
   141   71  193 1    
   142   71  194 1    
   143   72   73 2    
   144   72   74 am   BACKBONE|DICT|INTERRES
   145   74   75 1    
   146   74  195 1    
   147   75   76 1    
   148   75   77 1    
   149   75  196 1    
   150   76  197 1    
   151   76  198 1    
   152   76  199 1    
   153   77   78 2    
   154   77   79 am   BACKBONE|DICT|INTERRES
   155   79   80 1    
   156   79  200 1    
   157   80   81 1    
   158   80   82 1    
   159   80  201 1    
   160   81  202 1    
   161   81  203 1    
   162   81  204 1    
   163   82   83 2    
   164   82   84 am   BACKBONE|DICT|INTERRES
   165   84   85 1    
   166   84  205 1    
   167   85   86 1    
   168   85   87 1    
   169   85  206 1    
   170   86  207 1    
   171   86  208 1    
   172   86  209 1    
   173   87   88 2    
   174   87   89 am   BACKBONE|DICT|INTERRES
   175   89   90 1    
   176   89  210 1    
   177   90   91 1    
   178   90   92 1    
   179   90  211 1    
   180   91  212 1    
   181   91  213 1    
   182   91  214 1    
   183   92   93 2    
   184   92   94 am   BACKBONE|DICT|INTERRES
   185   94   95 1    
   186   94  215 1    
   187   95   96 1    
   188   95   97 1    
   189   95  216 1    
   190   96  217 1    
   191   96  218 1    
   192   96  219 1    
   193   97   98 2    
   194   97   99 am   BACKBONE|DICT|INTERRES
   195   99  100 1    
   196   99  220 1    
   197  100  101 1    
   198  100  102 1    
   199  100  221 1    
   200  101  222 1    
   201  101  223 1    
   202  101  224 1    
   203  102  103 2    
   204  102  104 am   BACKBONE|DICT|INTERRES
   205  104  105 1    
   206  104  225 1    
   207  105  106 1    
   208  105  107 1    
   209  105  226 1    
   210  106  227 1    
   211  106  228 1    
   212  106  229 1    
   213  107  108 2    
   214  107  109 am   BACKBONE|DICT|INTERRES
   215  109  110 1    
   216  109  230 1    
   217  110  111 1    
   218  110  112 1    
   219  110  231 1    
   220  111  232 1    
   221  111  233 1    
   222  111  234 1    
   223  112  113 2    
   224  112  114 am   BACKBONE|DICT|INTERRES
   225  114  115 1    
   226  114  235 1    
   227  115  116 1    
   228  115  117 1    
   229  115  236 1    
   230  116  237 1    
   231  116  238 1    
   232  116  239 1    
   233  117  118 2    
   234  117  119 am   BACKBONE|DICT|INTERRES
   235  119  120 1    
   236  119  240 1    
   237  120  121 1    
   238  120  124 1    
   239  120  241 1    
   240  121  122 am   BACKBONE|DICT|INTERRES
   241  121  123 2    
   242  122  242 1    
   243  122  243 1    
   244  124  125 1    
   245  124  244 1    
   246  124  245 1    
   247  125  126 1    
   248  126  246 1    
   249  126  247 1    
@<TRIPOS>SUBSTRUCTURE
     1 UNK         1 GROUP             0       ****    0 ROOT    
