@<TRIPOS>MOLECULE
3R540
247   249    1
SMALL
USER_CHARGES


@<TRIPOS>ATOM
      1 CA          0.4019  -16.5273  -46.2734 C.3       0 UNK        -0.1800 
      2 C           1.6109  -15.6893  -46.6308 C.2       0 UNK         0.5000 
      3 O           1.9813  -14.7924  -45.8750 O.2       0 UNK        -0.5000 
      4 N           2.2325  -15.9968  -47.7748 N.am      1 UNK        -0.5000 
      5 CA          3.3439  -15.2722  -48.4107 C.3       1 UNK         0.1400 
      6 C6          3.7555  -15.9297  -49.7506 C.3       23 UNK        -0.0398 
      7 S7          2.3909  -15.9869  -50.9627 S.3       23 UNK        -0.2404 
      8 C8          2.1261  -17.7775  -51.1654 C.3       23 UNK        -0.0205 
      9 C9          1.3084  -18.3706  -50.0283 C.ar      23 UNK        -0.0193 
     10 C10        -0.0809  -18.2262  -50.0228 C.ar      23 UNK        -0.1150 
     11 C11        -0.8537  -18.7877  -49.0034 C.ar      23 UNK        -0.0193 
     12 C12        -0.2248  -19.5074  -47.9851 C.ar      23 UNK        -0.1150 
     13 C13         1.1681  -19.6342  -47.9606 C.ar      23 UNK        -0.0193 
     14 C14         1.9291  -19.0699  -48.9894 C.ar      23 UNK        -0.1150 
     15 C15         1.8576  -20.3375  -46.8011 C.3       23 UNK        -0.0205 
     16 S16         2.4976  -21.9783  -47.2578 S.3       23 UNK        -0.2404 
     17 C17         0.9748  -22.9667  -47.4380 C.3       23 UNK        -0.0398 
     18 CA          0.6763  -23.8127  -46.1752 C.3       11 UNK         0.1400 
     19 N           0.2562  -22.9801  -45.0459 N.am      11 UNK        -0.5000 
     20 C           0.1651  -23.3710  -43.7672 C.2       10 UNK         0.5000 
     21 O           0.4471  -24.5078  -43.3859 O.2       10 UNK        -0.5000 
     22 CA         -0.2865  -22.3183  -42.7325 C.3       10 UNK         0.1400 
     23 CB          0.7274  -22.2127  -41.5805 C.3       10 UNK        -0.1800 
     24 N          -0.4483  -20.9852  -43.3162 N.am      10 UNK        -0.5000 
     25 C          -1.5960  -20.4280  -43.7155 C.2       9 UNK         0.5000 
     26 O          -2.6879  -20.9925  -43.6419 O.2       9 UNK        -0.5000 
     27 CA         -1.4855  -18.9995  -44.2960 C.3       9 UNK         0.1400 
     28 CB         -2.8340  -18.4300  -44.7685 C.3       9 UNK        -0.1800 
     29 N          -0.8470  -18.0444  -43.3837 N.am      9 UNK        -0.5000 
     30 C           0.4643  -17.9892  -43.1059 C.2       8 UNK         0.5000 
     31 O           1.2833  -18.7762  -43.5852 O.2       8 UNK        -0.5000 
     32 CA          0.9344  -16.8610  -42.1710 C.3       8 UNK         0.1400 
     33 CB          2.4392  -16.5701  -42.3088 C.3       8 UNK        -0.1800 
     34 N           0.1838  -15.6307  -42.4278 N.am      8 UNK        -0.5000 
     35 C          -0.5302  -14.9535  -41.5206 C.2       7 UNK         0.5000 
     36 O          -0.6266  -15.2855  -40.3387 O.2       7 UNK        -0.5000 
     37 CA         -1.2774  -13.6974  -42.0111 C.3       7 UNK         0.1400 
     38 CB         -0.5124  -12.4225  -41.6257 C.3       7 UNK        -0.1800 
     39 N          -1.5429  -13.6836  -43.4536 N.am      7 UNK        -0.5000 
     40 C          -2.4572  -14.4593  -44.0579 C.2       6 UNK         0.5000 
     41 O          -3.0872  -15.3329  -43.4605 O.2       6 UNK        -0.5000 
     42 CA         -2.7039  -14.2446  -45.5708 C.3       6 UNK         0.1400 
     43 CB         -4.1696  -14.5103  -45.9723 C.3       6 UNK        -0.1800 
     44 N          -2.2515  -12.9411  -46.0719 N.am      6 UNK        -0.5000 
     45 C          -2.6991  -11.7256  -45.7183 C.2       5 UNK         0.5000 
     46 O          -3.6452  -11.5409  -44.9512 O.2       5 UNK        -0.5000 
     47 CA         -1.9394  -10.5138  -46.3104 C.3       5 UNK         0.1400 
     48 CB         -2.0014   -9.2779  -45.3883 C.3       5 UNK        -0.1800 
     49 N          -0.5425  -10.7937  -46.6846 N.am      5 UNK        -0.5000 
     50 C           0.4311  -11.2501  -45.8818 C.2       4 UNK         0.5000 
     51 O           0.2437  -11.5723  -44.7061 O.2       4 UNK        -0.5000 
     52 CA          1.8159  -11.4299  -46.5362 C.3       4 UNK         0.1400 
     53 CB          2.3971  -10.1029  -47.0676 C.3       4 UNK        -0.1800 
     54 N           2.7532  -12.1331  -45.6554 N.am      4 UNK        -0.5000 
     55 C           3.3772  -11.6821  -44.5566 C.2       3 UNK         0.5000 
     56 O           3.3776  -10.5054  -44.1924 O.2       3 UNK        -0.5000 
     57 CA          4.1367  -12.7189  -43.7069 C.3       3 UNK         0.1400 
     58 CB          3.3266  -13.0777  -42.4522 C.3       3 UNK        -0.1800 
     59 N           4.4362  -13.9507  -44.4451 N.am      3 UNK        -0.5000 
     60 C           5.6588  -14.4829  -44.5845 C.2       2 UNK         0.5000 
     61 O           6.6739  -14.0102  -44.0710 O.2       2 UNK        -0.5000 
     62 CA          5.7852  -15.7572  -45.4480 C.3       2 UNK         0.1400 
     63 CB          5.7746  -17.0145  -44.5650 C.3       2 UNK        -0.1800 
     64 N           4.7410  -15.8847  -46.4658 N.am      2 UNK        -0.5000 
     65 C           4.5917  -15.0700  -47.5197 C.2       1 UNK         0.5000 
     66 O           5.3836  -14.1682  -47.7954 O.2       1 UNK        -0.5000 
     67 C          -0.3745  -24.9024  -46.4678 C.2       11 UNK         0.5000 
     68 O          -1.3811  -24.6283  -47.1225 O.2       11 UNK        -0.5000 
     69 N          -0.1179  -26.1191  -45.9714 N.am      12 UNK        -0.5000 
     70 CA         -0.9631  -27.2970  -46.1722 C.3       12 UNK         0.1400 
     71 CB         -0.5974  -28.3572  -45.1227 C.3       12 UNK        -0.1800 
     72 C          -0.8556  -27.8861  -47.5918 C.2       12 UNK         0.5000 
     73 O          -1.7727  -28.5903  -48.0157 O.2       12 UNK        -0.5000 
     74 N           0.2467  -27.5873  -48.2977 N.am      13 UNK        -0.5000 
     75 CA          0.5495  -28.0031  -49.6697 C.3       13 UNK         0.1400 
     76 CB          1.9129  -27.4205  -50.0759 C.3       13 UNK        -0.1800 
     77 C          -0.5552  -27.5747  -50.6530 C.2       13 UNK         0.5000 
     78 O          -0.6741  -26.3857  -50.9591 O.2       13 UNK        -0.5000 
     79 N          -1.3946  -28.5442  -51.0479 N.am      14 UNK        -0.5000 
     80 CA         -2.6199  -28.3927  -51.8456 C.3       14 UNK         0.1400 
     81 CB         -2.2684  -28.0109  -53.2991 C.3       14 UNK        -0.1800 
     82 C          -3.6491  -27.4226  -51.2202 C.2       14 UNK         0.5000 
     83 O          -4.4519  -26.8365  -51.9472 O.2       14 UNK        -0.5000 
     84 N          -3.5718  -27.2244  -49.8942 N.am      15 UNK        -0.5000 
     85 CA         -4.2728  -26.2032  -49.1084 C.3       15 UNK         0.1400 
     86 CB         -5.7658  -26.5651  -48.9706 C.3       15 UNK        -0.1800 
     87 C          -4.0443  -24.7720  -49.6475 C.2       15 UNK         0.5000 
     88 O          -4.9858  -23.9810  -49.7005 O.2       15 UNK        -0.5000 
     89 N          -2.8090  -24.4861  -50.0896 N.am      16 UNK        -0.5000 
     90 CA         -2.3733  -23.2525  -50.7541 C.3       16 UNK         0.1400 
     91 CB         -2.4529  -22.0495  -49.7947 C.3       16 UNK        -0.1800 
     92 C          -3.1194  -23.0246  -52.0861 C.2       16 UNK         0.5000 
     93 O          -3.6173  -21.9265  -52.3488 O.2       16 UNK        -0.5000 
     94 N          -3.2032  -24.1048  -52.8783 N.am      17 UNK        -0.5000 
     95 CA         -3.9425  -24.2383  -54.1374 C.3       17 UNK         0.1400 
     96 CB         -3.3349  -23.3293  -55.2274 C.3       17 UNK        -0.1800 
     97 C          -5.4551  -24.0172  -53.9367 C.2       17 UNK         0.5000 
     98 O          -6.0620  -23.2163  -54.6457 O.2       17 UNK        -0.5000 
     99 N          -6.0270  -24.6987  -52.9327 N.am      18 UNK        -0.5000 
    100 CA        -7.4039  -24.5487  -52.4410 C.3       18 UNK         0.1400 
    101 CB        -8.4093  -25.1246  -53.4591 C.3       18 UNK        -0.1800 
    102 C         -7.7187  -23.0917  -52.0325 C.2       18 UNK         0.5000 
    103 O         -8.7630  -22.5475  -52.3946 O.2       18 UNK        -0.5000 
    104 N         -6.7602  -22.4843  -51.3210 N.am      19 UNK        -0.5000 
    105 CA        -6.6801  -21.0942  -50.8711 C.3       19 UNK         0.1400 
    106 CB        -7.8336  -20.7579  -49.9053 C.3       19 UNK        -0.1800 
    107 C         -6.5438  -20.0426  -51.9926 C.2       19 UNK         0.5000 
    108 O         -6.5127  -18.8522  -51.6763 O.2       19 UNK        -0.5000 
    109 N         -6.4247  -20.4498  -53.2665 N.am      20 UNK        -0.5000 
    110 CA        -6.3374  -19.5416  -54.4170 C.3       20 UNK         0.1400 
    111 CB        -6.4774  -20.3308  -55.7262 C.3       20 UNK        -0.1800 
    112 C         -5.0584  -18.6839  -54.4450 C.2       20 UNK         0.5000 
    113 O         -5.0607  -17.6274  -55.0780 O.2       20 UNK        -0.5000 
    114 N         -4.0027  -19.1250  -53.7456 N.am      21 UNK        -0.5000 
    115 CA        -2.7736  -18.3546  -53.5525 C.3       21 UNK         0.1400 
    116 CB        -1.6628  -19.3001  -53.0717 C.3       21 UNK        -0.1800 
    117 C         -2.9461  -17.1621  -52.5846 C.2       21 UNK         0.5000 
    118 O         -2.1305  -16.2407  -52.6275 O.2       21 UNK        -0.5000 
    119 N         -3.9871  -17.1967  -51.7409 N.am      22 UNK        -0.5000 
    120 CA        -4.3428  -16.1428  -50.7765 C.3       22 UNK         0.1400 
    121 C         -5.6529  -15.4063  -51.1679 C.2       22 UNK         0.5000 
    122 N         -6.6493  -16.0768  -51.7314 N.am      22 UNK        -0.7600 
    123 O         -5.7643  -14.2004  -50.9655 O.2       22 UNK        -0.5000 
    124 C124       -4.4406  -16.7074  -49.3339 C.3       23 UNK        -0.0398 
    125 S125       -2.7978  -16.8910  -48.5668 S.3       23 UNK        -0.2404 
    126 C126       -2.3630  -18.6006  -49.0044 C.3       23 UNK        -0.0205 
    127 H127       -0.1235  -16.1039  -45.4200 H         1 UNK         0.0600 
    128 H128       -0.2894  -16.5781  -47.1122 H         1 UNK         0.0600 
    129 H129        0.7191  -17.5365  -46.0204 H         1 UNK         0.0600 
    130 H130        1.8559  -16.7521  -48.3328 H         1 UNK         0.3000 
    131 H131        2.9685  -14.2708  -48.6313 H         1 UNK         0.0600 
    132 H132        4.5682  -15.3689  -50.2165 H         1 UNK         0.0800 
    133 H133        4.1448  -16.9345  -49.5792 H         1 UNK         0.0800 
    134 H134        1.5995  -17.9442  -52.1061 H         1 UNK         0.0800 
    135 H135        3.0845  -18.2895  -51.2653 H         1 UNK         0.0800 
    136 H136       -0.5624  -17.6633  -50.8093 H         1 UNK         0.1150 
    137 H137       -0.8227  -19.9537  -47.2058 H         1 UNK         0.1150 
    138 H138        3.0048  -19.1776  -48.9779 H         1 UNK         0.1150 
    139 H139        2.6917  -19.7220  -46.4607 H         1 UNK         0.0800 
    140 H140        1.1898  -20.4262  -45.9448 H         1 UNK         0.0800 
    141 H141        1.1230  -23.6136  -48.3049 H         1 UNK         0.0800 
    142 H142        0.1314  -22.3234  -47.6884 H         1 UNK         0.0800 
    143 H143        1.6033  -24.3155  -45.8896 H         1 UNK         0.0600 
    144 H144       -0.0200  -22.0371  -45.2650 H         1 UNK         0.3000 
    145 H145       -1.2370  -22.6605  -42.3184 H         1 UNK         0.0600 
    146 H146        1.7100  -21.9016  -41.9379 H         1 UNK         0.0600 
    147 H147        0.3993  -21.4904  -40.8329 H         1 UNK         0.0600 
    148 H148        0.8493  -23.1698  -41.0717 H         1 UNK         0.0600 
    149 H149        0.3936  -20.4191  -43.3946 H         1 UNK         0.3000 
    150 H150       -0.8524  -19.0810  -45.1773 H         1 UNK         0.0600 
    151 H151       -3.3258  -19.1066  -45.4684 H         1 UNK         0.0600 
    152 H152       -2.6973  -17.4816  -45.2877 H         1 UNK         0.0600 
    153 H153       -3.5155  -18.2620  -43.9338 H         1 UNK         0.0600 
    154 H154       -1.4601  -17.3720  -42.9431 H         1 UNK         0.3000 
    155 H155        0.7538  -17.2192  -41.1558 H         1 UNK         0.0600 
    156 H156        3.0364  -17.4675  -42.1425 H         1 UNK         0.0600 
    157 H157        2.7606  -15.8356  -41.5715 H         1 UNK         0.0600 
    158 H158        2.6831  -16.1860  -43.2997 H         1 UNK         0.0600 
    159 H159        0.1988  -15.2832  -43.3758 H         1 UNK         0.3000 
    160 H160       -2.2390  -13.6751  -41.4938 H         1 UNK         0.0600 
    161 H161        0.4540  -12.3658  -42.1252 H         1 UNK         0.0600 
    162 H162       -0.3300  -12.3828  -40.5511 H         1 UNK         0.0600 
    163 H163       -1.0769  -11.5291  -41.8936 H         1 UNK         0.0600 
    164 H164       -1.0453  -12.9828  -43.9951 H         1 UNK         0.3000 
    165 H165       -2.0944  -14.9869  -46.0849 H         1 UNK         0.0600 
    166 H166       -4.3273  -14.3202  -47.0336 H         1 UNK         0.0600 
    167 H167       -4.4435  -15.5494  -45.7860 H         1 UNK         0.0600 
    168 H168       -4.8646  -13.8844  -45.4122 H         1 UNK         0.0600 
    169 H169       -1.4672  -12.9703  -46.7070 H         1 UNK         0.3000 
    170 H170       -2.4584  -10.2603  -47.2358 H         1 UNK         0.0600 
    171 H171       -1.5551   -9.4794  -44.4139 H         1 UNK         0.0600 
    172 H172       -1.4760   -8.4305  -45.8287 H         1 UNK         0.0600 
    173 H173       -3.0319   -8.9641  -45.2179 H         1 UNK         0.0600 
    174 H174       -0.3090  -10.5875  -47.6461 H         1 UNK         0.3000 
    175 H175        1.6731  -12.0948  -47.3893 H         1 UNK         0.0600 
    176 H176        1.8007   -9.7165  -47.8943 H         1 UNK         0.0600 
    177 H177        2.4195   -9.3292  -46.2999 H         1 UNK         0.0600 
    178 H178        3.4128  -10.2377  -47.4400 H         1 UNK         0.0600 
    179 H179        2.7288  -13.1399  -45.7817 H         1 UNK         0.3000 
    180 H180        5.0599  -12.2326  -43.3856 H         1 UNK         0.0600 
    181 H181        3.9031  -13.7175  -41.7845 H         1 UNK         0.0600 
    182 H182        2.4053  -13.5993  -42.7115 H         1 UNK         0.0600 
    183 H183        3.0536  -12.1843  -41.8891 H         1 UNK         0.0600 
    184 H184        3.6539  -14.4069  -44.9021 H         1 UNK         0.3000 
    185 H185        6.7490  -15.7094  -45.9593 H         1 UNK         0.0600 
    186 H186        4.8183  -17.1442  -44.0583 H         1 UNK         0.0600 
    187 H187        5.9654  -17.9115  -45.1544 H         1 UNK         0.0600 
    188 H188        6.5481  -16.9608  -43.7977 H         1 UNK         0.0600 
    189 H189        4.0398  -16.5936  -46.3106 H         1 UNK         0.3000 
    190 H190        0.6950  -26.2431  -45.3836 H         1 UNK         0.3000 
    191 H191       -2.0043  -27.0069  -46.0152 H         1 UNK         0.0600 
    192 H192       -1.2316  -29.2395  -45.2204 H         1 UNK         0.0600 
    193 H193       -0.7315  -27.9729  -44.1112 H         1 UNK         0.0600 
    194 H194        0.4383  -28.6843  -45.2237 H         1 UNK         0.0600 
    195 H195        0.9318  -26.9933  -47.8564 H         1 UNK         0.3000 
    196 H196        0.6298  -29.0919  -49.6804 H         1 UNK         0.0600 
    197 H197        2.1699  -27.7053  -51.0970 H         1 UNK         0.0600 
    198 H198        2.7084  -27.7877  -49.4273 H         1 UNK         0.0600 
    199 H199        1.9176  -26.3306  -50.0284 H         1 UNK         0.0600 
    200 H200       -1.2356  -29.4754  -50.6878 H         1 UNK         0.3000 
    201 H201       -3.1008  -29.3715  -51.8645 H         1 UNK         0.0600 
    202 H202       -1.5566  -28.7154  -53.7292 H         1 UNK         0.0600 
    203 H203       -1.8317  -27.0139  -53.3633 H         1 UNK         0.0600 
    204 H204       -3.1547  -28.0215  -53.9348 H         1 UNK         0.0600 
    205 H205       -2.8913  -27.7733  -49.3758 H         1 UNK         0.3000 
    206 H206       -3.8316  -26.2231  -48.1109 H         1 UNK         0.0600 
    207 H207       -5.8901  -27.5602  -48.5437 H         1 UNK         0.0600 
    208 H208       -6.2811  -25.8645  -48.3124 H         1 UNK         0.0600 
    209 H209       -6.2772  -26.5487  -49.9328 H         1 UNK         0.0600 
    210 H210       -2.1070  -25.2176  -50.0519 H         1 UNK         0.3000 
    211 H211       -1.3228  -23.3996  -51.0088 H         1 UNK         0.0600 
    212 H212       -1.9722  -22.2700  -48.8424 H         1 UNK         0.0600 
    213 H213       -3.4817  -21.7549  -49.5883 H         1 UNK         0.0600 
    214 H214       -1.9422  -21.1899  -50.2253 H         1 UNK         0.0600 
    215 H215       -2.7958  -24.9607  -52.5291 H         1 UNK         0.3000 
    216 H216       -3.8221  -25.2729  -54.4617 H         1 UNK         0.0600 
    217 H217       -3.8145  -23.5041  -56.1911 H         1 UNK         0.0600 
    218 H218       -2.2702  -23.5245  -55.3543 H         1 UNK         0.0600 
    219 H219       -3.4555  -22.2714  -54.9917 H         1 UNK         0.0600 
    220 H220       -5.4496  -25.3727  -52.4328 H         1 UNK         0.3000 
    221 H221       -7.4751  -25.1448  -51.5307 H         1 UNK         0.0600 
    222 H222       -8.4228  -24.5503  -54.3859 H         1 UNK         0.0600 
    223 H223       -8.1677  -26.1578  -53.7084 H         1 UNK         0.0600 
    224 H224       -9.4220  -25.1168  -53.0546 H         1 UNK         0.0600 
    225 H225       -5.9696  -23.0543  -51.0295 H         1 UNK         0.3000 
    226 H226       -5.7520  -21.0317  -50.3018 H         1 UNK         0.0600 
    227 H227       -8.7970  -20.7367  -50.4151 H         1 UNK         0.0600 
    228 H228       -7.8956  -21.4869  -49.0972 H         1 UNK         0.0600 
    229 H229       -7.6877  -19.7794  -49.4462 H         1 UNK         0.0600 
    230 H230       -6.4097  -21.4424  -53.4713 H         1 UNK         0.3000 
    231 H231       -7.1838  -18.8549  -54.3509 H         1 UNK         0.0600 
    232 H232       -6.5556  -19.6564  -56.5798 H         1 UNK         0.0600 
    233 H233       -7.3716  -20.9544  -55.7216 H         1 UNK         0.0600 
    234 H234       -5.6146  -20.9742  -55.9005 H         1 UNK         0.0600 
    235 H235       -4.0633  -20.0205  -53.2715 H         1 UNK         0.3000 
    236 H236       -2.4700  -17.9480  -54.5195 H         1 UNK         0.0600 
    237 H237       -1.8886  -19.7192  -52.0921 H         1 UNK         0.0600 
    238 H238       -1.5231  -20.1301  -53.7646 H         1 UNK         0.0600 
    239 H239       -0.7093  -18.7767  -52.9965 H         1 UNK         0.0600 
    240 H240       -4.6453  -17.9623  -51.8140 H         1 UNK         0.3000 
    241 H241       -3.5695  -15.3719  -50.7778 H         1 UNK         0.0600 
    242 H242       -7.4905  -15.5860  -51.9883 H         1 UNK         0.3800 
    243 H243       -6.6143  -17.0911  -51.8171 H         1 UNK         0.3800 
    244 H244       -4.9772  -17.6576  -49.3148 H         1 UNK         0.0800 
    245 H245       -5.0056  -16.0331  -48.6881 H         1 UNK         0.0800 
    246 H246       -2.8442  -19.2831  -48.3026 H         1 UNK         0.0800 
    247 H247       -2.7519  -18.8491  -49.9907 H         1 UNK         0.0800 
@<TRIPOS>BOND
     1    1    2 1    
     2    1  127 1    
     3    1  128 1    
     4    1  129 1    
     5    2    3 2    
     6    2    4 am   BACKBONE|DICT|INTERRES
     7    4    5 1    
     8    4  130 1    
     9    5    6 1    
    10    5   65 1    
    11    5  131 1    
    12    6    7 1    
    13    6  132 1    
    14    6  133 1    
    15    7    8 1    
    16    8    9 1    
    17    8  134 1    
    18    8  135 1    
    19    9   10 ar   
    20    9   14 ar   
    21   10   11 ar   
    22   10  136 1    
    23   11   12 ar   
    24   11  126 1    
    25   12   13 ar   
    26   12  137 1    
    27   13   14 ar   
    28   13   15 1    
    29   14  138 1    
    30   15   16 1    
    31   15  139 1    
    32   15  140 1    
    33   16   17 1    
    34   17   18 1    
    35   17  141 1    
    36   17  142 1    
    37   18   19 1    
    38   18   67 1    
    39   18  143 1    
    40   19   20 am   BACKBONE|DICT|INTERRES
    41   19  144 1    
    42   20   21 2    
    43   20   22 1    
    44   22   23 1    
    45   22   24 1    
    46   22  145 1    
    47   23  146 1    
    48   23  147 1    
    49   23  148 1    
    50   24   25 am   BACKBONE|DICT|INTERRES
    51   24  149 1    
    52   25   26 2    
    53   25   27 1    
    54   27   28 1    
    55   27   29 1    
    56   27  150 1    
    57   28  151 1    
    58   28  152 1    
    59   28  153 1    
    60   29   30 am   BACKBONE|DICT|INTERRES
    61   29  154 1    
    62   30   31 2    
    63   30   32 1    
    64   32   33 1    
    65   32   34 1    
    66   32  155 1    
    67   33  156 1    
    68   33  157 1    
    69   33  158 1    
    70   34   35 am   BACKBONE|DICT|INTERRES
    71   34  159 1    
    72   35   36 2    
    73   35   37 1    
    74   37   38 1    
    75   37   39 1    
    76   37  160 1    
    77   38  161 1    
    78   38  162 1    
    79   38  163 1    
    80   39   40 am   BACKBONE|DICT|INTERRES
    81   39  164 1    
    82   40   41 2    
    83   40   42 1    
    84   42   43 1    
    85   42   44 1    
    86   42  165 1    
    87   43  166 1    
    88   43  167 1    
    89   43  168 1    
    90   44   45 am   BACKBONE|DICT|INTERRES
    91   44  169 1    
    92   45   46 2    
    93   45   47 1    
    94   47   48 1    
    95   47   49 1    
    96   47  170 1    
    97   48  171 1    
    98   48  172 1    
    99   48  173 1    
   100   49   50 am   BACKBONE|DICT|INTERRES
   101   49  174 1    
   102   50   51 2    
   103   50   52 1    
   104   52   53 1    
   105   52   54 1    
   106   52  175 1    
   107   53  176 1    
   108   53  177 1    
   109   53  178 1    
   110   54   55 am   BACKBONE|DICT|INTERRES
   111   54  179 1    
   112   55   56 2    
   113   55   57 1    
   114   57   58 1    
   115   57   59 1    
   116   57  180 1    
   117   58  181 1    
   118   58  182 1    
   119   58  183 1    
   120   59   60 am   BACKBONE|DICT|INTERRES
   121   59  184 1    
   122   60   61 2    
   123   60   62 1    
   124   62   63 1    
   125   62   64 1    
   126   62  185 1    
   127   63  186 1    
   128   63  187 1    
   129   63  188 1    
   130   64   65 am   BACKBONE|DICT|INTERRES
   131   64  189 1    
   132   65   66 2    
   133   67   68 2    
   134   67   69 am   BACKBONE|DICT|INTERRES
   135   69   70 1    
   136   69  190 1    
   137   70   71 1    
   138   70   72 1    
   139   70  191 1    
   140   71  192 1    
   141   71  193 1    
   142   71  194 1    
   143   72   73 2    
   144   72   74 am   BACKBONE|DICT|INTERRES
   145   74   75 1    
   146   74  195 1    
   147   75   76 1    
   148   75   77 1    
   149   75  196 1    
   150   76  197 1    
   151   76  198 1    
   152   76  199 1    
   153   77   78 2    
   154   77   79 am   BACKBONE|DICT|INTERRES
   155   79   80 1    
   156   79  200 1    
   157   80   81 1    
   158   80   82 1    
   159   80  201 1    
   160   81  202 1    
   161   81  203 1    
   162   81  204 1    
   163   82   83 2    
   164   82   84 am   BACKBONE|DICT|INTERRES
   165   84   85 1    
   166   84  205 1    
   167   85   86 1    
   168   85   87 1    
   169   85  206 1    
   170   86  207 1    
   171   86  208 1    
   172   86  209 1    
   173   87   88 2    
   174   87   89 am   BACKBONE|DICT|INTERRES
   175   89   90 1    
   176   89  210 1    
   177   90   91 1    
   178   90   92 1    
   179   90  211 1    
   180   91  212 1    
   181   91  213 1    
   182   91  214 1    
   183   92   93 2    
   184   92   94 am   BACKBONE|DICT|INTERRES
   185   94   95 1    
   186   94  215 1    
   187   95   96 1    
   188   95   97 1    
   189   95  216 1    
   190   96  217 1    
   191   96  218 1    
   192   96  219 1    
   193   97   98 2    
   194   97   99 am   BACKBONE|DICT|INTERRES
   195   99  100 1    
   196   99  220 1    
   197  100  101 1    
   198  100  102 1    
   199  100  221 1    
   200  101  222 1    
   201  101  223 1    
   202  101  224 1    
   203  102  103 2    
   204  102  104 am   BACKBONE|DICT|INTERRES
   205  104  105 1    
   206  104  225 1    
   207  105  106 1    
   208  105  107 1    
   209  105  226 1    
   210  106  227 1    
   211  106  228 1    
   212  106  229 1    
   213  107  108 2    
   214  107  109 am   BACKBONE|DICT|INTERRES
   215  109  110 1    
   216  109  230 1    
   217  110  111 1    
   218  110  112 1    
   219  110  231 1    
   220  111  232 1    
   221  111  233 1    
   222  111  234 1    
   223  112  113 2    
   224  112  114 am   BACKBONE|DICT|INTERRES
   225  114  115 1    
   226  114  235 1    
   227  115  116 1    
   228  115  117 1    
   229  115  236 1    
   230  116  237 1    
   231  116  238 1    
   232  116  239 1    
   233  117  118 2    
   234  117  119 am   BACKBONE|DICT|INTERRES
   235  119  120 1    
   236  119  240 1    
   237  120  121 1    
   238  120  124 1    
   239  120  241 1    
   240  121  122 am   BACKBONE|DICT|INTERRES
   241  121  123 2    
   242  122  242 1    
   243  122  243 1    
   244  124  125 1    
   245  124  244 1    
   246  124  245 1    
   247  125  126 1    
   248  126  246 1    
   249  126  247 1    
@<TRIPOS>SUBSTRUCTURE
     1 UNK         1 GROUP             0       ****    0 ROOT    
