@<TRIPOS>MOLECULE
3R540
247   249    1
SMALL
USER_CHARGES


@<TRIPOS>ATOM
      1 CA          0.8757  -10.3859  -45.5574 C.3       0 UNK        -0.1800 
      2 C           1.5134  -11.2302  -46.6517 C.2       0 UNK         0.5000 
      3 O           2.4294  -10.7736  -47.3360 O.2       0 UNK        -0.5000 
      4 N           1.0252  -12.4649  -46.8206 N.am      1 UNK        -0.5000 
      5 CA          1.4944  -13.4366  -47.8181 C.3       1 UNK         0.1400 
      6 C6          0.4994  -14.6092  -47.9888 C.3       23 UNK        -0.0398 
      7 S7         -1.1265  -14.0144  -48.5722 S.3       23 UNK        -0.2404 
      8 C8         -1.1998  -14.6802  -50.2654 C.3       23 UNK        -0.0205 
      9 C9         -1.7168  -16.1097  -50.2753 C.ar      23 UNK        -0.0193 
     10 C10        -3.0919  -16.3550  -50.3250 C.ar      23 UNK        -0.1150 
     11 C11        -3.5829  -17.6637  -50.3262 C.ar      23 UNK        -0.0193 
     12 C12        -2.6848  -18.7307  -50.2376 C.ar      23 UNK        -0.1150 
     13 C13        -1.3086  -18.4972  -50.1739 C.ar      23 UNK        -0.0193 
     14 C14        -0.8288  -17.1860  -50.2203 C.ar      23 UNK        -0.1150 
     15 C15        -0.3404  -19.6549  -50.0070 C.3       23 UNK        -0.0205 
     16 S16         0.3119  -19.6801  -48.3130 S.3       23 UNK        -0.2404 
     17 C17         1.1750  -21.2796  -48.2698 C.3       23 UNK        -0.0398 
     18 CA          0.4286  -22.3910  -47.4934 C.3       11 UNK         0.1400 
     19 N           0.0084  -21.9990  -46.1438 N.am      11 UNK        -0.5000 
     20 C          -0.2623  -22.8868  -45.1768 C.2       10 UNK         0.5000 
     21 O          -0.1604  -24.1051  -45.3242 O.2       10 UNK        -0.5000 
     22 CA         -0.7697  -22.3316  -43.8387 C.3       10 UNK         0.1400 
     23 CB          0.3804  -21.7379  -43.0104 C.3       10 UNK        -0.1800 
     24 N          -1.8195  -21.3328  -44.0268 N.am      10 UNK        -0.5000 
     25 C          -3.0733  -21.6209  -44.4013 C.2       9 UNK         0.5000 
     26 O          -3.4607  -22.7583  -44.6648 O.2       9 UNK        -0.5000 
     27 CA         -4.0615  -20.4457  -44.5125 C.3       9 UNK         0.1400 
     28 CB         -4.7384  -20.1821  -43.1593 C.3       9 UNK        -0.1800 
     29 N          -3.4393  -19.2112  -44.9871 N.am      9 UNK        -0.5000 
     30 C          -2.9536  -19.0443  -46.2240 C.2       8 UNK         0.5000 
     31 O          -2.9722  -19.9196  -47.0877 O.2       8 UNK        -0.5000 
     32 CA         -2.3119  -17.6779  -46.5254 C.3       8 UNK         0.1400 
     33 CB         -3.4100  -16.6290  -46.7611 C.3       8 UNK        -0.1800 
     34 N          -1.3999  -17.1841  -45.4871 N.am      8 UNK        -0.5000 
     35 C          -0.4229  -17.8653  -44.8691 C.2       7 UNK         0.5000 
     36 O          -0.2009  -19.0620  -45.0553 O.2       7 UNK        -0.5000 
     37 CA          0.4643  -17.0985  -43.8645 C.3       7 UNK         0.1400 
     38 CB          1.9530  -17.3447  -44.1531 C.3       7 UNK        -0.1800 
     39 N           0.2409  -15.6499  -43.8048 N.am      7 UNK        -0.5000 
     40 C          -0.8018  -15.0378  -43.2311 C.2       6 UNK         0.5000 
     41 O          -1.7642  -15.6396  -42.7535 O.2       6 UNK        -0.5000 
     42 CA         -0.7204  -13.4999  -43.1588 C.3       6 UNK         0.1400 
     43 CB         -2.0189  -12.8566  -42.6415 C.3       6 UNK        -0.1800 
     44 N           0.3865  -13.0982  -42.2915 N.am      6 UNK        -0.5000 
     45 C           1.6648  -12.9894  -42.6697 C.2       5 UNK         0.5000 
     46 O           2.0482  -13.1536  -43.8308 O.2       5 UNK        -0.5000 
     47 CA          2.6811  -12.7243  -41.5508 C.3       5 UNK         0.1400 
     48 CB          3.4443  -14.0103  -41.2004 C.3       5 UNK        -0.1800 
     49 N           3.6402  -11.6989  -41.9499 N.am      5 UNK        -0.5000 
     50 C           3.5736  -10.4157  -41.5698 C.2       4 UNK         0.5000 
     51 O           2.6638   -9.9557  -40.8783 O.2       4 UNK        -0.5000 
     52 CA          4.7213   -9.4856  -42.0058 C.3       4 UNK         0.1400 
     53 CB          5.7695   -9.3701  -40.8882 C.3       4 UNK        -0.1800 
     54 N           5.3837   -9.9378  -43.2268 N.am      4 UNK        -0.5000 
     55 C           4.9071   -9.7441  -44.4613 C.2       3 UNK         0.5000 
     56 O           3.8817   -9.1082  -44.7032 O.2       3 UNK        -0.5000 
     57 CA          5.7131  -10.3546  -45.6227 C.3       3 UNK         0.1400 
     58 CB          7.2404  -10.3147  -45.3953 C.3       3 UNK        -0.1800 
     59 N           5.2693  -11.7094  -45.9592 N.am      3 UNK        -0.5000 
     60 C           5.2742  -12.8018  -45.1816 C.2       2 UNK         0.5000 
     61 O           5.6356  -12.8124  -44.0026 O.2       2 UNK        -0.5000 
     62 CA          4.7537  -14.0835  -45.8528 C.3       2 UNK         0.1400 
     63 CB          4.8035  -15.3170  -44.9374 C.3       2 UNK        -0.1800 
     64 N           3.3791  -13.8472  -46.2803 N.am      2 UNK        -0.5000 
     65 C           2.9239  -13.9512  -47.5350 C.2       1 UNK         0.5000 
     66 O           3.5940  -14.3981  -48.4666 O.2       1 UNK        -0.5000 
     67 C          -0.7179  -23.0359  -48.3009 C.2       11 UNK         0.5000 
     68 O          -0.4471  -23.9456  -49.0844 O.2       11 UNK        -0.5000 
     69 N          -1.9732  -22.6220  -48.0616 N.am      12 UNK        -0.5000 
     70 CA         -3.1590  -23.2935  -48.5998 C.3       12 UNK         0.1400 
     71 CB         -4.4170  -22.4490  -48.3542 C.3       12 UNK        -0.1800 
     72 C          -3.3314  -24.7119  -48.0262 C.2       12 UNK         0.5000 
     73 O          -3.5794  -25.6434  -48.7895 O.2       12 UNK        -0.5000 
     74 N          -3.1524  -24.8753  -46.7061 N.am      13 UNK        -0.5000 
     75 CA         -3.1831  -26.1748  -46.0274 C.3       13 UNK         0.1400 
     76 CB         -3.1185  -25.9815  -44.5056 C.3       13 UNK        -0.1800 
     77 C          -2.0714  -27.1255  -46.5082 C.2       13 UNK         0.5000 
     78 O          -2.3436  -28.3035  -46.7411 O.2       13 UNK        -0.5000 
     79 N          -0.8597  -26.5890  -46.7155 N.am      14 UNK        -0.5000 
     80 CA          0.2801  -27.3027  -47.3014 C.3       14 UNK         0.1400 
     81 CB          1.5348  -26.4221  -47.2130 C.3       14 UNK        -0.1800 
     82 C           0.0354  -27.7537  -48.7570 C.2       14 UNK         0.5000 
     83 O           0.5626  -28.7871  -49.1689 O.2       14 UNK        -0.5000 
     84 N          -0.7940  -26.9998  -49.4904 N.am      15 UNK        -0.5000 
     85 CA         -1.2738  -27.3139  -50.8370 C.3       15 UNK         0.1400 
     86 CB         -1.5266  -25.9965  -51.5917 C.3       15 UNK        -0.1800 
     87 C          -2.5298  -28.2154  -50.8362 C.2       15 UNK         0.5000 
     88 O          -3.1607  -28.3609  -51.8828 O.2       15 UNK        -0.5000 
     89 N          -2.8830  -28.7991  -49.6800 N.am      16 UNK        -0.5000 
     90 CA         -4.0228  -29.6925  -49.4435 C.3       16 UNK         0.1400 
     91 CB         -3.8886  -30.9973  -50.2572 C.3       16 UNK        -0.1800 
     92 C          -5.3844  -28.9911  -49.6285 C.2       16 UNK         0.5000 
     93 O          -6.3164  -29.5772  -50.1812 O.2       16 UNK        -0.5000 
     94 N          -5.4608  -27.7413  -49.1503 N.am      17 UNK        -0.5000 
     95 CA         -6.6075  -26.8266  -49.1690 C.3       17 UNK         0.1400 
     96 CB         -7.8475  -27.4427  -48.4871 C.3       17 UNK        -0.1800 
     97 C          -6.9154  -26.2348  -50.5595 C.2       17 UNK         0.5000 
     98 O          -7.9748  -25.6305  -50.7372 O.2       17 UNK        -0.5000 
     99 N          -5.9857  -26.3784  -51.5132 N.am      18 UNK        -0.5000 
    100 CA        -6.0317  -25.7079  -52.8104 C.3       18 UNK         0.1400 
    101 CB        -5.0981  -26.4354  -53.7886 C.3       18 UNK        -0.1800 
    102 C         -5.6227  -24.2300  -52.6757 C.2       18 UNK         0.5000 
    103 O         -4.8238  -23.8857  -51.8006 O.2       18 UNK        -0.5000 
    104 N         -6.1605  -23.3871  -53.5637 N.am      19 UNK        -0.5000 
    105 CA        -5.7986  -21.9753  -53.6744 C.3       19 UNK         0.1400 
    106 CB        -6.8738  -21.2478  -54.4972 C.3       19 UNK        -0.1800 
    107 C         -4.4113  -21.7967  -54.3197 C.2       19 UNK         0.5000 
    108 O         -3.9940  -22.6305  -55.1284 O.2       19 UNK        -0.5000 
    109 N         -3.7468  -20.6920  -53.9732 N.am      20 UNK        -0.5000 
    110 CA        -2.4632  -20.2723  -54.5253 C.3       20 UNK         0.1400 
    111 CB        -1.3510  -20.5539  -53.4970 C.3       20 UNK        -0.1800 
    112 C         -2.5959  -18.7991  -54.9437 C.2       20 UNK         0.5000 
    113 O         -3.4344  -18.4941  -55.7930 O.2       20 UNK        -0.5000 
    114 N         -1.8193  -17.8985  -54.3284 N.am      21 UNK        -0.5000 
    115 CA        -1.8184  -16.4499  -54.5708 C.3       21 UNK         0.1400 
    116 CB        -0.4527  -15.8889  -54.1336 C.3       21 UNK        -0.1800 
    117 C         -2.9981  -15.7083  -53.8955 C.2       21 UNK         0.5000 
    118 O         -2.8406  -14.5658  -53.4611 O.2       21 UNK        -0.5000 
    119 N         -4.1492  -16.3784  -53.7912 N.am      22 UNK        -0.5000 
    120 CA        -5.3638  -15.9042  -53.1205 C.3       22 UNK         0.1400 
    121 C         -6.0867  -14.7747  -53.9049 C.2       22 UNK         0.5000 
    122 N         -6.7447  -13.8542  -53.2128 N.am      22 UNK        -0.7600 
    123 O         -6.0955  -14.7469  -55.1339 O.2       22 UNK        -0.5000 
    124 C124       -6.3398  -17.0689  -52.8077 C.3       23 UNK        -0.0398 
    125 S125       -5.5770  -18.5408  -52.0321 S.3       23 UNK        -0.2404 
    126 C126       -5.0788  -17.9363  -50.3874 C.3       23 UNK        -0.0205 
    127 H127        1.4956  -10.4066  -44.6612 H         1 UNK         0.0600 
    128 H128       -0.1165  -10.7522  -45.2934 H         1 UNK         0.0600 
    129 H129        0.7796   -9.3505  -45.8837 H         1 UNK         0.0600 
    130 H130        0.2551  -12.7702  -46.2465 H         1 UNK         0.3000 
    131 H131        1.5494  -12.9123  -48.7748 H         1 UNK         0.0600 
    132 H132        0.3591  -15.1398  -47.0457 H         1 UNK         0.0800 
    133 H133        0.8906  -15.3443  -48.6925 H         1 UNK         0.0800 
    134 H134       -0.2199  -14.6178  -50.7409 H         1 UNK         0.0800 
    135 H135       -1.8629  -14.0505  -50.8605 H         1 UNK         0.0800 
    136 H136       -3.7756  -15.5198  -50.3518 H         1 UNK         0.1150 
    137 H137       -3.0610  -19.7434  -50.1993 H         1 UNK         0.1150 
    138 H138        0.2357  -17.0081  -50.1729 H         1 UNK         0.1150 
    139 H139       -0.8375  -20.6026  -50.2198 H         1 UNK         0.0800 
    140 H140        0.4813  -19.5596  -50.7182 H         1 UNK         0.0800 
    141 H141        2.1385  -21.1036  -47.7899 H         1 UNK         0.0800 
    142 H142        1.4138  -21.6042  -49.2843 H         1 UNK         0.0800 
    143 H143        1.1659  -23.1860  -47.3632 H         1 UNK         0.0600 
    144 H144       -0.1068  -21.0064  -45.9637 H         1 UNK         0.3000 
    145 H145       -1.1911  -23.1646  -43.2716 H         1 UNK         0.0600 
    146 H146        0.0247  -21.3717  -42.0474 H         1 UNK         0.0600 
    147 H147        1.1419  -22.4925  -42.8099 H         1 UNK         0.0600 
    148 H148        0.8706  -20.9105  -43.5235 H         1 UNK         0.0600 
    149 H149       -1.5415  -20.3632  -43.9501 H         1 UNK         0.3000 
    150 H150       -4.8345  -20.7314  -45.2290 H         1 UNK         0.0600 
    151 H151       -5.2304  -21.0819  -42.7875 H         1 UNK         0.0600 
    152 H152       -5.5008  -19.4075  -43.2437 H         1 UNK         0.0600 
    153 H153       -4.0186  -19.8651  -42.4035 H         1 UNK         0.0600 
    154 H154       -3.3670  -18.4476  -44.3306 H         1 UNK         0.3000 
    155 H155       -1.7339  -17.7764  -47.4434 H         1 UNK         0.0600 
    156 H156       -3.9764  -16.4253  -45.8517 H         1 UNK         0.0600 
    157 H157       -4.1181  -16.9663  -47.5186 H         1 UNK         0.0600 
    158 H158       -2.9909  -15.6871  -47.1101 H         1 UNK         0.0600 
    159 H159       -1.5160  -16.2176  -45.2255 H         1 UNK         0.3000 
    160 H160        0.2432  -17.5138  -42.8792 H         1 UNK         0.0600 
    161 H161        2.5811  -16.8815  -43.3924 H         1 UNK         0.0600 
    162 H162        2.1888  -18.4097  -44.1545 H         1 UNK         0.0600 
    163 H163        2.2398  -16.9438  -45.1258 H         1 UNK         0.0600 
    164 H164        1.0007  -15.0676  -44.1335 H         1 UNK         0.3000 
    165 H165       -0.5479  -13.1284  -44.1705 H         1 UNK         0.0600 
    166 H166       -1.9459  -11.7689  -42.6440 H         1 UNK         0.0600 
    167 H167       -2.8668  -13.1256  -43.2728 H         1 UNK         0.0600 
    168 H168       -2.2516  -13.1741  -41.6242 H         1 UNK         0.0600 
    169 H169        0.1593  -12.9861  -41.3137 H         1 UNK         0.3000 
    170 H170        2.1412  -12.4090  -40.6554 H         1 UNK         0.0600 
    171 H171        4.0934  -14.3297  -42.0145 H         1 UNK         0.0600 
    172 H172        4.0699  -13.8640  -40.3199 H         1 UNK         0.0600 
    173 H173        2.7594  -14.8305  -40.9805 H         1 UNK         0.0600 
    174 H174        4.3788  -11.9946  -42.5801 H         1 UNK         0.3000 
    175 H175        4.2984   -8.4933  -42.1772 H         1 UNK         0.0600 
    176 H176        6.2354  -10.3324  -40.6720 H         1 UNK         0.0600 
    177 H177        6.5584   -8.6678  -41.1584 H         1 UNK         0.0600 
    178 H178        5.3169   -9.0091  -39.9637 H         1 UNK         0.0600 
    179 H179        6.2058  -10.5144  -43.1159 H         1 UNK         0.3000 
    180 H180        5.5005   -9.7391  -46.4983 H         1 UNK         0.0600 
    181 H181        7.5627  -10.9759  -44.5907 H         1 UNK         0.0600 
    182 H182        7.5712   -9.3059  -45.1450 H         1 UNK         0.0600 
    183 H183        7.7740  -10.6133  -46.2976 H         1 UNK         0.0600 
    184 H184        4.8614  -11.8008  -46.8796 H         1 UNK         0.3000 
    185 H185        5.4042  -14.2736  -46.7088 H         1 UNK         0.0600 
    186 H186        5.8053  -15.4713  -44.5349 H         1 UNK         0.0600 
    187 H187        4.1189  -15.2152  -44.0976 H         1 UNK         0.0600 
    188 H188        4.5328  -16.2192  -45.4851 H         1 UNK         0.0600 
    189 H189        2.7738  -13.4481  -45.5658 H         1 UNK         0.3000 
    190 H190       -2.1327  -21.8221  -47.4584 H         1 UNK         0.3000 
    191 H191       -3.0291  -23.3883  -49.6801 H         1 UNK         0.0600 
    192 H192       -4.5864  -22.2751  -47.2914 H         1 UNK         0.0600 
    193 H193       -5.3020  -22.9456  -48.7543 H         1 UNK         0.0600 
    194 H194       -4.3416  -21.4798  -48.8470 H         1 UNK         0.0600 
    195 H195       -3.0001  -24.0621  -46.1181 H         1 UNK         0.3000 
    196 H196       -4.1397  -26.6459  -46.2632 H         1 UNK         0.0600 
    197 H197       -3.1341  -26.9415  -43.9882 H         1 UNK         0.0600 
    198 H198       -3.9723  -25.4070  -44.1463 H         1 UNK         0.0600 
    199 H199       -2.2117  -25.4590  -44.2015 H         1 UNK         0.0600 
    200 H200       -0.7015  -25.6246  -46.4372 H         1 UNK         0.3000 
    201 H201        0.4509  -28.1996  -46.7026 H         1 UNK         0.0600 
    202 H202        1.7340  -26.1171  -46.1854 H         1 UNK         0.0600 
    203 H203        1.4356  -25.5217  -47.8185 H         1 UNK         0.0600 
    204 H204        2.4139  -26.9602  -47.5696 H         1 UNK         0.0600 
    205 H205       -1.1633  -26.1514  -49.0793 H         1 UNK         0.3000 
    206 H206       -0.4929  -27.8576  -51.3721 H         1 UNK         0.0600 
    207 H207       -0.6470  -25.3530  -51.5691 H         1 UNK         0.0600 
    208 H208       -1.7606  -26.1828  -52.6401 H         1 UNK         0.0600 
    209 H209       -2.3596  -25.4378  -51.1644 H         1 UNK         0.0600 
    210 H210       -2.3348  -28.5850  -48.8554 H         1 UNK         0.3000 
    211 H211       -3.9722  -29.9657  -48.3886 H         1 UNK         0.0600 
    212 H212       -3.9995  -30.8241  -51.3278 H         1 UNK         0.0600 
    213 H213       -4.6520  -31.7189  -49.9643 H         1 UNK         0.0600 
    214 H214       -2.9191  -31.4671  -50.0913 H         1 UNK         0.0600 
    215 H215       -4.6029  -27.3108  -48.8168 H         1 UNK         0.3000 
    216 H216       -6.3041  -25.9757  -48.5580 H         1 UNK         0.0600 
    217 H217       -8.6200  -26.6891  -48.3303 H         1 UNK         0.0600 
    218 H218       -7.5971  -27.8557  -47.5100 H         1 UNK         0.0600 
    219 H219       -8.2906  -28.2377  -49.0869 H         1 UNK         0.0600 
    220 H220       -5.1270  -26.8584  -51.2826 H         1 UNK         0.3000 
    221 H221       -7.0508  -25.7628  -53.1996 H         1 UNK         0.0600 
    222 H222       -4.0556  -26.3578  -53.4798 H         1 UNK         0.0600 
    223 H223       -5.3480  -27.4939  -53.8637 H         1 UNK         0.0600 
    224 H224       -5.1730  -26.0094  -54.7898 H         1 UNK         0.0600 
    225 H225       -6.7737  -23.7498  -54.2788 H         1 UNK         0.3000 
    226 H226       -5.7775  -21.5445  -52.6709 H         1 UNK         0.0600 
    227 H227       -7.8537  -21.3306  -54.0267 H         1 UNK         0.0600 
    228 H228       -6.6468  -20.1845  -54.5857 H         1 UNK         0.0600 
    229 H229       -6.9495  -21.6513  -55.5078 H         1 UNK         0.0600 
    230 H230       -4.1874  -20.0370  -53.3395 H         1 UNK         0.3000 
    231 H231       -2.2353  -20.8291  -55.4365 H         1 UNK         0.0600 
    232 H232       -1.5334  -20.0328  -52.5596 H         1 UNK         0.0600 
    233 H233       -0.3732  -20.2495  -53.8725 H         1 UNK         0.0600 
    234 H234       -1.2908  -21.6191  -53.2726 H         1 UNK         0.0600 
    235 H235       -1.1961  -18.2222  -53.6033 H         1 UNK         0.3000 
    236 H236       -1.9174  -16.2801  -55.6448 H         1 UNK         0.0600 
    237 H237       -0.3672  -14.8272  -54.3684 H         1 UNK         0.0600 
    238 H238       -0.2990  -16.0025  -53.0600 H         1 UNK         0.0600 
    239 H239        0.3649  -16.3967  -54.6454 H         1 UNK         0.0600 
    240 H240       -4.2103  -17.2804  -54.2433 H         1 UNK         0.3000 
    241 H241       -5.0528  -15.4734  -52.1701 H         1 UNK         0.0600 
    242 H242       -7.2311  -13.1243  -53.7107 H         1 UNK         0.3800 
    243 H243       -6.7610  -13.8563  -52.2045 H         1 UNK         0.3800 
    244 H244       -7.1483  -16.7218  -52.1622 H         1 UNK         0.0800 
    245 H245       -6.8186  -17.4097  -53.7275 H         1 UNK         0.0800 
    246 H246       -5.6509  -17.0472  -50.1188 H         1 UNK         0.0800 
    247 H247       -5.3307  -18.6947  -49.6445 H         1 UNK         0.0800 
@<TRIPOS>BOND
     1    1    2 1    
     2    1  127 1    
     3    1  128 1    
     4    1  129 1    
     5    2    3 2    
     6    2    4 am   BACKBONE|DICT|INTERRES
     7    4    5 1    
     8    4  130 1    
     9    5    6 1    
    10    5   65 1    
    11    5  131 1    
    12    6    7 1    
    13    6  132 1    
    14    6  133 1    
    15    7    8 1    
    16    8    9 1    
    17    8  134 1    
    18    8  135 1    
    19    9   10 ar   
    20    9   14 ar   
    21   10   11 ar   
    22   10  136 1    
    23   11   12 ar   
    24   11  126 1    
    25   12   13 ar   
    26   12  137 1    
    27   13   14 ar   
    28   13   15 1    
    29   14  138 1    
    30   15   16 1    
    31   15  139 1    
    32   15  140 1    
    33   16   17 1    
    34   17   18 1    
    35   17  141 1    
    36   17  142 1    
    37   18   19 1    
    38   18   67 1    
    39   18  143 1    
    40   19   20 am   BACKBONE|DICT|INTERRES
    41   19  144 1    
    42   20   21 2    
    43   20   22 1    
    44   22   23 1    
    45   22   24 1    
    46   22  145 1    
    47   23  146 1    
    48   23  147 1    
    49   23  148 1    
    50   24   25 am   BACKBONE|DICT|INTERRES
    51   24  149 1    
    52   25   26 2    
    53   25   27 1    
    54   27   28 1    
    55   27   29 1    
    56   27  150 1    
    57   28  151 1    
    58   28  152 1    
    59   28  153 1    
    60   29   30 am   BACKBONE|DICT|INTERRES
    61   29  154 1    
    62   30   31 2    
    63   30   32 1    
    64   32   33 1    
    65   32   34 1    
    66   32  155 1    
    67   33  156 1    
    68   33  157 1    
    69   33  158 1    
    70   34   35 am   BACKBONE|DICT|INTERRES
    71   34  159 1    
    72   35   36 2    
    73   35   37 1    
    74   37   38 1    
    75   37   39 1    
    76   37  160 1    
    77   38  161 1    
    78   38  162 1    
    79   38  163 1    
    80   39   40 am   BACKBONE|DICT|INTERRES
    81   39  164 1    
    82   40   41 2    
    83   40   42 1    
    84   42   43 1    
    85   42   44 1    
    86   42  165 1    
    87   43  166 1    
    88   43  167 1    
    89   43  168 1    
    90   44   45 am   BACKBONE|DICT|INTERRES
    91   44  169 1    
    92   45   46 2    
    93   45   47 1    
    94   47   48 1    
    95   47   49 1    
    96   47  170 1    
    97   48  171 1    
    98   48  172 1    
    99   48  173 1    
   100   49   50 am   BACKBONE|DICT|INTERRES
   101   49  174 1    
   102   50   51 2    
   103   50   52 1    
   104   52   53 1    
   105   52   54 1    
   106   52  175 1    
   107   53  176 1    
   108   53  177 1    
   109   53  178 1    
   110   54   55 am   BACKBONE|DICT|INTERRES
   111   54  179 1    
   112   55   56 2    
   113   55   57 1    
   114   57   58 1    
   115   57   59 1    
   116   57  180 1    
   117   58  181 1    
   118   58  182 1    
   119   58  183 1    
   120   59   60 am   BACKBONE|DICT|INTERRES
   121   59  184 1    
   122   60   61 2    
   123   60   62 1    
   124   62   63 1    
   125   62   64 1    
   126   62  185 1    
   127   63  186 1    
   128   63  187 1    
   129   63  188 1    
   130   64   65 am   BACKBONE|DICT|INTERRES
   131   64  189 1    
   132   65   66 2    
   133   67   68 2    
   134   67   69 am   BACKBONE|DICT|INTERRES
   135   69   70 1    
   136   69  190 1    
   137   70   71 1    
   138   70   72 1    
   139   70  191 1    
   140   71  192 1    
   141   71  193 1    
   142   71  194 1    
   143   72   73 2    
   144   72   74 am   BACKBONE|DICT|INTERRES
   145   74   75 1    
   146   74  195 1    
   147   75   76 1    
   148   75   77 1    
   149   75  196 1    
   150   76  197 1    
   151   76  198 1    
   152   76  199 1    
   153   77   78 2    
   154   77   79 am   BACKBONE|DICT|INTERRES
   155   79   80 1    
   156   79  200 1    
   157   80   81 1    
   158   80   82 1    
   159   80  201 1    
   160   81  202 1    
   161   81  203 1    
   162   81  204 1    
   163   82   83 2    
   164   82   84 am   BACKBONE|DICT|INTERRES
   165   84   85 1    
   166   84  205 1    
   167   85   86 1    
   168   85   87 1    
   169   85  206 1    
   170   86  207 1    
   171   86  208 1    
   172   86  209 1    
   173   87   88 2    
   174   87   89 am   BACKBONE|DICT|INTERRES
   175   89   90 1    
   176   89  210 1    
   177   90   91 1    
   178   90   92 1    
   179   90  211 1    
   180   91  212 1    
   181   91  213 1    
   182   91  214 1    
   183   92   93 2    
   184   92   94 am   BACKBONE|DICT|INTERRES
   185   94   95 1    
   186   94  215 1    
   187   95   96 1    
   188   95   97 1    
   189   95  216 1    
   190   96  217 1    
   191   96  218 1    
   192   96  219 1    
   193   97   98 2    
   194   97   99 am   BACKBONE|DICT|INTERRES
   195   99  100 1    
   196   99  220 1    
   197  100  101 1    
   198  100  102 1    
   199  100  221 1    
   200  101  222 1    
   201  101  223 1    
   202  101  224 1    
   203  102  103 2    
   204  102  104 am   BACKBONE|DICT|INTERRES
   205  104  105 1    
   206  104  225 1    
   207  105  106 1    
   208  105  107 1    
   209  105  226 1    
   210  106  227 1    
   211  106  228 1    
   212  106  229 1    
   213  107  108 2    
   214  107  109 am   BACKBONE|DICT|INTERRES
   215  109  110 1    
   216  109  230 1    
   217  110  111 1    
   218  110  112 1    
   219  110  231 1    
   220  111  232 1    
   221  111  233 1    
   222  111  234 1    
   223  112  113 2    
   224  112  114 am   BACKBONE|DICT|INTERRES
   225  114  115 1    
   226  114  235 1    
   227  115  116 1    
   228  115  117 1    
   229  115  236 1    
   230  116  237 1    
   231  116  238 1    
   232  116  239 1    
   233  117  118 2    
   234  117  119 am   BACKBONE|DICT|INTERRES
   235  119  120 1    
   236  119  240 1    
   237  120  121 1    
   238  120  124 1    
   239  120  241 1    
   240  121  122 am   BACKBONE|DICT|INTERRES
   241  121  123 2    
   242  122  242 1    
   243  122  243 1    
   244  124  125 1    
   245  124  244 1    
   246  124  245 1    
   247  125  126 1    
   248  126  246 1    
   249  126  247 1    
@<TRIPOS>SUBSTRUCTURE
     1 UNK         1 GROUP             0       ****    0 ROOT    
