@<TRIPOS>MOLECULE
3R540
247   249    1
SMALL
USER_CHARGES


@<TRIPOS>ATOM
      1 CA          5.5956  -12.5171  -51.0362 C.3       0 UNK        -0.1800 
      2 C           5.2435  -12.6790  -49.5645 C.2       0 UNK         0.5000 
      3 O           5.4671  -11.7583  -48.7784 O.2       0 UNK        -0.5000 
      4 N           4.7133  -13.8511  -49.1898 N.am      1 UNK        -0.5000 
      5 CA          4.2407  -14.2613  -47.8557 C.3       1 UNK         0.1400 
      6 C6          3.1239  -13.3587  -47.2651 C.3       23 UNK        -0.0398 
      7 S7          1.6338  -13.2940  -48.3190 S.3       23 UNK        -0.2404 
      8 C8          0.5123  -14.4464  -47.4654 C.3       23 UNK        -0.0205 
      9 C9          0.0439  -15.5642  -48.3820 C.ar      23 UNK        -0.0193 
     10 C10        -1.2599  -15.5535  -48.8837 C.ar      23 UNK        -0.1150 
     11 C11        -1.7364  -16.6211  -49.6479 C.ar      23 UNK        -0.0193 
     12 C12        -0.8777  -17.6785  -49.9581 C.ar      23 UNK        -0.1150 
     13 C13         0.4393  -17.6889  -49.4884 C.ar      23 UNK        -0.0193 
     14 C14         0.8904  -16.6342  -48.6887 C.ar      23 UNK        -0.1150 
     15 C15         1.3767  -18.8328  -49.8496 C.3       23 UNK        -0.0205 
     16 S16         1.4953  -20.0780  -48.5269 S.3       23 UNK        -0.2404 
     17 C17        -0.1459  -20.8627  -48.6283 C.3       23 UNK        -0.0398 
     18 CA         -0.2397  -22.1580  -47.7888 C.3       11 UNK         0.1400 
     19 N          -0.0954  -21.9163  -46.3499 N.am      11 UNK        -0.5000 
     20 C          -0.0129  -22.8754  -45.4167 C.2       10 UNK         0.5000 
     21 O          -0.0181  -24.0787  -45.6701 O.2       10 UNK        -0.5000 
     22 CA          0.0202  -22.4196  -43.9488 C.3       10 UNK         0.1400 
     23 CB          1.4240  -21.9467  -43.5413 C.3       10 UNK        -0.1800 
     24 N          -0.9606  -21.3684  -43.6831 N.am      10 UNK        -0.5000 
     25 C          -2.2884  -21.5514  -43.7081 C.2       9 UNK         0.5000 
     26 O          -2.8266  -22.6365  -43.9251 O.2       9 UNK        -0.5000 
     27 CA         -3.1614  -20.3029  -43.4963 C.3       9 UNK         0.1400 
     28 CB         -3.3226  -19.9982  -41.9998 C.3       9 UNK        -0.1800 
     29 N          -2.6225  -19.1261  -44.1753 N.am      9 UNK        -0.5000 
     30 C          -2.5478  -18.9882  -45.5070 C.2       8 UNK         0.5000 
     31 O          -2.9443  -19.8333  -46.3096 O.2       8 UNK        -0.5000 
     32 CA         -1.8679  -17.7073  -46.0224 C.3       8 UNK         0.1400 
     33 CB         -2.8753  -16.5471  -46.0203 C.3       8 UNK        -0.1800 
     34 N          -0.6825  -17.3251  -45.2485 N.am      8 UNK        -0.5000 
     35 C           0.3811  -18.1175  -45.0352 C.2       7 UNK         0.5000 
     36 O           0.4753  -19.2558  -45.4881 O.2       7 UNK        -0.5000 
     37 CA          1.5131  -17.5945  -44.1287 C.3       7 UNK         0.1400 
     38 CB          2.7233  -17.1634  -44.9698 C.3       7 UNK        -0.1800 
     39 N           1.1159  -16.4969  -43.2462 N.am      7 UNK        -0.5000 
     40 C           0.1811  -16.5748  -42.2883 C.2       6 UNK         0.5000 
     41 O          -0.4084  -17.6158  -41.9939 O.2       6 UNK        -0.5000 
     42 CA         -0.1925  -15.2627  -41.5695 C.3       6 UNK         0.1400 
     43 CB          0.5329  -15.1724  -40.2185 C.3       6 UNK        -0.1800 
     44 N           0.0767  -14.0344  -42.3272 N.am      6 UNK        -0.5000 
     45 C          -0.3775  -13.7210  -43.5484 C.2       5 UNK         0.5000 
     46 O          -1.0303  -14.4970  -44.2459 O.2       5 UNK        -0.5000 
     47 CA         -0.0156  -12.3329  -44.1183 C.3       5 UNK         0.1400 
     48 CB         -1.2311  -11.3883  -44.0816 C.3       5 UNK        -0.1800 
     49 N           1.1729  -11.6971  -43.5298 N.am      5 UNK        -0.5000 
     50 C           1.3628  -11.2122  -42.2956 C.2       4 UNK         0.5000 
     51 O           0.5255  -11.2846  -41.3954 O.2       4 UNK        -0.5000 
     52 CA          2.7576  -10.6138  -42.0150 C.3       4 UNK         0.1400 
     53 CB          2.7977   -9.8012  -40.7084 C.3       4 UNK        -0.1800 
     54 N           3.7857  -11.6550  -41.9518 N.am      4 UNK        -0.5000 
     55 C           4.2775  -12.3245  -43.0010 C.2       3 UNK         0.5000 
     56 O           3.9209  -12.1221  -44.1661 O.2       3 UNK        -0.5000 
     57 CA          5.2948  -13.4364  -42.6830 C.3       3 UNK         0.1400 
     58 CB          4.5652  -14.6905  -42.1747 C.3       3 UNK        -0.1800 
     59 N           6.0595  -13.7947  -43.8738 N.am      3 UNK        -0.5000 
     60 C           7.0332  -13.0594  -44.4211 C.2       2 UNK         0.5000 
     61 O           7.5444  -12.0838  -43.8693 O.2       2 UNK        -0.5000 
     62 CA          7.4814  -13.4519  -45.8437 C.3       2 UNK         0.1400 
     63 CB          8.3706  -14.7103  -45.8357 C.3       2 UNK        -0.1800 
     64 N           6.3633  -13.5735  -46.7913 N.am      2 UNK        -0.5000 
     65 C           5.3663  -14.4688  -46.8193 C.2       1 UNK         0.5000 
     66 O           5.2923  -15.4269  -46.0498 O.2       1 UNK        -0.5000 
     67 C          -1.5412  -22.9166  -48.1153 C.2       11 UNK         0.5000 
     68 O          -1.5088  -23.8514  -48.9170 O.2       11 UNK        -0.5000 
     69 N          -2.6527  -22.5290  -47.4745 N.am      12 UNK        -0.5000 
     70 CA         -3.9432  -23.2067  -47.5867 C.3       12 UNK         0.1400 
     71 CB         -5.0291  -22.3696  -46.8948 C.3       12 UNK        -0.1800 
     72 C          -3.9082  -24.6412  -47.0279 C.2       12 UNK         0.5000 
     73 O          -4.3774  -25.5595  -47.6997 O.2       12 UNK        -0.5000 
     74 N          -3.3214  -24.8170  -45.8342 N.am      13 UNK        -0.5000 
     75 CA         -3.1642  -26.1119  -45.1644 C.3       13 UNK         0.1400 
     76 CB         -2.6403  -25.8936  -43.7372 C.3       13 UNK        -0.1800 
     77 C          -2.2538  -27.0902  -45.9305 C.2       13 UNK         0.5000 
     78 O          -2.5544  -28.2830  -45.9874 O.2       13 UNK        -0.5000 
     79 N          -1.1760  -26.5660  -46.5284 N.am      14 UNK        -0.5000 
     80 CA         -0.2402  -27.3095  -47.3746 C.3       14 UNK         0.1400 
     81 CB          1.0586  -26.4968  -47.5031 C.3       14 UNK        -0.1800 
     82 C          -0.7971  -27.6354  -48.7753 C.2       14 UNK         0.5000 
     83 O          -0.1824  -28.4273  -49.4907 O.2       14 UNK        -0.5000 
     84 N          -1.9171  -26.9997  -49.1533 N.am      15 UNK        -0.5000 
     85 CA         -2.5545  -27.0213  -50.4746 C.3       15 UNK         0.1400 
     86 CB         -3.0591  -28.4343  -50.8335 C.3       15 UNK        -0.1800 
     87 C          -1.6744  -26.3900  -51.5762 C.2       15 UNK         0.5000 
     88 O          -1.8046  -26.7366  -52.7515 O.2       15 UNK        -0.5000 
     89 N          -0.8063  -25.4521  -51.1734 N.am      16 UNK        -0.5000 
     90 CA         -0.0374  -24.5795  -52.0594 C.3       16 UNK         0.1400 
     91 CB          1.1945  -24.0595  -51.3024 C.3       16 UNK        -0.1800 
     92 C          -0.8990  -23.4068  -52.5644 C.2       16 UNK         0.5000 
     93 O          -0.6356  -22.8782  -53.6448 O.2       16 UNK        -0.5000 
     94 N          -1.9196  -23.0440  -51.7791 N.am      17 UNK        -0.5000 
     95 CA         -2.9746  -22.0998  -52.1205 C.3       17 UNK         0.1400 
     96 CB         -2.7201  -20.7691  -51.3934 C.3       17 UNK        -0.1800 
     97 C          -4.3423  -22.7416  -51.8134 C.2       17 UNK         0.5000 
     98 O          -4.4481  -23.9707  -51.8376 O.2       17 UNK        -0.5000 
     99 N          -5.3612  -21.9091  -51.5548 N.am      18 UNK        -0.5000 
    100 CA        -6.7864  -22.2413  -51.4398 C.3       18 UNK         0.1400 
    101 CB        -7.0416  -23.2391  -50.2888 C.3       18 UNK        -0.1800 
    102 C         -7.4090  -22.6975  -52.7786 C.2       18 UNK         0.5000 
    103 O         -6.7405  -22.6941  -53.8165 O.2       18 UNK        -0.5000 
    104 N         -8.7034  -23.0466  -52.7371 N.am      19 UNK        -0.5000 
    105 CA        -9.5510  -23.4283  -53.8715 C.3       19 UNK         0.1400 
    106 CB        -9.1058  -24.7860  -54.4617 C.3       19 UNK        -0.1800 
    107 C         -9.6467  -22.2897  -54.9089 C.2       19 UNK         0.5000 
    108 O        -10.3579  -21.3145  -54.6628 O.2       19 UNK        -0.5000 
    109 N         -8.9322  -22.4232  -56.0337 N.am      20 UNK        -0.5000 
    110 CA        -8.8277  -21.4053  -57.0803 C.3       20 UNK         0.1400 
    111 CB        -8.3517  -22.0768  -58.3780 C.3       20 UNK        -0.1800 
    112 C         -7.8911  -20.2389  -56.7028 C.2       20 UNK         0.5000 
    113 O         -8.0383  -19.1483  -57.2571 O.2       20 UNK        -0.5000 
    114 N         -6.9464  -20.4824  -55.7853 N.am      21 UNK        -0.5000 
    115 CA        -6.0225  -19.4860  -55.2464 C.3       21 UNK         0.1400 
    116 CB        -4.6700  -20.1699  -54.9887 C.3       21 UNK        -0.1800 
    117 C         -6.5858  -18.8534  -53.9591 C.2       21 UNK         0.5000 
    118 O         -7.6590  -19.2410  -53.4894 O.2       21 UNK        -0.5000 
    119 N         -5.8473  -17.8791  -53.4143 N.am      22 UNK        -0.5000 
    120 CA        -6.1647  -17.1746  -52.1626 C.3       22 UNK         0.1400 
    121 C         -6.2664  -18.0954  -50.9118 C.2       22 UNK         0.5000 
    122 N         -7.0308  -17.6996  -49.9033 N.am      22 UNK        -0.7600 
    123 O         -5.6317  -19.1431  -50.8295 O.2       22 UNK        -0.5000 
    124 C124       -5.2043  -15.9791  -51.9205 C.3       23 UNK        -0.0398 
    125 S125       -3.4214  -16.3968  -51.8561 S.3       23 UNK        -0.2404 
    126 C126       -3.1967  -16.6627  -50.0690 C.3       23 UNK        -0.0205 
    127 H127        5.3513  -13.4094  -51.6131 H         1 UNK         0.0600 
    128 H128        6.6620  -12.3211  -51.1476 H         1 UNK         0.0600 
    129 H129        5.0470  -11.6768  -51.4618 H         1 UNK         0.0600 
    130 H130        4.5928  -14.5583  -49.9012 H         1 UNK         0.3000 
    131 H131        3.8048  -15.2496  -48.0074 H         1 UNK         0.0600 
    132 H132        2.8438  -13.6932  -46.2650 H         1 UNK         0.0800 
    133 H133        3.4859  -12.3384  -47.1306 H         1 UNK         0.0800 
    134 H134        0.9809  -14.8855  -46.5863 H         1 UNK         0.0800 
    135 H135       -0.3439  -13.8829  -47.0918 H         1 UNK         0.0800 
    136 H136       -1.9210  -14.7346  -48.6374 H         1 UNK         0.1150 
    137 H137       -1.2425  -18.4970  -50.5578 H         1 UNK         0.1150 
    138 H138        1.8981  -16.6513  -48.3003 H         1 UNK         0.1150 
    139 H139        1.0597  -19.3117  -50.7774 H         1 UNK         0.0800 
    140 H140        2.3735  -18.4335  -50.0424 H         1 UNK         0.0800 
    141 H141       -0.3376  -21.0814  -49.6796 H         1 UNK         0.0800 
    142 H142       -0.9026  -20.1426  -48.3121 H         1 UNK         0.0800 
    143 H143        0.5851  -22.8098  -48.0839 H         1 UNK         0.0600 
    144 H144       -0.0245  -20.9430  -46.0587 H         1 UNK         0.3000 
    145 H145       -0.2356  -23.2806  -43.3276 H         1 UNK         0.0600 
    146 H146        1.4524  -21.6525  -42.4921 H         1 UNK         0.0600 
    147 H147        1.7599  -21.0983  -44.1370 H         1 UNK         0.0600 
    148 H148        2.1541  -22.7459  -43.6746 H         1 UNK         0.0600 
    149 H149       -0.6036  -20.4325  -43.5586 H         1 UNK         0.3000 
    150 H150       -4.1495  -20.5122  -43.9116 H         1 UNK         0.0600 
    151 H151       -4.0007  -19.1599  -41.8392 H         1 UNK         0.0600 
    152 H152       -2.3680  -19.7510  -41.5332 H         1 UNK         0.0600 
    153 H153       -3.7359  -20.8569  -41.4691 H         1 UNK         0.0600 
    154 H154       -2.2296  -18.4011  -43.5905 H         1 UNK         0.3000 
    155 H155       -1.5440  -17.8933  -47.0470 H         1 UNK         0.0600 
    156 H156       -3.7218  -16.7648  -46.6728 H         1 UNK         0.0600 
    157 H157       -2.4213  -15.6220  -46.3720 H         1 UNK         0.0600 
    158 H158       -3.2676  -16.3565  -45.0206 H         1 UNK         0.0600 
    159 H159       -0.6986  -16.3988  -44.8340 H         1 UNK         0.3000 
    160 H160        1.8224  -18.4300  -43.4974 H         1 UNK         0.0600 
    161 H161        2.5189  -16.2638  -45.5482 H         1 UNK         0.0600 
    162 H162        3.0114  -17.9450  -45.6745 H         1 UNK         0.0600 
    163 H163        3.5908  -16.9678  -44.3401 H         1 UNK         0.0600 
    164 H164        1.5322  -15.5961  -43.4238 H         1 UNK         0.3000 
    165 H165       -1.2672  -15.2964  -41.3812 H         1 UNK         0.0600 
    166 H166        0.2038  -14.3016  -39.6510 H         1 UNK         0.0600 
    167 H167        0.3327  -16.0525  -39.6058 H         1 UNK         0.0600 
    168 H168        1.6135  -15.1003  -40.3476 H         1 UNK         0.0600 
    169 H169        0.5410  -13.2910  -41.8196 H         1 UNK         0.3000 
    170 H170        0.2376  -12.4940  -45.1665 H         1 UNK         0.0600 
    171 H171       -1.5698  -11.1981  -43.0628 H         1 UNK         0.0600 
    172 H172       -0.9993  -10.4289  -44.5440 H         1 UNK         0.0600 
    173 H173       -2.0724  -11.8168  -44.6279 H         1 UNK         0.0600 
    174 H174        1.9904  -11.6817  -44.1332 H         1 UNK         0.3000 
    175 H175        2.9956   -9.9335  -42.8357 H         1 UNK         0.0600 
    176 H176        2.6040  -10.4265  -39.8359 H         1 UNK         0.0600 
    177 H177        3.7687   -9.3254  -40.5704 H         1 UNK         0.0600 
    178 H178        2.0479   -9.0090  -40.7182 H         1 UNK         0.0600 
    179 H179        4.1051  -11.9021  -41.0262 H         1 UNK         0.3000 
    180 H180        5.9815  -13.0819  -41.9116 H         1 UNK         0.0600 
    181 H181        5.2655  -15.5015  -41.9742 H         1 UNK         0.0600 
    182 H182        3.8352  -15.0500  -42.9001 H         1 UNK         0.0600 
    183 H183        4.0311  -14.4873  -41.2458 H         1 UNK         0.0600 
    184 H184        5.6834  -14.5453  -44.4465 H         1 UNK         0.3000 
    185 H185        8.0908  -12.6281  -46.2185 H         1 UNK         0.0600 
    186 H186        8.7165  -14.9538  -46.8403 H         1 UNK         0.0600 
    187 H187        9.2545  -14.5540  -45.2163 H         1 UNK         0.0600 
    188 H188        7.8495  -15.5821  -45.4399 H         1 UNK         0.0600 
    189 H189        6.2742  -12.8028  -47.4494 H         1 UNK         0.3000 
    190 H190       -2.6187  -21.7143  -46.8687 H         1 UNK         0.3000 
    191 H191       -4.1925  -23.2726  -48.6478 H         1 UNK         0.0600 
    192 H192       -5.1350  -21.3949  -47.3718 H         1 UNK         0.0600 
    193 H193       -4.8008  -22.2029  -45.8419 H         1 UNK         0.0600 
    194 H194       -5.9993  -22.8649  -46.9457 H         1 UNK         0.0600 
    195 H195       -2.9884  -24.0037  -45.3241 H         1 UNK         0.3000 
    196 H196       -4.1530  -26.5700  -45.0948 H         1 UNK         0.0600 
    197 H197       -3.3303  -25.2844  -43.1533 H         1 UNK         0.0600 
    198 H198       -1.6708  -25.3945  -43.7372 H         1 UNK         0.0600 
    199 H199       -2.5222  -26.8429  -43.2132 H         1 UNK         0.0600 
    200 H200       -0.9563  -25.5858  -46.3681 H         1 UNK         0.3000 
    201 H201       -0.0055  -28.2569  -46.8852 H         1 UNK         0.0600 
    202 H202        1.5041  -26.3085  -46.5262 H         1 UNK         0.0600 
    203 H203        0.8819  -25.5327  -47.9822 H         1 UNK         0.0600 
    204 H204        1.8002  -27.0293  -48.0997 H         1 UNK         0.0600 
    205 H205       -2.3434  -26.3708  -48.4845 H         1 UNK         0.3000 
    206 H206       -3.4297  -26.3751  -50.3901 H         1 UNK         0.0600 
    207 H207       -2.2374  -29.1248  -51.0241 H         1 UNK         0.0600 
    208 H208       -3.6693  -28.8497  -50.0314 H         1 UNK         0.0600 
    209 H209       -3.6780  -28.4100  -51.7311 H         1 UNK         0.0600 
    210 H210       -0.8233  -25.1880  -50.1937 H         1 UNK         0.3000 
    211 H211        0.3025  -25.1527  -52.9244 H         1 UNK         0.0600 
    212 H212        0.9131  -23.4561  -50.4393 H         1 UNK         0.0600 
    213 H213        1.8144  -23.4370  -51.9488 H         1 UNK         0.0600 
    214 H214        1.8160  -24.8820  -50.9480 H         1 UNK         0.0600 
    215 H215       -2.0632  -23.5628  -50.9204 H         1 UNK         0.3000 
    216 H216       -2.9545  -21.9133  -53.1951 H         1 UNK         0.0600 
    217 H217       -3.3663  -19.9792  -51.7753 H         1 UNK         0.0600 
    218 H218       -2.8823  -20.8516  -50.3178 H         1 UNK         0.0600 
    219 H219       -1.6958  -20.4393  -51.5605 H         1 UNK         0.0600 
    220 H220       -5.1763  -20.9110  -51.4968 H         1 UNK         0.3000 
    221 H221       -7.2834  -21.3054  -51.1812 H         1 UNK         0.0600 
    222 H222       -6.6818  -24.2406  -50.5253 H         1 UNK         0.0600 
    223 H223       -6.5490  -22.9129  -49.3742 H         1 UNK         0.0600 
    224 H224       -8.1046  -23.3219  -50.0622 H         1 UNK         0.0600 
    225 H225       -9.1831  -22.9806  -51.8507 H         1 UNK         0.3000 
    226 H226      -10.5582  -23.5631  -53.4742 H         1 UNK         0.0600 
    227 H227       -9.1678  -25.5725  -53.7096 H         1 UNK         0.0600 
    228 H228       -9.7512  -25.0830  -55.2893 H         1 UNK         0.0600 
    229 H229       -8.0802  -24.7688  -54.8310 H         1 UNK         0.0600 
    230 H230       -8.3544  -23.2447  -56.1393 H         1 UNK         0.3000 
    231 H231       -9.8201  -20.9862  -57.2596 H         1 UNK         0.0600 
    232 H232       -8.2893  -21.3534  -59.1921 H         1 UNK         0.0600 
    233 H233       -9.0414  -22.8600  -58.6932 H         1 UNK         0.0600 
    234 H234       -7.3642  -22.5247  -58.2604 H         1 UNK         0.0600 
    235 H235       -6.9488  -21.3784  -55.3075 H         1 UNK         0.3000 
    236 H236       -5.8694  -18.6865  -55.9742 H         1 UNK         0.0600 
    237 H237       -4.7698  -20.9697  -54.2582 H         1 UNK         0.0600 
    238 H238       -4.2689  -20.6047  -55.9043 H         1 UNK         0.0600 
    239 H239       -3.9253  -19.4682  -54.6119 H         1 UNK         0.0600 
    240 H240       -4.9634  -17.6352  -53.8361 H         1 UNK         0.3000 
    241 H241       -7.1621  -16.7552  -52.3086 H         1 UNK         0.0600 
    242 H242       -7.0909  -18.2838  -49.0847 H         1 UNK         0.3800 
    243 H243       -7.5644  -16.8452  -49.9404 H         1 UNK         0.3800 
    244 H244       -5.3317  -15.2598  -52.7305 H         1 UNK         0.0800 
    245 H245       -5.4878  -15.4347  -51.0185 H         1 UNK         0.0800 
    246 H246       -3.7655  -15.9168  -49.5120 H         1 UNK         0.0800 
    247 H247       -3.6119  -17.6320  -49.7914 H         1 UNK         0.0800 
@<TRIPOS>BOND
     1    1    2 1    
     2    1  127 1    
     3    1  128 1    
     4    1  129 1    
     5    2    3 2    
     6    2    4 am   BACKBONE|DICT|INTERRES
     7    4    5 1    
     8    4  130 1    
     9    5    6 1    
    10    5   65 1    
    11    5  131 1    
    12    6    7 1    
    13    6  132 1    
    14    6  133 1    
    15    7    8 1    
    16    8    9 1    
    17    8  134 1    
    18    8  135 1    
    19    9   10 ar   
    20    9   14 ar   
    21   10   11 ar   
    22   10  136 1    
    23   11   12 ar   
    24   11  126 1    
    25   12   13 ar   
    26   12  137 1    
    27   13   14 ar   
    28   13   15 1    
    29   14  138 1    
    30   15   16 1    
    31   15  139 1    
    32   15  140 1    
    33   16   17 1    
    34   17   18 1    
    35   17  141 1    
    36   17  142 1    
    37   18   19 1    
    38   18   67 1    
    39   18  143 1    
    40   19   20 am   BACKBONE|DICT|INTERRES
    41   19  144 1    
    42   20   21 2    
    43   20   22 1    
    44   22   23 1    
    45   22   24 1    
    46   22  145 1    
    47   23  146 1    
    48   23  147 1    
    49   23  148 1    
    50   24   25 am   BACKBONE|DICT|INTERRES
    51   24  149 1    
    52   25   26 2    
    53   25   27 1    
    54   27   28 1    
    55   27   29 1    
    56   27  150 1    
    57   28  151 1    
    58   28  152 1    
    59   28  153 1    
    60   29   30 am   BACKBONE|DICT|INTERRES
    61   29  154 1    
    62   30   31 2    
    63   30   32 1    
    64   32   33 1    
    65   32   34 1    
    66   32  155 1    
    67   33  156 1    
    68   33  157 1    
    69   33  158 1    
    70   34   35 am   BACKBONE|DICT|INTERRES
    71   34  159 1    
    72   35   36 2    
    73   35   37 1    
    74   37   38 1    
    75   37   39 1    
    76   37  160 1    
    77   38  161 1    
    78   38  162 1    
    79   38  163 1    
    80   39   40 am   BACKBONE|DICT|INTERRES
    81   39  164 1    
    82   40   41 2    
    83   40   42 1    
    84   42   43 1    
    85   42   44 1    
    86   42  165 1    
    87   43  166 1    
    88   43  167 1    
    89   43  168 1    
    90   44   45 am   BACKBONE|DICT|INTERRES
    91   44  169 1    
    92   45   46 2    
    93   45   47 1    
    94   47   48 1    
    95   47   49 1    
    96   47  170 1    
    97   48  171 1    
    98   48  172 1    
    99   48  173 1    
   100   49   50 am   BACKBONE|DICT|INTERRES
   101   49  174 1    
   102   50   51 2    
   103   50   52 1    
   104   52   53 1    
   105   52   54 1    
   106   52  175 1    
   107   53  176 1    
   108   53  177 1    
   109   53  178 1    
   110   54   55 am   BACKBONE|DICT|INTERRES
   111   54  179 1    
   112   55   56 2    
   113   55   57 1    
   114   57   58 1    
   115   57   59 1    
   116   57  180 1    
   117   58  181 1    
   118   58  182 1    
   119   58  183 1    
   120   59   60 am   BACKBONE|DICT|INTERRES
   121   59  184 1    
   122   60   61 2    
   123   60   62 1    
   124   62   63 1    
   125   62   64 1    
   126   62  185 1    
   127   63  186 1    
   128   63  187 1    
   129   63  188 1    
   130   64   65 am   BACKBONE|DICT|INTERRES
   131   64  189 1    
   132   65   66 2    
   133   67   68 2    
   134   67   69 am   BACKBONE|DICT|INTERRES
   135   69   70 1    
   136   69  190 1    
   137   70   71 1    
   138   70   72 1    
   139   70  191 1    
   140   71  192 1    
   141   71  193 1    
   142   71  194 1    
   143   72   73 2    
   144   72   74 am   BACKBONE|DICT|INTERRES
   145   74   75 1    
   146   74  195 1    
   147   75   76 1    
   148   75   77 1    
   149   75  196 1    
   150   76  197 1    
   151   76  198 1    
   152   76  199 1    
   153   77   78 2    
   154   77   79 am   BACKBONE|DICT|INTERRES
   155   79   80 1    
   156   79  200 1    
   157   80   81 1    
   158   80   82 1    
   159   80  201 1    
   160   81  202 1    
   161   81  203 1    
   162   81  204 1    
   163   82   83 2    
   164   82   84 am   BACKBONE|DICT|INTERRES
   165   84   85 1    
   166   84  205 1    
   167   85   86 1    
   168   85   87 1    
   169   85  206 1    
   170   86  207 1    
   171   86  208 1    
   172   86  209 1    
   173   87   88 2    
   174   87   89 am   BACKBONE|DICT|INTERRES
   175   89   90 1    
   176   89  210 1    
   177   90   91 1    
   178   90   92 1    
   179   90  211 1    
   180   91  212 1    
   181   91  213 1    
   182   91  214 1    
   183   92   93 2    
   184   92   94 am   BACKBONE|DICT|INTERRES
   185   94   95 1    
   186   94  215 1    
   187   95   96 1    
   188   95   97 1    
   189   95  216 1    
   190   96  217 1    
   191   96  218 1    
   192   96  219 1    
   193   97   98 2    
   194   97   99 am   BACKBONE|DICT|INTERRES
   195   99  100 1    
   196   99  220 1    
   197  100  101 1    
   198  100  102 1    
   199  100  221 1    
   200  101  222 1    
   201  101  223 1    
   202  101  224 1    
   203  102  103 2    
   204  102  104 am   BACKBONE|DICT|INTERRES
   205  104  105 1    
   206  104  225 1    
   207  105  106 1    
   208  105  107 1    
   209  105  226 1    
   210  106  227 1    
   211  106  228 1    
   212  106  229 1    
   213  107  108 2    
   214  107  109 am   BACKBONE|DICT|INTERRES
   215  109  110 1    
   216  109  230 1    
   217  110  111 1    
   218  110  112 1    
   219  110  231 1    
   220  111  232 1    
   221  111  233 1    
   222  111  234 1    
   223  112  113 2    
   224  112  114 am   BACKBONE|DICT|INTERRES
   225  114  115 1    
   226  114  235 1    
   227  115  116 1    
   228  115  117 1    
   229  115  236 1    
   230  116  237 1    
   231  116  238 1    
   232  116  239 1    
   233  117  118 2    
   234  117  119 am   BACKBONE|DICT|INTERRES
   235  119  120 1    
   236  119  240 1    
   237  120  121 1    
   238  120  124 1    
   239  120  241 1    
   240  121  122 am   BACKBONE|DICT|INTERRES
   241  121  123 2    
   242  122  242 1    
   243  122  243 1    
   244  124  125 1    
   245  124  244 1    
   246  124  245 1    
   247  125  126 1    
   248  126  246 1    
   249  126  247 1    
@<TRIPOS>SUBSTRUCTURE
     1 UNK         1 GROUP             0       ****    0 ROOT    
