@<TRIPOS>MOLECULE
3R540
247   249    1
SMALL
USER_CHARGES


@<TRIPOS>ATOM
      1 CA         -6.3690  -11.9619  -48.6844 C.3       0 UNK        -0.1800 
      2 C          -5.3787  -12.9941  -48.1653 C.2       0 UNK         0.5000 
      3 O          -4.1772  -12.8679  -48.4055 O.2       0 UNK        -0.5000 
      4 N          -5.8719  -14.0070  -47.4420 N.am      1 UNK        -0.5000 
      5 CA         -5.0989  -15.1209  -46.8759 C.3       1 UNK         0.1400 
      6 C6         -5.9824  -16.3765  -46.6480 C.3       23 UNK        -0.0398 
      7 S7         -6.7275  -16.9969  -48.1953 S.3       23 UNK        -0.2404 
      8 C8         -5.5880  -18.3439  -48.6441 C.3       23 UNK        -0.0205 
      9 C9         -4.1828  -17.8323  -48.9242 C.ar      23 UNK        -0.0193 
     10 C10        -3.8929  -17.1907  -50.1311 C.ar      23 UNK        -0.1150 
     11 C11        -2.6235  -16.6508  -50.3604 C.ar      23 UNK        -0.0193 
     12 C12        -1.6417  -16.7578  -49.3719 C.ar      23 UNK        -0.1150 
     13 C13        -1.9105  -17.4240  -48.1731 C.ar      23 UNK        -0.0193 
     14 C14        -3.1811  -17.9651  -47.9588 C.ar      23 UNK        -0.1150 
     15 C15        -0.8518  -17.5291  -47.0856 C.3       23 UNK        -0.0205 
     16 S16         0.7364  -18.2144  -47.6645 S.3       23 UNK        -0.2404 
     17 C17         0.2745  -19.8777  -48.2726 C.3       23 UNK        -0.0398 
     18 CA          0.3483  -21.0162  -47.2193 C.3       11 UNK         0.1400 
     19 N           1.6191  -21.0666  -46.5014 N.am      11 UNK        -0.5000 
     20 C           2.6952  -21.7521  -46.9058 C.2       10 UNK         0.5000 
     21 O           2.7349  -22.3822  -47.9632 O.2       10 UNK        -0.5000 
     22 CA          3.9310  -21.7706  -45.9885 C.3       10 UNK         0.1400 
     23 CB          5.0276  -20.8406  -46.5308 C.3       10 UNK        -0.1800 
     24 N           3.6129  -21.3768  -44.6158 N.am      10 UNK        -0.5000 
     25 C           3.8931  -22.0947  -43.5211 C.2       9 UNK         0.5000 
     26 O           4.4360  -23.2000  -43.5430 O.2       9 UNK        -0.5000 
     27 CA          3.4934  -21.4807  -42.1714 C.3       9 UNK         0.1400 
     28 CB          4.4607  -20.3530  -41.7808 C.3       9 UNK        -0.1800 
     29 N           2.1282  -20.9572  -42.2192 N.am      9 UNK        -0.5000 
     30 C           1.1320  -21.3332  -41.4057 C.2       8 UNK         0.5000 
     31 O           1.2698  -22.1567  -40.4993 O.2       8 UNK        -0.5000 
     32 CA         -0.2608  -20.7152  -41.6570 C.3       8 UNK         0.1400 
     33 CB         -1.0558  -20.4717  -40.3570 C.3       8 UNK        -0.1800 
     34 N          -0.2345  -19.5192  -42.5043 N.am      8 UNK        -0.5000 
     35 C           0.2602  -18.3090  -42.2133 C.2       7 UNK         0.5000 
     36 O           0.7448  -17.9924  -41.1255 O.2       7 UNK        -0.5000 
     37 CA          0.2344  -17.2884  -43.3651 C.3       7 UNK         0.1400 
     38 CB         -0.5657  -16.0309  -42.9957 C.3       7 UNK        -0.1800 
     39 N           1.5798  -16.8994  -43.7783 N.am      7 UNK        -0.5000 
     40 C           2.4928  -17.7326  -44.2967 C.2       6 UNK         0.5000 
     41 O           2.3006  -18.9398  -44.4634 O.2       6 UNK        -0.5000 
     42 CA          3.8507  -17.1277  -44.6984 C.3       6 UNK         0.1400 
     43 CB          3.8768  -16.8319  -46.2050 C.3       6 UNK        -0.1800 
     44 N           4.1784  -15.9074  -43.9574 N.am      6 UNK        -0.5000 
     45 C           4.5650  -15.8932  -42.6726 C.2       5 UNK         0.5000 
     46 O           4.7147  -16.9135  -42.0010 O.2       5 UNK        -0.5000 
     47 CA          4.8455  -14.5271  -42.0137 C.3       5 UNK         0.1400 
     48 CB          6.3582  -14.3139  -41.8449 C.3       5 UNK        -0.1800 
     49 N           4.2892  -13.3768  -42.7276 N.am      5 UNK        -0.5000 
     50 C           2.9860  -13.1027  -42.8650 C.2       4 UNK         0.5000 
     51 O           2.0897  -13.8291  -42.4318 O.2       4 UNK        -0.5000 
     52 CA          2.6118  -11.8088  -43.6212 C.3       4 UNK         0.1400 
     53 CB          3.8199  -11.0268  -44.1859 C.3       4 UNK        -0.1800 
     54 N           1.6356  -12.0604  -44.6826 N.am      4 UNK        -0.5000 
     55 C           1.7443  -12.9202  -45.7033 C.2       3 UNK         0.5000 
     56 O           2.7311  -13.6356  -45.8852 O.2       3 UNK        -0.5000 
     57 CA          0.5391  -12.9888  -46.6697 C.3       3 UNK         0.1400 
     58 CB          0.7550  -14.0019  -47.8090 C.3       3 UNK        -0.1800 
     59 N          -0.7237  -13.3041  -45.9925 N.am      3 UNK        -0.5000 
     60 C          -1.4341  -12.4738  -45.2158 C.2       2 UNK         0.5000 
     61 O          -1.0917  -11.3156  -44.9694 O.2       2 UNK        -0.5000 
     62 CA         -2.7473  -13.0342  -44.6462 C.3       2 UNK         0.1400 
     63 CB         -3.6114  -11.9698  -43.9425 C.3       2 UNK        -0.1800 
     64 N          -3.5111  -13.6577  -45.7213 N.am      2 UNK        -0.5000 
     65 C          -4.3443  -14.6941  -45.5954 C.2       1 UNK         0.5000 
     66 O          -4.5378  -15.2820  -44.5299 O.2       1 UNK        -0.5000 
     67 C          -0.8091  -20.9581  -46.2135 C.2       11 UNK         0.5000 
     68 O          -0.6417  -20.4481  -45.1031 O.2       11 UNK        -0.5000 
     69 N          -1.9699  -21.4643  -46.6349 N.am      12 UNK        -0.5000 
     70 CA         -3.2272  -21.4826  -45.9018 C.3       12 UNK         0.1400 
     71 CB         -3.1710  -22.5145  -44.7594 C.3       12 UNK        -0.1800 
     72 C          -4.3301  -21.8481  -46.9022 C.2       12 UNK         0.5000 
     73 O          -4.0417  -22.4761  -47.9251 O.2       12 UNK        -0.5000 
     74 N          -5.5800  -21.4952  -46.5798 N.am      13 UNK        -0.5000 
     75 CA         -6.7550  -21.8385  -47.3887 C.3       13 UNK         0.1400 
     76 CB         -7.9747  -21.0616  -46.8713 C.3       13 UNK        -0.1800 
     77 C          -7.0377  -23.3536  -47.4075 C.2       13 UNK         0.5000 
     78 O          -7.4899  -23.8784  -48.4247 O.2       13 UNK        -0.5000 
     79 N          -6.7187  -24.0303  -46.2947 N.am      14 UNK        -0.5000 
     80 CA         -6.8322  -25.4796  -46.1252 C.3       14 UNK         0.1400 
     81 CB         -6.7007  -25.8147  -44.6315 C.3       14 UNK        -0.1800 
     82 C          -5.8009  -26.2786  -46.9468 C.2       14 UNK         0.5000 
     83 O          -6.0545  -27.4433  -47.2557 O.2       14 UNK        -0.5000 
     84 N          -4.6647  -25.6512  -47.2891 N.am      15 UNK        -0.5000 
     85 CA         -3.6217  -26.2434  -48.1309 C.3       15 UNK         0.1400 
     86 CB         -2.3091  -25.4664  -47.9443 C.3       15 UNK        -0.1800 
     87 C          -4.0222  -26.2840  -49.6176 C.2       15 UNK         0.5000 
     88 O          -3.5539  -27.1623  -50.3428 O.2       15 UNK        -0.5000 
     89 N          -4.8836  -25.3410  -50.0308 N.am      16 UNK        -0.5000 
     90 CA         -5.5019  -25.1558  -51.3486 C.3       16 UNK         0.1400 
     91 CB         -6.3909  -26.3558  -51.7254 C.3       16 UNK        -0.1800 
     92 C          -4.5078  -24.8130  -52.4727 C.2       16 UNK         0.5000 
     93 O          -4.6206  -23.7463  -53.0751 O.2       16 UNK        -0.5000 
     94 N          -3.5351  -25.6966  -52.7232 N.am      17 UNK        -0.5000 
     95 CA         -2.5014  -25.5453  -53.7488 C.3       17 UNK         0.1400 
     96 CB         -1.6873  -26.8436  -53.8464 C.3       17 UNK        -0.1800 
     97 C          -1.5789  -24.3422  -53.4884 C.2       17 UNK         0.5000 
     98 O          -1.2251  -23.6296  -54.4265 O.2       17 UNK        -0.5000 
     99 N          -1.2497  -24.1086  -52.2109 N.am      18 UNK        -0.5000 
    100 CA        -0.4393  -22.9754  -51.7632 C.3       18 UNK         0.1400 
    101 CB         0.0172  -23.2256  -50.3205 C.3       18 UNK        -0.1800 
    102 C         -1.1744  -21.6253  -51.8748 C.2       18 UNK         0.5000 
    103 O         -0.5192  -20.5982  -52.0398 O.2       18 UNK        -0.5000 
    104 N         -2.5122  -21.6530  -51.7984 N.am      19 UNK        -0.5000 
    105 CA        -3.3731  -20.4939  -52.0264 C.3       19 UNK         0.1400 
    106 CB        -4.7224  -20.7137  -51.3274 C.3       19 UNK        -0.1800 
    107 C         -3.5667  -20.2271  -53.5296 C.2       19 UNK         0.5000 
    108 O         -3.5399  -19.0722  -53.9514 O.2       19 UNK        -0.5000 
    109 N         -3.7257  -21.2975  -54.3226 N.am      20 UNK        -0.5000 
    110 CA        -3.8254  -21.2461  -55.7842 C.3       20 UNK         0.1400 
    111 CB        -4.1876  -22.6383  -56.3217 C.3       20 UNK        -0.1800 
    112 C         -2.5413  -20.7190  -56.4537 C.2       20 UNK         0.5000 
    113 O         -2.6236  -20.0014  -57.4523 O.2       20 UNK        -0.5000 
    114 N         -1.3823  -21.0351  -55.8572 N.am      21 UNK        -0.5000 
    115 CA        -0.0518  -20.5670  -56.2555 C.3       21 UNK         0.1400 
    116 CB         1.0065  -21.2601  -55.3834 C.3       21 UNK        -0.1800 
    117 C          0.1334  -19.0347  -56.2150 C.2       21 UNK         0.5000 
    118 O          1.0616  -18.5316  -56.8501 O.2       21 UNK        -0.5000 
    119 N         -0.7484  -18.3165  -55.5052 N.am      22 UNK        -0.5000 
    120 CA        -0.8321  -16.8471  -55.5225 C.3       22 UNK         0.1400 
    121 C         -1.3337  -16.2552  -56.8751 C.2       22 UNK         0.5000 
    122 N         -1.9373  -17.0340  -57.7676 N.am      22 UNK        -0.7600 
    123 O         -1.1682  -15.0633  -57.1201 O.2       22 UNK        -0.5000 
    124 C124       -1.6914  -16.2921  -54.3580 C.3       23 UNK        -0.0398 
    125 S125       -1.1852  -16.8916  -52.7119 S.3       23 UNK        -0.2404 
    126 C126       -2.3209  -15.9305  -51.6641 C.3       23 UNK        -0.0205 
    127 H127       -6.1247  -10.9760  -48.2890 H         1 UNK         0.0600 
    128 H128       -7.3928  -12.2008  -48.3955 H         1 UNK         0.0600 
    129 H129       -6.3248  -11.9149  -49.7725 H         1 UNK         0.0600 
    130 H130       -6.8662  -14.0440  -47.2685 H         1 UNK         0.3000 
    131 H131       -4.3272  -15.3879  -47.5994 H         1 UNK         0.0600 
    132 H132       -5.4077  -17.1812  -46.1872 H         1 UNK         0.0800 
    133 H133       -6.7902  -16.1500  -45.9501 H         1 UNK         0.0800 
    134 H134       -5.9836  -18.8491  -49.5237 H         1 UNK         0.0800 
    135 H135       -5.5747  -19.0831  -47.8452 H         1 UNK         0.0800 
    136 H136       -4.6651  -17.0923  -50.8811 H         1 UNK         0.1150 
    137 H137       -0.6629  -16.3320  -49.5423 H         1 UNK         0.1150 
    138 H138       -3.4014  -18.4617  -47.0250 H         1 UNK         0.1150 
    139 H139       -0.6760  -16.5370  -46.6720 H         1 UNK         0.0800 
    140 H140       -1.2204  -18.1328  -46.2587 H         1 UNK         0.0800 
    141 H141       -0.7087  -19.8416  -48.7445 H         1 UNK         0.0800 
    142 H142        0.9641  -20.1123  -49.0842 H         1 UNK         0.0800 
    143 H143        0.2254  -21.9655  -47.7421 H         1 UNK         0.0600 
    144 H144        1.6362  -20.5368  -45.6379 H         1 UNK         0.3000 
    145 H145        4.3137  -22.7929  -46.0110 H         1 UNK         0.0600 
    146 H146        4.7086  -19.7994  -46.5246 H         1 UNK         0.0600 
    147 H147        5.9363  -20.9151  -45.9333 H         1 UNK         0.0600 
    148 H148        5.2908  -21.0992  -47.5572 H         1 UNK         0.0600 
    149 H149        3.1707  -20.4666  -44.5099 H         1 UNK         0.3000 
    150 H150        3.5775  -22.2692  -41.4209 H         1 UNK         0.0600 
    151 H151        5.4845  -20.7221  -41.7112 H         1 UNK         0.0600 
    152 H152        4.1997  -19.9276  -40.8116 H         1 UNK         0.0600 
    153 H153        4.4524  -19.5444  -42.5113 H         1 UNK         0.0600 
    154 H154        1.9283  -20.2721  -42.9385 H         1 UNK         0.3000 
    155 H155       -0.8085  -21.4624  -42.2325 H         1 UNK         0.0600 
    156 H156       -2.0313  -20.0332  -40.5671 H         1 UNK         0.0600 
    157 H157       -0.5267  -19.8062  -39.6747 H         1 UNK         0.0600 
    158 H158       -1.2308  -21.4076  -39.8253 H         1 UNK         0.0600 
    159 H159       -0.5221  -19.6969  -43.4667 H         1 UNK         0.3000 
    160 H160       -0.2497  -17.7489  -44.2261 H         1 UNK         0.0600 
    161 H161       -0.1371  -15.5198  -42.1328 H         1 UNK         0.0600 
    162 H162       -1.5988  -16.2821  -42.7521 H         1 UNK         0.0600 
    163 H163       -0.5861  -15.3249  -43.8247 H         1 UNK         0.0600 
    164 H164        1.8447  -15.9383  -43.6090 H         1 UNK         0.3000 
    165 H165        4.6187  -17.8756  -44.4902 H         1 UNK         0.0600 
    166 H166        3.1012  -16.1217  -46.4900 H         1 UNK         0.0600 
    167 H167        4.8392  -16.4247  -46.5147 H         1 UNK         0.0600 
    168 H168        3.7033  -17.7375  -46.7859 H         1 UNK         0.0600 
    169 H169        4.0522  -15.0295  -44.4453 H         1 UNK         0.3000 
    170 H170        4.3928  -14.5530  -41.0203 H         1 UNK         0.0600 
    171 H171        6.8094  -15.1325  -41.2825 H         1 UNK         0.0600 
    172 H172        6.8660  -14.2592  -42.8086 H         1 UNK         0.0600 
    173 H173        6.5696  -13.3937  -41.2997 H         1 UNK         0.0600 
    174 H174        4.9564  -12.7387  -43.1363 H         1 UNK         0.3000 
    175 H175        2.1141  -11.1675  -42.8925 H         1 UNK         0.0600 
    176 H176        4.3838  -11.6108  -44.9144 H         1 UNK         0.0600 
    177 H177        3.4916  -10.1139  -44.6829 H         1 UNK         0.0600 
    178 H178        4.5046  -10.7248  -43.3924 H         1 UNK         0.0600 
    179 H179        0.7543  -11.5599  -44.6037 H         1 UNK         0.3000 
    180 H180        0.4418  -12.0011  -47.1250 H         1 UNK         0.0600 
    181 H181        0.9213  -15.0093  -47.4283 H         1 UNK         0.0600 
    182 H182        1.6272  -13.7345  -48.4067 H         1 UNK         0.0600 
    183 H183       -0.1014  -14.0313  -48.4830 H         1 UNK         0.0600 
    184 H184       -1.0835  -14.2344  -46.1404 H         1 UNK         0.3000 
    185 H185       -2.4707  -13.7902  -43.9093 H         1 UNK         0.0600 
    186 H186       -3.0662  -11.4999  -43.1231 H         1 UNK         0.0600 
    187 H187       -3.9166  -11.1823  -44.6326 H         1 UNK         0.0600 
    188 H188       -4.5136  -12.4106  -43.5182 H         1 UNK         0.0600 
    189 H189       -3.4307  -13.2277  -46.6401 H         1 UNK         0.3000 
    190 H190       -2.0575  -21.8529  -47.5663 H         1 UNK         0.3000 
    191 H191       -3.4246  -20.4871  -45.4993 H         1 UNK         0.0600 
    192 H192       -4.1191  -22.5614  -44.2227 H         1 UNK         0.0600 
    193 H193       -2.4039  -22.2595  -44.0288 H         1 UNK         0.0600 
    194 H194       -2.9538  -23.5159  -45.1334 H         1 UNK         0.0600 
    195 H195       -5.7519  -20.9932  -45.7203 H         1 UNK         0.3000 
    196 H196       -6.5640  -21.5265  -48.4181 H         1 UNK         0.0600 
    197 H197       -8.8597  -21.2824  -47.4696 H         1 UNK         0.0600 
    198 H198       -7.8102  -19.9852  -46.9241 H         1 UNK         0.0600 
    199 H199       -8.2063  -21.3160  -45.8364 H         1 UNK         0.0600 
    200 H200       -6.3605  -23.5114  -45.5070 H         1 UNK         0.3000 
    201 H201       -7.8261  -25.7850  -46.4591 H         1 UNK         0.0600 
    202 H202       -7.4722  -25.3150  -44.0453 H         1 UNK         0.0600 
    203 H203       -5.7295  -25.5150  -44.2354 H         1 UNK         0.0600 
    204 H204       -6.8085  -26.8866  -44.4602 H         1 UNK         0.0600 
    205 H205       -4.5393  -24.6860  -47.0211 H         1 UNK         0.3000 
    206 H206       -3.4537  -27.2719  -47.8043 H         1 UNK         0.0600 
    207 H207       -2.0042  -25.4493  -46.8979 H         1 UNK         0.0600 
    208 H208       -1.4995  -25.9281  -48.5109 H         1 UNK         0.0600 
    209 H209       -2.3975  -24.4360  -48.2847 H         1 UNK         0.0600 
    210 H210       -5.1778  -24.6676  -49.3366 H         1 UNK         0.3000 
    211 H211       -6.1589  -24.2909  -51.2418 H         1 UNK         0.0600 
    212 H212       -5.8166  -27.2755  -51.8389 H         1 UNK         0.0600 
    213 H213       -6.9073  -26.1757  -52.6691 H         1 UNK         0.0600 
    214 H214       -7.1533  -26.5303  -50.9660 H         1 UNK         0.0600 
    215 H215       -3.4789  -26.5115  -52.1179 H         1 UNK         0.3000 
    216 H216       -3.0002  -25.3816  -54.7059 H         1 UNK         0.0600 
    217 H217       -1.1935  -27.0819  -52.9035 H         1 UNK         0.0600 
    218 H218       -0.9149  -26.7640  -54.6125 H         1 UNK         0.0600 
    219 H219       -2.3236  -27.6875  -54.1136 H         1 UNK         0.0600 
    220 H220       -1.5840  -24.7455  -51.5032 H         1 UNK         0.3000 
    221 H221        0.4489  -22.9227  -52.3968 H         1 UNK         0.0600 
    222 H222       -0.8218  -23.2152  -49.6250 H         1 UNK         0.0600 
    223 H223        0.5259  -24.1849  -50.2234 H         1 UNK         0.0600 
    224 H224        0.7228  -22.4564  -50.0065 H         1 UNK         0.0600 
    225 H225       -2.9731  -22.5440  -51.6906 H         1 UNK         0.3000 
    226 H226       -2.9050  -19.6101  -51.5867 H         1 UNK         0.0600 
    227 H227       -4.5934  -20.8122  -50.2494 H         1 UNK         0.0600 
    228 H228       -5.3889  -19.8702  -51.5078 H         1 UNK         0.0600 
    229 H229       -5.2306  -21.6082  -51.6858 H         1 UNK         0.0600 
    230 H230       -3.8179  -22.2137  -53.8938 H         1 UNK         0.3000 
    231 H231       -4.6365  -20.5607  -56.0382 H         1 UNK         0.0600 
    232 H232       -4.3224  -22.6153  -57.4038 H         1 UNK         0.0600 
    233 H233       -5.1182  -23.0008  -55.8847 H         1 UNK         0.0600 
    234 H234       -3.4085  -23.3687  -56.1040 H         1 UNK         0.0600 
    235 H235       -1.4111  -21.6933  -55.0860 H         1 UNK         0.3000 
    236 H236        0.1041  -20.8789  -57.2900 H         1 UNK         0.0600 
    237 H237        0.8827  -21.0106  -54.3297 H         1 UNK         0.0600 
    238 H238        0.9529  -22.3443  -55.4819 H         1 UNK         0.0600 
    239 H239        2.0136  -20.9595  -55.6750 H         1 UNK         0.0600 
    240 H240       -1.4800  -18.7942  -54.9951 H         1 UNK         0.3000 
    241 H241        0.1823  -16.4685  -55.3840 H         1 UNK         0.0600 
    242 H242       -2.0932  -18.0194  -57.5851 H         1 UNK         0.3800 
    243 H243       -2.2520  -16.6351  -58.6379 H         1 UNK         0.3800 
    244 H244       -1.6478  -15.2014  -54.3454 H         1 UNK         0.0800 
    245 H245       -2.7401  -16.5550  -54.5073 H         1 UNK         0.0800 
    246 H246       -1.8799  -14.9555  -51.4523 H         1 UNK         0.0800 
    247 H247       -3.2480  -15.7382  -52.2063 H         1 UNK         0.0800 
@<TRIPOS>BOND
     1    1    2 1    
     2    1  127 1    
     3    1  128 1    
     4    1  129 1    
     5    2    3 2    
     6    2    4 am   BACKBONE|DICT|INTERRES
     7    4    5 1    
     8    4  130 1    
     9    5    6 1    
    10    5   65 1    
    11    5  131 1    
    12    6    7 1    
    13    6  132 1    
    14    6  133 1    
    15    7    8 1    
    16    8    9 1    
    17    8  134 1    
    18    8  135 1    
    19    9   10 ar   
    20    9   14 ar   
    21   10   11 ar   
    22   10  136 1    
    23   11   12 ar   
    24   11  126 1    
    25   12   13 ar   
    26   12  137 1    
    27   13   14 ar   
    28   13   15 1    
    29   14  138 1    
    30   15   16 1    
    31   15  139 1    
    32   15  140 1    
    33   16   17 1    
    34   17   18 1    
    35   17  141 1    
    36   17  142 1    
    37   18   19 1    
    38   18   67 1    
    39   18  143 1    
    40   19   20 am   BACKBONE|DICT|INTERRES
    41   19  144 1    
    42   20   21 2    
    43   20   22 1    
    44   22   23 1    
    45   22   24 1    
    46   22  145 1    
    47   23  146 1    
    48   23  147 1    
    49   23  148 1    
    50   24   25 am   BACKBONE|DICT|INTERRES
    51   24  149 1    
    52   25   26 2    
    53   25   27 1    
    54   27   28 1    
    55   27   29 1    
    56   27  150 1    
    57   28  151 1    
    58   28  152 1    
    59   28  153 1    
    60   29   30 am   BACKBONE|DICT|INTERRES
    61   29  154 1    
    62   30   31 2    
    63   30   32 1    
    64   32   33 1    
    65   32   34 1    
    66   32  155 1    
    67   33  156 1    
    68   33  157 1    
    69   33  158 1    
    70   34   35 am   BACKBONE|DICT|INTERRES
    71   34  159 1    
    72   35   36 2    
    73   35   37 1    
    74   37   38 1    
    75   37   39 1    
    76   37  160 1    
    77   38  161 1    
    78   38  162 1    
    79   38  163 1    
    80   39   40 am   BACKBONE|DICT|INTERRES
    81   39  164 1    
    82   40   41 2    
    83   40   42 1    
    84   42   43 1    
    85   42   44 1    
    86   42  165 1    
    87   43  166 1    
    88   43  167 1    
    89   43  168 1    
    90   44   45 am   BACKBONE|DICT|INTERRES
    91   44  169 1    
    92   45   46 2    
    93   45   47 1    
    94   47   48 1    
    95   47   49 1    
    96   47  170 1    
    97   48  171 1    
    98   48  172 1    
    99   48  173 1    
   100   49   50 am   BACKBONE|DICT|INTERRES
   101   49  174 1    
   102   50   51 2    
   103   50   52 1    
   104   52   53 1    
   105   52   54 1    
   106   52  175 1    
   107   53  176 1    
   108   53  177 1    
   109   53  178 1    
   110   54   55 am   BACKBONE|DICT|INTERRES
   111   54  179 1    
   112   55   56 2    
   113   55   57 1    
   114   57   58 1    
   115   57   59 1    
   116   57  180 1    
   117   58  181 1    
   118   58  182 1    
   119   58  183 1    
   120   59   60 am   BACKBONE|DICT|INTERRES
   121   59  184 1    
   122   60   61 2    
   123   60   62 1    
   124   62   63 1    
   125   62   64 1    
   126   62  185 1    
   127   63  186 1    
   128   63  187 1    
   129   63  188 1    
   130   64   65 am   BACKBONE|DICT|INTERRES
   131   64  189 1    
   132   65   66 2    
   133   67   68 2    
   134   67   69 am   BACKBONE|DICT|INTERRES
   135   69   70 1    
   136   69  190 1    
   137   70   71 1    
   138   70   72 1    
   139   70  191 1    
   140   71  192 1    
   141   71  193 1    
   142   71  194 1    
   143   72   73 2    
   144   72   74 am   BACKBONE|DICT|INTERRES
   145   74   75 1    
   146   74  195 1    
   147   75   76 1    
   148   75   77 1    
   149   75  196 1    
   150   76  197 1    
   151   76  198 1    
   152   76  199 1    
   153   77   78 2    
   154   77   79 am   BACKBONE|DICT|INTERRES
   155   79   80 1    
   156   79  200 1    
   157   80   81 1    
   158   80   82 1    
   159   80  201 1    
   160   81  202 1    
   161   81  203 1    
   162   81  204 1    
   163   82   83 2    
   164   82   84 am   BACKBONE|DICT|INTERRES
   165   84   85 1    
   166   84  205 1    
   167   85   86 1    
   168   85   87 1    
   169   85  206 1    
   170   86  207 1    
   171   86  208 1    
   172   86  209 1    
   173   87   88 2    
   174   87   89 am   BACKBONE|DICT|INTERRES
   175   89   90 1    
   176   89  210 1    
   177   90   91 1    
   178   90   92 1    
   179   90  211 1    
   180   91  212 1    
   181   91  213 1    
   182   91  214 1    
   183   92   93 2    
   184   92   94 am   BACKBONE|DICT|INTERRES
   185   94   95 1    
   186   94  215 1    
   187   95   96 1    
   188   95   97 1    
   189   95  216 1    
   190   96  217 1    
   191   96  218 1    
   192   96  219 1    
   193   97   98 2    
   194   97   99 am   BACKBONE|DICT|INTERRES
   195   99  100 1    
   196   99  220 1    
   197  100  101 1    
   198  100  102 1    
   199  100  221 1    
   200  101  222 1    
   201  101  223 1    
   202  101  224 1    
   203  102  103 2    
   204  102  104 am   BACKBONE|DICT|INTERRES
   205  104  105 1    
   206  104  225 1    
   207  105  106 1    
   208  105  107 1    
   209  105  226 1    
   210  106  227 1    
   211  106  228 1    
   212  106  229 1    
   213  107  108 2    
   214  107  109 am   BACKBONE|DICT|INTERRES
   215  109  110 1    
   216  109  230 1    
   217  110  111 1    
   218  110  112 1    
   219  110  231 1    
   220  111  232 1    
   221  111  233 1    
   222  111  234 1    
   223  112  113 2    
   224  112  114 am   BACKBONE|DICT|INTERRES
   225  114  115 1    
   226  114  235 1    
   227  115  116 1    
   228  115  117 1    
   229  115  236 1    
   230  116  237 1    
   231  116  238 1    
   232  116  239 1    
   233  117  118 2    
   234  117  119 am   BACKBONE|DICT|INTERRES
   235  119  120 1    
   236  119  240 1    
   237  120  121 1    
   238  120  124 1    
   239  120  241 1    
   240  121  122 am   BACKBONE|DICT|INTERRES
   241  121  123 2    
   242  122  242 1    
   243  122  243 1    
   244  124  125 1    
   245  124  244 1    
   246  124  245 1    
   247  125  126 1    
   248  126  246 1    
   249  126  247 1    
@<TRIPOS>SUBSTRUCTURE
     1 UNK         1 GROUP             0       ****    0 ROOT    
