@<TRIPOS>MOLECULE
3R540
247   249    1
SMALL
USER_CHARGES


@<TRIPOS>ATOM
      1 CA          5.2108  -17.3948  -47.8247 C.3       0 UNK        -0.1800 
      2 C           3.9430  -17.0688  -48.5994 C.2       0 UNK         0.5000 
      3 O           3.2003  -17.9795  -48.9585 O.2       0 UNK        -0.5000 
      4 N           3.6980  -15.7775  -48.8430 N.am      1 UNK        -0.5000 
      5 CA          2.5089  -15.2415  -49.5089 C.3       1 UNK         0.1400 
      6 C6          2.7623  -14.8708  -50.9957 C.3       23 UNK        -0.0398 
      7 S7          3.1412  -16.2971  -52.0678 S.3       23 UNK        -0.2404 
      8 C8          1.4897  -16.7566  -52.6881 C.3       23 UNK        -0.0205 
      9 C9          0.7467  -17.6563  -51.7114 C.ar      23 UNK        -0.0193 
     10 C10        -0.2166  -17.1315  -50.8450 C.ar      23 UNK        -0.1150 
     11 C11        -0.9142  -17.9655  -49.9656 C.ar      23 UNK        -0.0193 
     12 C12        -0.6346  -19.3349  -49.9535 C.ar      23 UNK        -0.1150 
     13 C13         0.3414  -19.8689  -50.8005 C.ar      23 UNK        -0.0193 
     14 C14         1.0198  -19.0261  -51.6839 C.ar      23 UNK        -0.1150 
     15 C15         0.6556  -21.3572  -50.7780 C.3       23 UNK        -0.0205 
     16 S16         2.2039  -21.7379  -49.8877 S.3       23 UNK        -0.2404 
     17 C17         1.8297  -21.2363  -48.1699 C.3       23 UNK        -0.0398 
     18 CA          1.3066  -22.4000  -47.2920 C.3       11 UNK         0.1400 
     19 N           1.4105  -22.1085  -45.8595 N.am      11 UNK        -0.5000 
     20 C           1.1473  -22.9871  -44.8801 C.2       10 UNK         0.5000 
     21 O           0.8585  -24.1669  -45.0792 O.2       10 UNK        -0.5000 
     22 CA          1.1492  -22.4476  -43.4381 C.3       10 UNK         0.1400 
     23 CB          2.5790  -22.3614  -42.8848 C.3       10 UNK        -0.1800 
     24 N           0.4889  -21.1458  -43.3251 N.am      10 UNK        -0.5000 
     25 C          -0.8089  -20.9311  -43.5893 C.2       9 UNK         0.5000 
     26 O          -1.6001  -21.8225  -43.8930 O.2       9 UNK        -0.5000 
     27 CA         -1.2944  -19.4714  -43.5710 C.3       9 UNK         0.1400 
     28 CB         -1.5669  -18.9954  -42.1365 C.3       9 UNK        -0.1800 
     29 N          -0.3454  -18.5663  -44.2138 N.am      9 UNK        -0.5000 
     30 C           0.0071  -18.6110  -45.5052 C.2       8 UNK         0.5000 
     31 O          -0.4828  -19.3886  -46.3228 O.2       8 UNK        -0.5000 
     32 CA          1.1351  -17.6616  -45.9377 C.3       8 UNK         0.1400 
     33 CB          0.6072  -16.2381  -46.1512 C.3       8 UNK        -0.1800 
     34 N           2.2168  -17.6236  -44.9554 N.am      8 UNK        -0.5000 
     35 C           3.0672  -18.6308  -44.7198 C.2       7 UNK         0.5000 
     36 O           3.0466  -19.6993  -45.3293 O.2       7 UNK        -0.5000 
     37 CA          4.0886  -18.4172  -43.5867 C.3       7 UNK         0.1400 
     38 CB          5.3415  -17.6987  -44.1084 C.3       7 UNK        -0.1800 
     39 N           3.5321  -17.6610  -42.4630 N.am      7 UNK        -0.5000 
     40 C           2.5981  -18.1380  -41.6292 C.2       6 UNK         0.5000 
     41 O           2.1159  -19.2671  -41.7178 O.2       6 UNK        -0.5000 
     42 CA          2.0817  -17.1728  -40.5452 C.3       6 UNK         0.1400 
     43 CB          3.0482  -17.1316  -39.3520 C.3       6 UNK        -0.1800 
     44 N           1.8354  -15.8064  -41.0227 N.am      6 UNK        -0.5000 
     45 C           0.9966  -15.4904  -42.0179 C.2       5 UNK         0.5000 
     46 O           0.4332  -16.3292  -42.7227 O.2       5 UNK        -0.5000 
     47 CA          0.7585  -13.9926  -42.2933 C.3       5 UNK         0.1400 
     48 CB          1.8081  -13.4650  -43.2826 C.3       5 UNK        -0.1800 
     49 N          -0.5803  -13.7620  -42.8468 N.am      5 UNK        -0.5000 
     50 C          -1.7187  -14.0105  -42.1802 C.2       4 UNK         0.5000 
     51 O          -1.7483  -14.2693  -40.9753 O.2       4 UNK        -0.5000 
     52 CA         -3.0313  -13.9750  -42.9895 C.3       4 UNK         0.1400 
     53 CB         -4.2795  -14.0237  -42.0888 C.3       4 UNK        -0.1800 
     54 N          -3.1157  -12.7745  -43.8234 N.am      4 UNK        -0.5000 
     55 C          -2.9363  -12.6574  -45.1457 C.2       3 UNK         0.5000 
     56 O          -3.1285  -11.5818  -45.7149 O.2       3 UNK        -0.5000 
     57 CA         -2.4985  -13.8829  -45.9862 C.3       3 UNK         0.1400 
     58 CB         -3.7186  -14.6900  -46.4587 C.3       3 UNK        -0.1800 
     59 N          -1.7171  -13.4870  -47.1586 N.am      3 UNK        -0.5000 
     60 C          -0.5236  -12.8811  -47.1057 C.2       2 UNK         0.5000 
     61 O           0.1004  -12.6975  -46.0591 O.2       2 UNK        -0.5000 
     62 CA          0.0571  -12.4381  -48.4604 C.3       2 UNK         0.1400 
     63 CB          0.8650  -11.1261  -48.3699 C.3       2 UNK        -0.1800 
     64 N           0.8197  -13.5229  -49.0867 N.am      2 UNK        -0.5000 
     65 C           2.0109  -14.0182  -48.7149 C.2       1 UNK         0.5000 
     66 O           2.7068  -13.5570  -47.8063 O.2       1 UNK        -0.5000 
     67 C          -0.1297  -22.8029  -47.6807 C.2       11 UNK         0.5000 
     68 O          -0.3131  -23.8387  -48.3190 O.2       11 UNK        -0.5000 
     69 N          -1.1221  -22.0027  -47.2653 N.am      12 UNK        -0.5000 
     70 CA         -2.5408  -22.2508  -47.5237 C.3       12 UNK         0.1400 
     71 CB         -3.3744  -21.0465  -47.0635 C.3       12 UNK        -0.1800 
     72 C          -3.0527  -23.5543  -46.8843 C.2       12 UNK         0.5000 
     73 O          -3.8377  -24.2650  -47.5095 O.2       12 UNK        -0.5000 
     74 N          -2.5725  -23.8703  -45.6737 N.am      13 UNK        -0.5000 
     75 CA         -2.8450  -25.1273  -44.9780 C.3       13 UNK         0.1400 
     76 CB         -2.3479  -25.0366  -43.5275 C.3       13 UNK        -0.1800 
     77 C          -2.2309  -26.3446  -45.6938 C.2       13 UNK         0.5000 
     78 O          -2.9046  -27.3663  -45.8263 O.2       13 UNK        -0.5000 
     79 N          -0.9828  -26.2087  -46.1654 N.am      14 UNK        -0.5000 
     80 CA         -0.2641  -27.2350  -46.9245 C.3       14 UNK         0.1400 
     81 CB          1.2166  -26.8438  -47.0475 C.3       14 UNK        -0.1800 
     82 C          -0.8805  -27.4921  -48.3123 C.2       14 UNK         0.5000 
     83 O          -1.0074  -28.6484  -48.7171 O.2       14 UNK        -0.5000 
     84 N          -1.2756  -26.4140  -49.0027 N.am      15 UNK        -0.5000 
     85 CA         -1.9776  -26.4509  -50.2877 C.3       15 UNK         0.1400 
     86 CB         -1.9122  -25.0544  -50.9271 C.3       15 UNK        -0.1800 
     87 C          -3.4428  -26.9180  -50.1675 C.2       15 UNK         0.5000 
     88 O          -4.0163  -27.3630  -51.1622 O.2       15 UNK        -0.5000 
     89 N          -4.0148  -26.7925  -48.9610 N.am      16 UNK        -0.5000 
     90 CA         -5.4045  -27.0623  -48.5785 C.3       16 UNK         0.1400 
     91 CB         -5.7475  -28.5567  -48.7492 C.3       16 UNK        -0.1800 
     92 C          -6.4179  -26.1232  -49.2694 C.2       16 UNK         0.5000 
     93 O          -7.5817  -26.4914  -49.4397 O.2       16 UNK        -0.5000 
     94 N          -5.9601  -24.9231  -49.6427 N.am      17 UNK        -0.5000 
     95 CA         -6.6918  -23.8786  -50.3497 C.3       17 UNK         0.1400 
     96 CB         -7.0600  -24.3404  -51.7749 C.3       17 UNK        -0.1800 
     97 C          -5.8034  -22.6295  -50.4218 C.2       17 UNK         0.5000 
     98 O          -4.5794  -22.7374  -50.3159 O.2       17 UNK        -0.5000 
     99 N          -6.4276  -21.4682  -50.6461 N.am      18 UNK        -0.5000 
    100 CA        -5.7469  -20.2106  -50.9469 C.3       18 UNK         0.1400 
    101 CB        -6.7240  -19.0451  -50.7133 C.3       18 UNK        -0.1800 
    102 C         -5.2280  -20.2435  -52.3961 C.2       18 UNK         0.5000 
    103 O         -5.9799  -19.9267  -53.3210 O.2       18 UNK        -0.5000 
    104 N         -3.9758  -20.6852  -52.5707 N.am      19 UNK        -0.5000 
    105 CA        -3.2940  -20.8358  -53.8575 C.3       19 UNK         0.1400 
    106 CB        -1.8833  -21.3930  -53.6147 C.3       19 UNK        -0.1800 
    107 C         -3.2372  -19.5044  -54.6277 C.2       19 UNK         0.5000 
    108 O         -2.6651  -18.5384  -54.1213 O.2       19 UNK        -0.5000 
    109 N         -3.8898  -19.4626  -55.7992 N.am      20 UNK        -0.5000 
    110 CA        -4.0985  -18.2778  -56.6459 C.3       20 UNK         0.1400 
    111 CB        -2.7677  -17.8311  -57.2868 C.3       20 UNK        -0.1800 
    112 C         -4.8219  -17.1275  -55.9062 C.2       20 UNK         0.5000 
    113 O         -4.5077  -15.9550  -56.1232 O.2       20 UNK        -0.5000 
    114 N         -5.7358  -17.4939  -54.9916 N.am      21 UNK        -0.5000 
    115 CA        -6.4482  -16.6264  -54.0436 C.3       21 UNK         0.1400 
    116 CB        -7.4211  -15.6876  -54.7866 C.3       21 UNK        -0.1800 
    117 C         -5.5050  -15.8684  -53.0808 C.2       21 UNK         0.5000 
    118 O         -5.8820  -14.8221  -52.5514 O.2       21 UNK        -0.5000 
    119 N         -4.2908  -16.4033  -52.8918 N.am      22 UNK        -0.5000 
    120 CA        -3.1558  -15.8001  -52.1815 C.3       22 UNK         0.1400 
    121 C         -2.5553  -14.5338  -52.8657 C.2       22 UNK         0.5000 
    122 N         -2.8556  -14.2519  -54.1291 N.am      22 UNK        -0.7600 
    123 O         -1.7672  -13.8148  -52.2563 O.2       22 UNK        -0.5000 
    124 C124       -3.4032  -15.6179  -50.6578 C.3       23 UNK        -0.0398 
    125 S125       -3.5873  -17.2131  -49.7879 S.3       23 UNK        -0.2404 
    126 C126       -1.9509  -17.3915  -49.0103 C.3       23 UNK        -0.0205 
    127 H127        5.0381  -18.2466  -47.1674 H         1 UNK         0.0600 
    128 H128        5.5364  -16.5526  -47.2137 H         1 UNK         0.0600 
    129 H129        6.0143  -17.6549  -48.5136 H         1 UNK         0.0600 
    130 H130        4.3016  -15.0672  -48.4502 H         1 UNK         0.3000 
    131 H131        1.7109  -15.9804  -49.4487 H         1 UNK         0.0600 
    132 H132        1.9083  -14.3466  -51.4268 H         1 UNK         0.0800 
    133 H133        3.5988  -14.1735  -51.0661 H         1 UNK         0.0800 
    134 H134        1.6103  -17.2841  -53.6355 H         1 UNK         0.0800 
    135 H135        0.9046  -15.8646  -52.9172 H         1 UNK         0.0800 
    136 H136       -0.4246  -16.0721  -50.8594 H         1 UNK         0.1150 
    137 H137       -1.1667  -19.9824  -49.2715 H         1 UNK         0.1150 
    138 H138        1.7714  -19.4360  -52.3435 H         1 UNK         0.1150 
    139 H139       -0.1759  -21.9189  -50.3527 H         1 UNK         0.0800 
    140 H140        0.7551  -21.7145  -51.8038 H         1 UNK         0.0800 
    141 H141        1.1539  -20.3822  -48.1565 H         1 UNK         0.0800 
    142 H142        2.7663  -20.8629  -47.7543 H         1 UNK         0.0800 
    143 H143        1.9460  -23.2668  -47.4730 H         1 UNK         0.0600 
    144 H144        1.6941  -21.1671  -45.6082 H         1 UNK         0.3000 
    145 H145        0.5921  -23.1550  -42.8204 H         1 UNK         0.0600 
    146 H146        2.5784  -22.0552  -41.8386 H         1 UNK         0.0600 
    147 H147        3.0773  -23.3300  -42.9398 H         1 UNK         0.0600 
    148 H148        3.1862  -21.6481  -43.4416 H         1 UNK         0.0600 
    149 H149        1.0644  -20.3669  -43.0209 H         1 UNK         0.3000 
    150 H150       -2.2310  -19.4237  -44.1301 H         1 UNK         0.0600 
    151 H151       -2.2952  -19.6399  -41.6428 H         1 UNK         0.0600 
    152 H152       -1.9682  -17.9817  -42.1277 H         1 UNK         0.0600 
    153 H153       -0.6599  -18.9990  -41.5315 H         1 UNK         0.0600 
    154 H154        0.0724  -17.8509  -43.6213 H         1 UNK         0.3000 
    155 H155        1.5385  -18.0269  -46.8834 H         1 UNK         0.0600 
    156 H156        0.0879  -15.8592  -45.2722 H         1 UNK         0.0600 
    157 H157       -0.0889  -16.1997  -46.9861 H         1 UNK         0.0600 
    158 H158        1.4211  -15.5494  -46.3704 H         1 UNK         0.0600 
    159 H159        2.2580  -16.8098  -44.3605 H         1 UNK         0.3000 
    160 H160        4.3900  -19.4006  -43.2193 H         1 UNK         0.0600 
    161 H161        5.1035  -16.7181  -44.5228 H         1 UNK         0.0600 
    162 H162        5.8250  -18.2817  -44.8927 H         1 UNK         0.0600 
    163 H163        6.0755  -17.5590  -43.3147 H         1 UNK         0.0600 
    164 H164        3.8711  -16.7203  -42.3251 H         1 UNK         0.3000 
    165 H165        1.1272  -17.5681  -40.1913 H         1 UNK         0.0600 
    166 H166        2.6368  -16.5440  -38.5311 H         1 UNK         0.0600 
    167 H167        3.2376  -18.1349  -38.9677 H         1 UNK         0.0600 
    168 H168        4.0106  -16.6980  -39.6265 H         1 UNK         0.0600 
    169 H169        2.2754  -15.0631  -40.4994 H         1 UNK         0.3000 
    170 H170        0.8444  -13.4408  -41.3551 H         1 UNK         0.0600 
    171 H171        2.8167  -13.5761  -42.8829 H         1 UNK         0.0600 
    172 H172        1.7713  -13.9989  -44.2333 H         1 UNK         0.0600 
    173 H173        1.6568  -12.4057  -43.4912 H         1 UNK         0.0600 
    174 H174       -0.6148  -13.5190  -43.8265 H         1 UNK         0.3000 
    175 H175       -3.0519  -14.8834  -43.5907 H         1 UNK         0.0600 
    176 H176       -4.3213  -13.1709  -41.4100 H         1 UNK         0.0600 
    177 H177       -5.1935  -14.0231  -42.6832 H         1 UNK         0.0600 
    178 H178       -4.2925  -14.9300  -41.4818 H         1 UNK         0.0600 
    179 H179       -3.3551  -11.9349  -43.3162 H         1 UNK         0.3000 
    180 H180       -1.8571  -14.5290  -45.3882 H         1 UNK         0.0600 
    181 H181       -4.3507  -14.1068  -47.1296 H         1 UNK         0.0600 
    182 H182       -4.3393  -15.0023  -45.6183 H         1 UNK         0.0600 
    183 H183       -3.4145  -15.5939  -46.9863 H         1 UNK         0.0600 
    184 H184       -2.1828  -13.5683  -48.0493 H         1 UNK         0.3000 
    185 H185       -0.7837  -12.2389  -49.1272 H         1 UNK         0.0600 
    186 H186        1.2678  -10.8429  -49.3423 H         1 UNK         0.0600 
    187 H187        0.2288  -10.3083  -48.0300 H         1 UNK         0.0600 
    188 H188        1.6967  -11.1949  -47.6688 H         1 UNK         0.0600 
    189 H189        0.3411  -13.9695  -49.8554 H         1 UNK         0.3000 
    190 H190       -0.8910  -21.1461  -46.7665 H         1 UNK         0.3000 
    191 H191       -2.6570  -22.3481  -48.6039 H         1 UNK         0.0600 
    192 H192       -4.4338  -21.2061  -47.2680 H         1 UNK         0.0600 
    193 H193       -3.0779  -20.1388  -47.5877 H         1 UNK         0.0600 
    194 H194       -3.2660  -20.8675  -45.9936 H         1 UNK         0.0600 
    195 H195       -1.9858  -23.1971  -45.1884 H         1 UNK         0.3000 
    196 H196       -3.9277  -25.2678  -44.9546 H         1 UNK         0.0600 
    197 H197       -1.2730  -24.8618  -43.4791 H         1 UNK         0.0600 
    198 H198       -2.8421  -24.2255  -42.9924 H         1 UNK         0.0600 
    199 H199       -2.5561  -25.9592  -42.9844 H         1 UNK         0.0600 
    200 H200       -0.4785  -25.3470  -45.9792 H         1 UNK         0.3000 
    201 H201       -0.3195  -28.1682  -46.3601 H         1 UNK         0.0600 
    202 H202        1.6794  -26.7428  -46.0656 H         1 UNK         0.0600 
    203 H203        1.3421  -25.8972  -47.5738 H         1 UNK         0.0600 
    204 H204        1.7773  -27.6019  -47.5955 H         1 UNK         0.0600 
    205 H205       -1.0642  -25.4906  -48.6281 H         1 UNK         0.3000 
    206 H206       -1.4601  -27.1533  -50.9443 H         1 UNK         0.0600 
    207 H207       -0.8808  -24.7480  -51.1023 H         1 UNK         0.0600 
    208 H208       -2.4273  -25.0344  -51.8883 H         1 UNK         0.0600 
    209 H209       -2.3777  -24.3023  -50.2896 H         1 UNK         0.0600 
    210 H210       -3.4596  -26.3544  -48.2370 H         1 UNK         0.3000 
    211 H211       -5.4654  -26.8331  -47.5137 H         1 UNK         0.0600 
    212 H212       -6.7195  -28.7870  -48.3118 H         1 UNK         0.0600 
    213 H213       -5.0114  -29.1880  -48.2513 H         1 UNK         0.0600 
    214 H214       -5.7856  -28.8476  -49.7992 H         1 UNK         0.0600 
    215 H215       -5.0073  -24.6674  -49.4009 H         1 UNK         0.3000 
    216 H216       -7.5962  -23.6389  -49.7874 H         1 UNK         0.0600 
    217 H217       -6.1749  -24.6440  -52.3357 H         1 UNK         0.0600 
    218 H218       -7.5455  -23.5412  -52.3363 H         1 UNK         0.0600 
    219 H219       -7.7513  -25.1826  -51.7614 H         1 UNK         0.0600 
    220 H220       -7.4316  -21.4655  -50.7536 H         1 UNK         0.3000 
    221 H221       -4.8991  -20.0830  -50.2696 H         1 UNK         0.0600 
    222 H222       -7.0282  -18.9924  -49.6679 H         1 UNK         0.0600 
    223 H223       -7.6251  -19.1395  -51.3205 H         1 UNK         0.0600 
    224 H224       -6.2593  -18.0911  -50.9631 H         1 UNK         0.0600 
    225 H225       -3.4538  -20.9699  -51.7542 H         1 UNK         0.3000 
    226 H226       -3.8536  -21.5669  -54.4443 H         1 UNK         0.0600 
    227 H227       -1.2780  -20.6993  -53.0312 H         1 UNK         0.0600 
    228 H228       -1.9165  -22.3430  -53.0806 H         1 UNK         0.0600 
    229 H229       -1.3644  -21.5660  -54.5582 H         1 UNK         0.0600 
    230 H230       -4.3554  -20.3026  -56.1145 H         1 UNK         0.3000 
    231 H231       -4.7663  -18.5863  -57.4513 H         1 UNK         0.0600 
    232 H232       -2.0680  -17.4484  -56.5430 H         1 UNK         0.0600 
    233 H233       -2.9318  -17.0392  -58.0184 H         1 UNK         0.0600 
    234 H234       -2.2842  -18.6572  -57.8080 H         1 UNK         0.0600 
    235 H235       -5.8724  -18.4866  -54.8299 H         1 UNK         0.3000 
    236 H236       -7.0458  -17.2899  -53.4172 H         1 UNK         0.0600 
    237 H237       -8.0625  -15.1535  -54.0848 H         1 UNK         0.0600 
    238 H238       -6.8918  -14.9400  -55.3779 H         1 UNK         0.0600 
    239 H239       -8.0732  -16.2467  -55.4576 H         1 UNK         0.0600 
    240 H240       -4.0520  -17.2509  -53.3944 H         1 UNK         0.3000 
    241 H241       -2.3643  -16.5380  -52.2937 H         1 UNK         0.0600 
    242 H242       -2.4477  -13.4383  -54.5609 H         1 UNK         0.3800 
    243 H243       -3.4731  -14.8473  -54.6689 H         1 UNK         0.3800 
    244 H244       -4.2973  -15.0204  -50.4797 H         1 UNK         0.0800 
    245 H245       -2.5905  -15.0628  -50.1900 H         1 UNK         0.0800 
    246 H246       -1.6174  -16.4277  -48.6280 H         1 UNK         0.0800 
    247 H247       -2.0492  -18.0384  -48.1381 H         1 UNK         0.0800 
@<TRIPOS>BOND
     1    1    2 1    
     2    1  127 1    
     3    1  128 1    
     4    1  129 1    
     5    2    3 2    
     6    2    4 am   BACKBONE|DICT|INTERRES
     7    4    5 1    
     8    4  130 1    
     9    5    6 1    
    10    5   65 1    
    11    5  131 1    
    12    6    7 1    
    13    6  132 1    
    14    6  133 1    
    15    7    8 1    
    16    8    9 1    
    17    8  134 1    
    18    8  135 1    
    19    9   10 ar   
    20    9   14 ar   
    21   10   11 ar   
    22   10  136 1    
    23   11   12 ar   
    24   11  126 1    
    25   12   13 ar   
    26   12  137 1    
    27   13   14 ar   
    28   13   15 1    
    29   14  138 1    
    30   15   16 1    
    31   15  139 1    
    32   15  140 1    
    33   16   17 1    
    34   17   18 1    
    35   17  141 1    
    36   17  142 1    
    37   18   19 1    
    38   18   67 1    
    39   18  143 1    
    40   19   20 am   BACKBONE|DICT|INTERRES
    41   19  144 1    
    42   20   21 2    
    43   20   22 1    
    44   22   23 1    
    45   22   24 1    
    46   22  145 1    
    47   23  146 1    
    48   23  147 1    
    49   23  148 1    
    50   24   25 am   BACKBONE|DICT|INTERRES
    51   24  149 1    
    52   25   26 2    
    53   25   27 1    
    54   27   28 1    
    55   27   29 1    
    56   27  150 1    
    57   28  151 1    
    58   28  152 1    
    59   28  153 1    
    60   29   30 am   BACKBONE|DICT|INTERRES
    61   29  154 1    
    62   30   31 2    
    63   30   32 1    
    64   32   33 1    
    65   32   34 1    
    66   32  155 1    
    67   33  156 1    
    68   33  157 1    
    69   33  158 1    
    70   34   35 am   BACKBONE|DICT|INTERRES
    71   34  159 1    
    72   35   36 2    
    73   35   37 1    
    74   37   38 1    
    75   37   39 1    
    76   37  160 1    
    77   38  161 1    
    78   38  162 1    
    79   38  163 1    
    80   39   40 am   BACKBONE|DICT|INTERRES
    81   39  164 1    
    82   40   41 2    
    83   40   42 1    
    84   42   43 1    
    85   42   44 1    
    86   42  165 1    
    87   43  166 1    
    88   43  167 1    
    89   43  168 1    
    90   44   45 am   BACKBONE|DICT|INTERRES
    91   44  169 1    
    92   45   46 2    
    93   45   47 1    
    94   47   48 1    
    95   47   49 1    
    96   47  170 1    
    97   48  171 1    
    98   48  172 1    
    99   48  173 1    
   100   49   50 am   BACKBONE|DICT|INTERRES
   101   49  174 1    
   102   50   51 2    
   103   50   52 1    
   104   52   53 1    
   105   52   54 1    
   106   52  175 1    
   107   53  176 1    
   108   53  177 1    
   109   53  178 1    
   110   54   55 am   BACKBONE|DICT|INTERRES
   111   54  179 1    
   112   55   56 2    
   113   55   57 1    
   114   57   58 1    
   115   57   59 1    
   116   57  180 1    
   117   58  181 1    
   118   58  182 1    
   119   58  183 1    
   120   59   60 am   BACKBONE|DICT|INTERRES
   121   59  184 1    
   122   60   61 2    
   123   60   62 1    
   124   62   63 1    
   125   62   64 1    
   126   62  185 1    
   127   63  186 1    
   128   63  187 1    
   129   63  188 1    
   130   64   65 am   BACKBONE|DICT|INTERRES
   131   64  189 1    
   132   65   66 2    
   133   67   68 2    
   134   67   69 am   BACKBONE|DICT|INTERRES
   135   69   70 1    
   136   69  190 1    
   137   70   71 1    
   138   70   72 1    
   139   70  191 1    
   140   71  192 1    
   141   71  193 1    
   142   71  194 1    
   143   72   73 2    
   144   72   74 am   BACKBONE|DICT|INTERRES
   145   74   75 1    
   146   74  195 1    
   147   75   76 1    
   148   75   77 1    
   149   75  196 1    
   150   76  197 1    
   151   76  198 1    
   152   76  199 1    
   153   77   78 2    
   154   77   79 am   BACKBONE|DICT|INTERRES
   155   79   80 1    
   156   79  200 1    
   157   80   81 1    
   158   80   82 1    
   159   80  201 1    
   160   81  202 1    
   161   81  203 1    
   162   81  204 1    
   163   82   83 2    
   164   82   84 am   BACKBONE|DICT|INTERRES
   165   84   85 1    
   166   84  205 1    
   167   85   86 1    
   168   85   87 1    
   169   85  206 1    
   170   86  207 1    
   171   86  208 1    
   172   86  209 1    
   173   87   88 2    
   174   87   89 am   BACKBONE|DICT|INTERRES
   175   89   90 1    
   176   89  210 1    
   177   90   91 1    
   178   90   92 1    
   179   90  211 1    
   180   91  212 1    
   181   91  213 1    
   182   91  214 1    
   183   92   93 2    
   184   92   94 am   BACKBONE|DICT|INTERRES
   185   94   95 1    
   186   94  215 1    
   187   95   96 1    
   188   95   97 1    
   189   95  216 1    
   190   96  217 1    
   191   96  218 1    
   192   96  219 1    
   193   97   98 2    
   194   97   99 am   BACKBONE|DICT|INTERRES
   195   99  100 1    
   196   99  220 1    
   197  100  101 1    
   198  100  102 1    
   199  100  221 1    
   200  101  222 1    
   201  101  223 1    
   202  101  224 1    
   203  102  103 2    
   204  102  104 am   BACKBONE|DICT|INTERRES
   205  104  105 1    
   206  104  225 1    
   207  105  106 1    
   208  105  107 1    
   209  105  226 1    
   210  106  227 1    
   211  106  228 1    
   212  106  229 1    
   213  107  108 2    
   214  107  109 am   BACKBONE|DICT|INTERRES
   215  109  110 1    
   216  109  230 1    
   217  110  111 1    
   218  110  112 1    
   219  110  231 1    
   220  111  232 1    
   221  111  233 1    
   222  111  234 1    
   223  112  113 2    
   224  112  114 am   BACKBONE|DICT|INTERRES
   225  114  115 1    
   226  114  235 1    
   227  115  116 1    
   228  115  117 1    
   229  115  236 1    
   230  116  237 1    
   231  116  238 1    
   232  116  239 1    
   233  117  118 2    
   234  117  119 am   BACKBONE|DICT|INTERRES
   235  119  120 1    
   236  119  240 1    
   237  120  121 1    
   238  120  124 1    
   239  120  241 1    
   240  121  122 am   BACKBONE|DICT|INTERRES
   241  121  123 2    
   242  122  242 1    
   243  122  243 1    
   244  124  125 1    
   245  124  244 1    
   246  124  245 1    
   247  125  126 1    
   248  126  246 1    
   249  126  247 1    
@<TRIPOS>SUBSTRUCTURE
     1 UNK         1 GROUP             0       ****    0 ROOT    
