@<TRIPOS>MOLECULE
3R540
247   249    1
SMALL
USER_CHARGES


@<TRIPOS>ATOM
      1 CA          2.6728  -10.8990  -47.8623 C.3       0 UNK        -0.1800 
      2 C           3.8836  -11.6818  -47.3759 C.2       0 UNK         0.5000 
      3 O           5.0043  -11.1779  -47.4507 O.2       0 UNK        -0.5000 
      4 N           3.6672  -12.9137  -46.8965 N.am      1 UNK        -0.5000 
      5 CA          4.7305  -13.8087  -46.4235 C.3       1 UNK         0.1400 
      6 C6          4.2902  -15.2928  -46.4803 C.3       23 UNK        -0.0398 
      7 S7          5.6858  -16.4547  -46.3117 S.3       23 UNK        -0.2404 
      8 C8          6.1535  -16.7253  -48.0510 C.3       23 UNK        -0.0205 
      9 C9          5.2766  -17.7713  -48.7215 C.ar      23 UNK        -0.0193 
     10 C10         4.3954  -17.4199  -49.7488 C.ar      23 UNK        -0.1150 
     11 C11         3.6162  -18.3949  -50.3827 C.ar      23 UNK        -0.0193 
     12 C12         3.7178  -19.7265  -49.9639 C.ar      23 UNK        -0.1150 
     13 C13         4.5774  -20.0882  -48.9222 C.ar      23 UNK        -0.0193 
     14 C14         5.3698  -19.1062  -48.3227 C.ar      23 UNK        -0.1150 
     15 C15         4.6439  -21.5381  -48.4508 C.3       23 UNK        -0.0205 
     16 S16         4.5461  -21.7202  -46.6334 S.3       23 UNK        -0.2404 
     17 C17         2.9445  -20.9240  -46.2610 C.3       23 UNK        -0.0398 
     18 CA          1.8099  -21.9107  -45.8952 C.3       11 UNK         0.1400 
     19 N           0.6240  -21.1958  -45.4167 N.am      11 UNK        -0.5000 
     20 C          -0.4285  -21.7666  -44.8159 C.2       10 UNK         0.5000 
     21 O          -0.4822  -22.9631  -44.5337 O.2       10 UNK        -0.5000 
     22 CA         -1.6284  -20.8572  -44.4894 C.3       10 UNK         0.1400 
     23 CB         -1.4360  -20.1813  -43.1238 C.3       10 UNK        -0.1800 
     24 N          -1.8630  -19.8390  -45.5143 N.am      10 UNK        -0.5000 
     25 C          -2.3130  -20.0953  -46.7515 C.2       9 UNK         0.5000 
     26 O          -2.6625  -21.2102  -47.1323 O.2       9 UNK        -0.5000 
     27 CA         -2.3559  -18.9190  -47.7445 C.3       9 UNK         0.1400 
     28 CB         -3.6926  -18.1708  -47.6464 C.3       9 UNK        -0.1800 
     29 N          -1.2526  -17.9744  -47.5769 N.am      9 UNK        -0.5000 
     30 C           0.0429  -18.2768  -47.7374 C.2       8 UNK         0.5000 
     31 O           0.4484  -19.4017  -48.0298 O.2       8 UNK        -0.5000 
     32 CA          1.0503  -17.1491  -47.4384 C.3       8 UNK         0.1400 
     33 CB          1.0484  -16.0687  -48.5343 C.3       8 UNK        -0.1800 
     34 N           0.7701  -16.5193  -46.1486 N.am      8 UNK        -0.5000 
     35 C           0.8837  -17.1330  -44.9631 C.2       7 UNK         0.5000 
     36 O           1.2854  -18.2877  -44.8236 O.2       7 UNK        -0.5000 
     37 CA          0.4407  -16.3253  -43.7303 C.3       7 UNK         0.1400 
     38 CB          1.5849  -15.4272  -43.2430 C.3       7 UNK        -0.1800 
     39 N          -0.7489  -15.5089  -43.9848 N.am      7 UNK        -0.5000 
     40 C          -1.9599  -16.0125  -44.2662 C.2       6 UNK         0.5000 
     41 O          -2.2128  -17.2160  -44.2775 O.2       6 UNK        -0.5000 
     42 CA         -3.0532  -15.0097  -44.6746 C.3       6 UNK         0.1400 
     43 CB         -3.7325  -14.3953  -43.4421 C.3       6 UNK        -0.1800 
     44 N          -2.5355  -13.9494  -45.5412 N.am      6 UNK        -0.5000 
     45 C          -2.0469  -14.1561  -46.7739 C.2       5 UNK         0.5000 
     46 O          -2.0309  -15.2596  -47.3150 O.2       5 UNK        -0.5000 
     47 CA         -1.4511  -12.9511  -47.5255 C.3       5 UNK         0.1400 
     48 CB         -2.4183  -12.4633  -48.6138 C.3       5 UNK        -0.1800 
     49 N          -1.1218  -11.8331  -46.6432 N.am      5 UNK        -0.5000 
     50 C          -0.0971  -11.8109  -45.7824 C.2       4 UNK         0.5000 
     51 O           0.7457  -12.7120  -45.7041 O.2       4 UNK        -0.5000 
     52 CA          0.0023  -10.5675  -44.8698 C.3       4 UNK         0.1400 
     53 CB         -1.3453   -9.8389  -44.6640 C.3       4 UNK        -0.1800 
     54 N           0.6065  -10.8648  -43.5712 N.am      4 UNK        -0.5000 
     55 C           0.2034  -11.7651  -42.6652 C.2       3 UNK         0.5000 
     56 O          -0.7597  -12.5185  -42.8212 O.2       3 UNK        -0.5000 
     57 CA          1.0730  -11.8570  -41.3940 C.3       3 UNK         0.1400 
     58 CB          0.4280  -12.7177  -40.2926 C.3       3 UNK        -0.1800 
     59 N           2.3962  -12.3957  -41.7125 N.am      3 UNK        -0.5000 
     60 C           3.3794  -11.7292  -42.3310 C.2       2 UNK         0.5000 
     61 O           3.3197  -10.5323  -42.6177 O.2       2 UNK        -0.5000 
     62 CA          4.5903  -12.5504  -42.7818 C.3       2 UNK         0.1400 
     63 CB          4.9055  -13.7535  -41.8658 C.3       2 UNK        -0.1800 
     64 N           4.3177  -12.9918  -44.1454 N.am      2 UNK        -0.5000 
     65 C           5.2405  -13.3988  -45.0238 C.2       1 UNK         0.5000 
     66 O           6.4469  -13.4372  -44.7765 O.2       1 UNK        -0.5000 
     67 C           1.4517  -22.8563  -47.0620 C.2       11 UNK         0.5000 
     68 O           1.7945  -24.0385  -47.0220 O.2       11 UNK        -0.5000 
     69 N           0.7272  -22.3299  -48.0566 N.am      12 UNK        -0.5000 
     70 CA          0.2753  -23.0569  -49.2442 C.3       12 UNK         0.1400 
     71 CB          0.3185  -22.1029  -50.4495 C.3       12 UNK        -0.1800 
     72 C          -1.1017  -23.7340  -49.0644 C.2       12 UNK         0.5000 
     73 O          -1.7705  -24.0223  -50.0582 O.2       12 UNK        -0.5000 
     74 N          -1.5061  -24.0135  -47.8154 N.am      13 UNK        -0.5000 
     75 CA         -2.8107  -24.5856  -47.4574 C.3       13 UNK         0.1400 
     76 CB         -2.9727  -24.6025  -45.9320 C.3       13 UNK        -0.1800 
     77 C          -3.0920  -25.9822  -48.0427 C.2       13 UNK         0.5000 
     78 O          -4.2581  -26.3608  -48.1633 O.2       13 UNK        -0.5000 
     79 N          -2.0319  -26.6964  -48.4466 N.am      14 UNK        -0.5000 
     80 CA         -2.0775  -27.9662  -49.1749 C.3       14 UNK         0.1400 
     81 CB         -0.6411  -28.4698  -49.3810 C.3       14 UNK        -0.1800 
     82 C          -2.8222  -27.8928  -50.5256 C.2       14 UNK         0.5000 
     83 O          -3.2790  -28.9275  -51.0149 O.2       14 UNK        -0.5000 
     84 N          -2.9693  -26.6845  -51.0904 N.am      15 UNK        -0.5000 
     85 CA         -3.8043  -26.3854  -52.2522 C.3       15 UNK         0.1400 
     86 CB         -3.3866  -25.0186  -52.8248 C.3       15 UNK        -0.1800 
     87 C          -5.3059  -26.4365  -51.8943 C.2       15 UNK         0.5000 
     88 O          -5.9616  -25.3964  -51.8359 O.2       15 UNK        -0.5000 
     89 N          -5.8100  -27.6524  -51.6401 N.am      16 UNK        -0.5000 
     90 CA         -7.2120  -28.0149  -51.4004 C.3       16 UNK         0.1400 
     91 CB         -8.0020  -27.9496  -52.7237 C.3       16 UNK        -0.1800 
     92 C          -7.8802  -27.2158  -50.2601 C.2       16 UNK         0.5000 
     93 O          -8.9729  -26.6767  -50.4423 O.2       16 UNK        -0.5000 
     94 N          -7.1983  -27.1557  -49.1064 N.am      17 UNK        -0.5000 
     95 CA         -7.5798  -26.4150  -47.8970 C.3       17 UNK         0.1400 
     96 CB         -8.8971  -26.9499  -47.2948 C.3       17 UNK        -0.1800 
     97 C          -7.5823  -24.8908  -48.1341 C.2       17 UNK         0.5000 
     98 O          -8.5517  -24.2038  -47.8071 O.2       17 UNK        -0.5000 
     99 N          -6.4691  -24.4083  -48.7019 N.am      18 UNK        -0.5000 
    100 CA        -6.1554  -23.0131  -49.0204 C.3       18 UNK         0.1400 
    101 CB        -6.0131  -22.1751  -47.7312 C.3       18 UNK        -0.1800 
    102 C         -7.1178  -22.3739  -50.0457 C.2       18 UNK         0.5000 
    103 O         -7.4772  -21.2028  -49.9075 O.2       18 UNK        -0.5000 
    104 N         -7.5115  -23.1415  -51.0696 N.am      19 UNK        -0.5000 
    105 CA        -8.3926  -22.7108  -52.1537 C.3       19 UNK         0.1400 
    106 CB        -8.9761  -23.9516  -52.8495 C.3       19 UNK        -0.1800 
    107 C         -7.6335  -21.8019  -53.1383 C.2       19 UNK         0.5000 
    108 O         -7.0053  -22.2993  -54.0747 O.2       19 UNK        -0.5000 
    109 N         -7.6759  -20.4873  -52.8743 N.am      20 UNK        -0.5000 
    110 CA        -6.9741  -19.4135  -53.5930 C.3       20 UNK         0.1400 
    111 CB        -7.5018  -19.2748  -55.0365 C.3       20 UNK        -0.1800 
    112 C         -5.4359  -19.5441  -53.5225 C.2       20 UNK         0.5000 
    113 O         -4.7317  -19.1515  -54.4563 O.2       20 UNK        -0.5000 
    114 N         -4.9451  -20.0992  -52.4058 N.am      21 UNK        -0.5000 
    115 CA        -3.5327  -20.3330  -52.1152 C.3       21 UNK         0.1400 
    116 CB        -3.4202  -21.0689  -50.7747 C.3       21 UNK        -0.1800 
    117 C         -2.7166  -19.0279  -52.1193 C.2       21 UNK         0.5000 
    118 O         -3.0515  -18.0994  -51.3814 O.2       21 UNK        -0.5000 
    119 N         -1.6931  -18.9865  -52.9815 N.am      22 UNK        -0.5000 
    120 CA        -0.8477  -17.8159  -53.2835 C.3       22 UNK         0.1400 
    121 C         -1.5828  -16.6655  -54.0419 C.2       22 UNK         0.5000 
    122 N         -2.7804  -16.8709  -54.5797 N.am      22 UNK        -0.7600 
    123 O         -1.0443  -15.5706  -54.1818 O.2       22 UNK        -0.5000 
    124 C124       -0.0371  -17.2969  -52.0611 C.3       23 UNK        -0.0398 
    125 S125        0.9808  -18.5963  -51.2784 S.3       23 UNK        -0.2404 
    126 C126        2.6891  -18.0069  -51.5324 C.3       23 UNK        -0.0205 
    127 H127        1.8200  -11.5520  -48.0468 H         1 UNK         0.0600 
    128 H128        2.9063  -10.3865  -48.7956 H         1 UNK         0.0600 
    129 H129        2.3887  -10.1498  -47.1244 H         1 UNK         0.0600 
    130 H130        2.7151  -13.2448  -46.8061 H         1 UNK         0.3000 
    131 H131        5.5725  -13.6987  -47.1111 H         1 UNK         0.0600 
    132 H132        3.5559  -15.5129  -45.7043 H         1 UNK         0.0800 
    133 H133        3.7952  -15.4992  -47.4288 H         1 UNK         0.0800 
    134 H134        6.1264  -15.7796  -48.5945 H         1 UNK         0.0800 
    135 H135        7.1900  -17.0641  -48.0839 H         1 UNK         0.0800 
    136 H136        4.3278  -16.3884  -50.0647 H         1 UNK         0.1150 
    137 H137        3.1167  -20.4806  -50.4486 H         1 UNK         0.1150 
    138 H138        6.0500  -19.3770  -47.5272 H         1 UNK         0.1150 
    139 H139        3.8434  -22.1257  -48.9032 H         1 UNK         0.0800 
    140 H140        5.5809  -21.9751  -48.7978 H         1 UNK         0.0800 
    141 H141        2.6457  -20.2810  -47.0873 H         1 UNK         0.0800 
    142 H142        3.1191  -20.2498  -45.4215 H         1 UNK         0.0800 
    143 H143        2.1653  -22.5316  -45.0699 H         1 UNK         0.0600 
    144 H144        0.6060  -20.1957  -45.5798 H         1 UNK         0.3000 
    145 H145       -2.5180  -21.4869  -44.4295 H         1 UNK         0.0600 
    146 H146       -2.3171  -19.6044  -42.8425 H         1 UNK         0.0600 
    147 H147       -1.2696  -20.9220  -42.3407 H         1 UNK         0.0600 
    148 H148       -0.5800  -19.5062  -43.1254 H         1 UNK         0.0600 
    149 H149       -1.6841  -18.8758  -45.2489 H         1 UNK         0.3000 
    150 H150       -2.2708  -19.3334  -48.7499 H         1 UNK         0.0600 
    151 H151       -4.5329  -18.8495  -47.7971 H         1 UNK         0.0600 
    152 H152       -3.7628  -17.3932  -48.4076 H         1 UNK         0.0600 
    153 H153       -3.8178  -17.6992  -46.6713 H         1 UNK         0.0600 
    154 H154       -1.5089  -17.0137  -47.3594 H         1 UNK         0.3000 
    155 H155        2.0505  -17.5861  -47.3900 H         1 UNK         0.0600 
    156 H156        0.0407  -15.7634  -48.8141 H         1 UNK         0.0600 
    157 H157        1.5896  -15.1755  -48.2243 H         1 UNK         0.0600 
    158 H158        1.5330  -16.4353  -49.4357 H         1 UNK         0.0600 
    159 H159        0.3901  -15.5846  -46.1682 H         1 UNK         0.3000 
    160 H160        0.2026  -17.0371  -42.9372 H         1 UNK         0.0600 
    161 H161        1.7872  -14.6156  -43.9422 H         1 UNK         0.0600 
    162 H162        2.5068  -15.9972  -43.1197 H         1 UNK         0.0600 
    163 H163        1.3433  -14.9902  -42.2765 H         1 UNK         0.0600 
    164 H164       -0.6339  -14.5026  -43.9666 H         1 UNK         0.3000 
    165 H165       -3.8115  -15.5589  -45.2367 H         1 UNK         0.0600 
    166 H166       -4.5457  -13.7293  -43.7307 H         1 UNK         0.0600 
    167 H167       -4.1593  -15.1725  -42.8068 H         1 UNK         0.0600 
    168 H168       -3.0319  -13.8248  -42.8328 H         1 UNK         0.0600 
    169 H169       -2.4911  -13.0209  -45.1484 H         1 UNK         0.3000 
    170 H170       -0.5334  -13.2892  -48.0113 H         1 UNK         0.0600 
    171 H171       -3.3559  -12.1034  -48.1882 H         1 UNK         0.0600 
    172 H172       -1.9800  -11.6533  -49.1970 H         1 UNK         0.0600 
    173 H173       -2.6610  -13.2680  -49.3095 H         1 UNK         0.0600 
    174 H174       -1.7588  -11.0496  -46.6556 H         1 UNK         0.3000 
    175 H175        0.6819   -9.8764  -45.3691 H         1 UNK         0.0600 
    176 H176       -1.2334   -9.0011  -43.9755 H         1 UNK         0.0600 
    177 H177       -2.1077  -10.5020  -44.2528 H         1 UNK         0.0600 
    178 H178       -1.7270   -9.4260  -45.5983 H         1 UNK         0.0600 
    179 H179        1.4720  -10.3749  -43.3674 H         1 UNK         0.3000 
    180 H180        1.1882  -10.8457  -40.9982 H         1 UNK         0.0600 
    181 H181        1.0456  -12.7357  -39.3945 H         1 UNK         0.0600 
    182 H182        0.2728  -13.7477  -40.6134 H         1 UNK         0.0600 
    183 H183       -0.5452  -12.3160  -40.0080 H         1 UNK         0.0600 
    184 H184        2.5302  -13.3786  -41.5293 H         1 UNK         0.3000 
    185 H185        5.4514  -11.8787  -42.7856 H         1 UNK         0.0600 
    186 H186        4.1401  -14.5274  -41.9206 H         1 UNK         0.0600 
    187 H187        5.8541  -14.2150  -42.1400 H         1 UNK         0.0600 
    188 H188        4.9927  -13.4413  -40.8243 H         1 UNK         0.0600 
    189 H189        3.3569  -12.9113  -44.4501 H         1 UNK         0.3000 
    190 H190        0.4848  -21.3423  -48.0130 H         1 UNK         0.3000 
    191 H191        0.9746  -23.8676  -49.4579 H         1 UNK         0.0600 
    192 H192        1.3473  -21.8609  -50.7093 H         1 UNK         0.0600 
    193 H193       -0.1357  -22.5384  -51.3402 H         1 UNK         0.0600 
    194 H194       -0.1912  -21.1649  -50.2354 H         1 UNK         0.0600 
    195 H195       -0.9083  -23.7421  -47.0478 H         1 UNK         0.3000 
    196 H196       -3.5677  -23.9185  -47.8686 H         1 UNK         0.0600 
    197 H197       -3.9211  -25.0558  -45.6403 H         1 UNK         0.0600 
    198 H198       -2.9678  -23.5905  -45.5300 H         1 UNK         0.0600 
    199 H199       -2.1735  -25.1646  -45.4477 H         1 UNK         0.0600 
    200 H200       -1.1177  -26.2926  -48.3056 H         1 UNK         0.3000 
    201 H201       -2.6102  -28.6858  -48.5502 H         1 UNK         0.0600 
    202 H202       -0.1304  -28.6093  -48.4280 H         1 UNK         0.0600 
    203 H203       -0.0532  -27.7725  -49.9794 H         1 UNK         0.0600 
    204 H204       -0.6333  -29.4317  -49.8955 H         1 UNK         0.0600 
    205 H205       -2.5639  -25.8803  -50.6234 H         1 UNK         0.3000 
    206 H206       -3.6199  -27.1385  -53.0210 H         1 UNK         0.0600 
    207 H207       -2.3329  -25.0118  -53.1037 H         1 UNK         0.0600 
    208 H208       -3.9632  -24.7768  -53.7185 H         1 UNK         0.0600 
    209 H209       -3.5462  -24.2143  -52.1062 H         1 UNK         0.0600 
    210 H210       -5.1476  -28.4215  -51.6226 H         1 UNK         0.3000 
    211 H211       -7.2082  -29.0560  -51.0747 H         1 UNK         0.0600 
    212 H212       -8.0501  -26.9339  -53.1150 H         1 UNK         0.0600 
    213 H213       -9.0264  -28.2987  -52.5883 H         1 UNK         0.0600 
    214 H214       -7.5447  -28.5797  -53.4864 H         1 UNK         0.0600 
    215 H215       -6.2845  -27.5878  -49.0729 H         1 UNK         0.3000 
    216 H216       -6.7951  -26.6055  -47.1636 H         1 UNK         0.0600 
    217 H217       -9.0950  -26.4881  -46.3269 H         1 UNK         0.0600 
    218 H218       -8.8492  -28.0272  -47.1361 H         1 UNK         0.0600 
    219 H219       -9.7559  -26.7421  -47.9332 H         1 UNK         0.0600 
    220 H220       -5.7451  -25.0830  -48.9209 H         1 UNK         0.3000 
    221 H221       -5.1788  -23.0460  -49.4983 H         1 UNK         0.0600 
    222 H222       -6.9739  -22.0271  -47.2375 H         1 UNK         0.0600 
    223 H223       -5.3415  -22.6474  -47.0151 H         1 UNK         0.0600 
    224 H224       -5.6036  -21.1888  -47.9513 H         1 UNK         0.0600 
    225 H225       -7.0933  -24.0633  -51.1787 H         1 UNK         0.3000 
    226 H226       -9.2264  -22.1477  -51.7290 H         1 UNK         0.0600 
    227 H227       -9.5455  -24.5642  -52.1506 H         1 UNK         0.0600 
    228 H228       -9.6502  -23.6651  -53.6573 H         1 UNK         0.0600 
    229 H229       -8.1935  -24.5763  -53.2805 H         1 UNK         0.0600 
    230 H230       -8.1725  -20.1970  -52.0416 H         1 UNK         0.3000 
    231 H231       -7.2176  -18.4891  -53.0676 H         1 UNK         0.0600 
    232 H232       -7.2311  -20.1327  -55.6526 H         1 UNK         0.0600 
    233 H233       -7.0918  -18.3864  -55.5184 H         1 UNK         0.0600 
    234 H234       -8.5873  -19.1787  -55.0523 H         1 UNK         0.0600 
    235 H235       -5.6022  -20.3605  -51.6858 H         1 UNK         0.3000 
    236 H236       -3.1401  -20.9924  -52.8922 H         1 UNK         0.0600 
    237 H237       -3.7509  -22.0999  -50.8812 H         1 UNK         0.0600 
    238 H238       -2.3917  -21.1047  -50.4246 H         1 UNK         0.0600 
    239 H239       -4.0140  -20.5927  -49.9937 H         1 UNK         0.0600 
    240 H240       -1.5119  -19.7987  -53.5530 H         1 UNK         0.3000 
    241 H241       -0.1175  -18.1802  -54.0069 H         1 UNK         0.0600 
    242 H242       -3.2609  -17.7596  -54.4868 H         1 UNK         0.3800 
    243 H243       -3.2283  -16.1185  -55.0780 H         1 UNK         0.3800 
    244 H244        0.6074  -16.4694  -52.3589 H         1 UNK         0.0800 
    245 H245       -0.7067  -16.8892  -51.3027 H         1 UNK         0.0800 
    246 H246        3.0752  -18.4265  -52.4620 H         1 UNK         0.0800 
    247 H247        2.6928  -16.9238  -51.6581 H         1 UNK         0.0800 
@<TRIPOS>BOND
     1    1    2 1    
     2    1  127 1    
     3    1  128 1    
     4    1  129 1    
     5    2    3 2    
     6    2    4 am   BACKBONE|DICT|INTERRES
     7    4    5 1    
     8    4  130 1    
     9    5    6 1    
    10    5   65 1    
    11    5  131 1    
    12    6    7 1    
    13    6  132 1    
    14    6  133 1    
    15    7    8 1    
    16    8    9 1    
    17    8  134 1    
    18    8  135 1    
    19    9   10 ar   
    20    9   14 ar   
    21   10   11 ar   
    22   10  136 1    
    23   11   12 ar   
    24   11  126 1    
    25   12   13 ar   
    26   12  137 1    
    27   13   14 ar   
    28   13   15 1    
    29   14  138 1    
    30   15   16 1    
    31   15  139 1    
    32   15  140 1    
    33   16   17 1    
    34   17   18 1    
    35   17  141 1    
    36   17  142 1    
    37   18   19 1    
    38   18   67 1    
    39   18  143 1    
    40   19   20 am   BACKBONE|DICT|INTERRES
    41   19  144 1    
    42   20   21 2    
    43   20   22 1    
    44   22   23 1    
    45   22   24 1    
    46   22  145 1    
    47   23  146 1    
    48   23  147 1    
    49   23  148 1    
    50   24   25 am   BACKBONE|DICT|INTERRES
    51   24  149 1    
    52   25   26 2    
    53   25   27 1    
    54   27   28 1    
    55   27   29 1    
    56   27  150 1    
    57   28  151 1    
    58   28  152 1    
    59   28  153 1    
    60   29   30 am   BACKBONE|DICT|INTERRES
    61   29  154 1    
    62   30   31 2    
    63   30   32 1    
    64   32   33 1    
    65   32   34 1    
    66   32  155 1    
    67   33  156 1    
    68   33  157 1    
    69   33  158 1    
    70   34   35 am   BACKBONE|DICT|INTERRES
    71   34  159 1    
    72   35   36 2    
    73   35   37 1    
    74   37   38 1    
    75   37   39 1    
    76   37  160 1    
    77   38  161 1    
    78   38  162 1    
    79   38  163 1    
    80   39   40 am   BACKBONE|DICT|INTERRES
    81   39  164 1    
    82   40   41 2    
    83   40   42 1    
    84   42   43 1    
    85   42   44 1    
    86   42  165 1    
    87   43  166 1    
    88   43  167 1    
    89   43  168 1    
    90   44   45 am   BACKBONE|DICT|INTERRES
    91   44  169 1    
    92   45   46 2    
    93   45   47 1    
    94   47   48 1    
    95   47   49 1    
    96   47  170 1    
    97   48  171 1    
    98   48  172 1    
    99   48  173 1    
   100   49   50 am   BACKBONE|DICT|INTERRES
   101   49  174 1    
   102   50   51 2    
   103   50   52 1    
   104   52   53 1    
   105   52   54 1    
   106   52  175 1    
   107   53  176 1    
   108   53  177 1    
   109   53  178 1    
   110   54   55 am   BACKBONE|DICT|INTERRES
   111   54  179 1    
   112   55   56 2    
   113   55   57 1    
   114   57   58 1    
   115   57   59 1    
   116   57  180 1    
   117   58  181 1    
   118   58  182 1    
   119   58  183 1    
   120   59   60 am   BACKBONE|DICT|INTERRES
   121   59  184 1    
   122   60   61 2    
   123   60   62 1    
   124   62   63 1    
   125   62   64 1    
   126   62  185 1    
   127   63  186 1    
   128   63  187 1    
   129   63  188 1    
   130   64   65 am   BACKBONE|DICT|INTERRES
   131   64  189 1    
   132   65   66 2    
   133   67   68 2    
   134   67   69 am   BACKBONE|DICT|INTERRES
   135   69   70 1    
   136   69  190 1    
   137   70   71 1    
   138   70   72 1    
   139   70  191 1    
   140   71  192 1    
   141   71  193 1    
   142   71  194 1    
   143   72   73 2    
   144   72   74 am   BACKBONE|DICT|INTERRES
   145   74   75 1    
   146   74  195 1    
   147   75   76 1    
   148   75   77 1    
   149   75  196 1    
   150   76  197 1    
   151   76  198 1    
   152   76  199 1    
   153   77   78 2    
   154   77   79 am   BACKBONE|DICT|INTERRES
   155   79   80 1    
   156   79  200 1    
   157   80   81 1    
   158   80   82 1    
   159   80  201 1    
   160   81  202 1    
   161   81  203 1    
   162   81  204 1    
   163   82   83 2    
   164   82   84 am   BACKBONE|DICT|INTERRES
   165   84   85 1    
   166   84  205 1    
   167   85   86 1    
   168   85   87 1    
   169   85  206 1    
   170   86  207 1    
   171   86  208 1    
   172   86  209 1    
   173   87   88 2    
   174   87   89 am   BACKBONE|DICT|INTERRES
   175   89   90 1    
   176   89  210 1    
   177   90   91 1    
   178   90   92 1    
   179   90  211 1    
   180   91  212 1    
   181   91  213 1    
   182   91  214 1    
   183   92   93 2    
   184   92   94 am   BACKBONE|DICT|INTERRES
   185   94   95 1    
   186   94  215 1    
   187   95   96 1    
   188   95   97 1    
   189   95  216 1    
   190   96  217 1    
   191   96  218 1    
   192   96  219 1    
   193   97   98 2    
   194   97   99 am   BACKBONE|DICT|INTERRES
   195   99  100 1    
   196   99  220 1    
   197  100  101 1    
   198  100  102 1    
   199  100  221 1    
   200  101  222 1    
   201  101  223 1    
   202  101  224 1    
   203  102  103 2    
   204  102  104 am   BACKBONE|DICT|INTERRES
   205  104  105 1    
   206  104  225 1    
   207  105  106 1    
   208  105  107 1    
   209  105  226 1    
   210  106  227 1    
   211  106  228 1    
   212  106  229 1    
   213  107  108 2    
   214  107  109 am   BACKBONE|DICT|INTERRES
   215  109  110 1    
   216  109  230 1    
   217  110  111 1    
   218  110  112 1    
   219  110  231 1    
   220  111  232 1    
   221  111  233 1    
   222  111  234 1    
   223  112  113 2    
   224  112  114 am   BACKBONE|DICT|INTERRES
   225  114  115 1    
   226  114  235 1    
   227  115  116 1    
   228  115  117 1    
   229  115  236 1    
   230  116  237 1    
   231  116  238 1    
   232  116  239 1    
   233  117  118 2    
   234  117  119 am   BACKBONE|DICT|INTERRES
   235  119  120 1    
   236  119  240 1    
   237  120  121 1    
   238  120  124 1    
   239  120  241 1    
   240  121  122 am   BACKBONE|DICT|INTERRES
   241  121  123 2    
   242  122  242 1    
   243  122  243 1    
   244  124  125 1    
   245  124  244 1    
   246  124  245 1    
   247  125  126 1    
   248  126  246 1    
   249  126  247 1    
@<TRIPOS>SUBSTRUCTURE
     1 UNK         1 GROUP             0       ****    0 ROOT    
