@<TRIPOS>MOLECULE
3R540
247   249    1
SMALL
USER_CHARGES


@<TRIPOS>ATOM
      1 CA         -2.0304  -10.6349  -50.4132 C.3       0 UNK        -0.1800 
      2 C          -1.6591  -11.9487  -49.7407 C.2       0 UNK         0.5000 
      3 O          -0.4949  -12.3463  -49.7766 O.2       0 UNK        -0.5000 
      4 N          -2.6438  -12.6193  -49.1279 N.am      1 UNK        -0.5000 
      5 CA         -2.4871  -13.9056  -48.4345 C.3       1 UNK         0.1400 
      6 C6         -3.8514  -14.5357  -48.0601 C.3       23 UNK        -0.0398 
      7 S7         -4.9203  -14.8218  -49.5113 S.3       23 UNK        -0.2404 
      8 C8         -4.6571  -16.5988  -49.7997 C.3       23 UNK        -0.0205 
      9 C9         -3.2285  -16.8973  -50.2252 C.ar      23 UNK        -0.0193 
     10 C10        -2.8040  -16.5761  -51.5173 C.ar      23 UNK        -0.1150 
     11 C11        -1.4864  -16.8197  -51.9125 C.ar      23 UNK        -0.0193 
     12 C12        -0.5939  -17.3995  -51.0060 C.ar      23 UNK        -0.1150 
     13 C13        -1.0044  -17.7193  -49.7082 C.ar      23 UNK        -0.0193 
     14 C14        -2.3253  -17.4711  -49.3243 C.ar      23 UNK        -0.1150 
     15 C15        -0.0071  -18.2991  -48.7166 C.3       23 UNK        -0.0205 
     16 S16         0.0658  -20.1139  -48.8147 S.3       23 UNK        -0.2404 
     17 C17        -1.3878  -20.5918  -47.8239 C.3       23 UNK        -0.0398 
     18 CA         -1.1954  -21.9781  -47.1672 C.3       11 UNK         0.1400 
     19 N          -0.1687  -21.9895  -46.1215 N.am      11 UNK        -0.5000 
     20 C           0.2968  -23.1038  -45.5385 C.2       10 UNK         0.5000 
     21 O          -0.0629  -24.2392  -45.8486 O.2       10 UNK        -0.5000 
     22 CA          1.2846  -22.9263  -44.3746 C.3       10 UNK         0.1400 
     23 CB          2.6968  -22.6196  -44.8943 C.3       10 UNK        -0.1800 
     24 N           0.8551  -21.8948  -43.4298 N.am      10 UNK        -0.5000 
     25 C          -0.2705  -21.9578  -42.7034 C.2       9 UNK         0.5000 
     26 O          -1.0436  -22.9155  -42.7261 O.2       9 UNK        -0.5000 
     27 CA         -0.6149  -20.7350  -41.8342 C.3       9 UNK         0.1400 
     28 CB          0.1856  -20.7563  -40.5239 C.3       9 UNK        -0.1800 
     29 N          -0.3999  -19.4634  -42.5259 N.am      9 UNK        -0.5000 
     30 C          -1.0604  -19.0743  -43.6270 C.2       8 UNK         0.5000 
     31 O          -1.9518  -19.7334  -44.1628 O.2       8 UNK        -0.5000 
     32 CA         -0.6050  -17.7549  -44.2768 C.3       8 UNK         0.1400 
     33 CB         -1.1530  -16.5399  -43.5141 C.3       8 UNK        -0.1800 
     34 N           0.8505  -17.6562  -44.3738 N.am      8 UNK        -0.5000 
     35 C           1.6252  -18.5114  -45.0557 C.2       7 UNK         0.5000 
     36 O           1.1913  -19.4611  -45.7053 O.2       7 UNK        -0.5000 
     37 CA          3.1430  -18.3050  -44.9412 C.3       7 UNK         0.1400 
     38 CB          3.6093  -17.1396  -45.8279 C.3       7 UNK        -0.1800 
     39 N           3.5572  -18.0840  -43.5545 N.am      7 UNK        -0.5000 
     40 C           3.4952  -19.0164  -42.5920 C.2       6 UNK         0.5000 
     41 O           3.1084  -20.1684  -42.7799 O.2       6 UNK        -0.5000 
     42 CA          3.9013  -18.5825  -41.1726 C.3       6 UNK         0.1400 
     43 CB          5.4244  -18.6702  -40.9949 C.3       6 UNK        -0.1800 
     44 N           3.4524  -17.2295  -40.8482 N.am      6 UNK        -0.5000 
     45 C           2.1696  -16.8653  -40.7107 C.2       5 UNK         0.5000 
     46 O           1.2188  -17.6402  -40.8145 O.2       5 UNK        -0.5000 
     47 CA          1.9131  -15.3640  -40.4829 C.3       5 UNK         0.1400 
     48 CB          2.0949  -14.9971  -39.0025 C.3       5 UNK        -0.1800 
     49 N           2.7777  -14.5156  -41.3109 N.am      5 UNK        -0.5000 
     50 C           2.7479  -14.5106  -42.6487 C.2       4 UNK         0.5000 
     51 O           1.9789  -15.2116  -43.3148 O.2       4 UNK        -0.5000 
     52 CA          3.7578  -13.6100  -43.3709 C.3       4 UNK         0.1400 
     53 CB          5.1321  -14.2949  -43.4808 C.3       4 UNK        -0.1800 
     54 N           3.2010  -13.3580  -44.6898 N.am      4 UNK        -0.5000 
     55 C           3.5484  -12.4141  -45.5677 C.2       3 UNK         0.5000 
     56 O           4.5123  -11.6599  -45.4332 O.2       3 UNK        -0.5000 
     57 CA          2.6120  -12.2703  -46.7841 C.3       3 UNK         0.1400 
     58 CB          3.0365  -13.2229  -47.9124 C.3       3 UNK        -0.1800 
     59 N           1.2127  -12.5371  -46.4349 N.am      3 UNK        -0.5000 
     60 C           0.4664  -11.7776  -45.6212 C.2       2 UNK         0.5000 
     61 O           0.8526  -10.7052  -45.1529 O.2       2 UNK        -0.5000 
     62 CA         -0.9404  -12.3119  -45.2804 C.3       2 UNK         0.1400 
     63 CB         -1.7664  -11.3253  -44.4356 C.3       2 UNK        -0.1800 
     64 N          -1.6990  -12.6463  -46.4841 N.am      2 UNK        -0.5000 
     65 C          -1.6045  -13.7896  -47.1755 C.2       1 UNK         0.5000 
     66 O          -0.8471  -14.7104  -46.8669 O.2       1 UNK        -0.5000 
     67 C          -2.5371  -22.5329  -46.6550 C.2       11 UNK         0.5000 
     68 O          -3.1521  -23.3390  -47.3518 O.2       11 UNK        -0.5000 
     69 N          -2.9602  -22.1341  -45.4470 N.am      12 UNK        -0.5000 
     70 CA         -4.1654  -22.6439  -44.7870 C.3       12 UNK         0.1400 
     71 CB         -4.4024  -21.8860  -43.4727 C.3       12 UNK        -0.1800 
     72 C          -4.1245  -24.1650  -44.5502 C.2       12 UNK         0.5000 
     73 O          -5.1152  -24.8460  -44.8167 O.2       12 UNK        -0.5000 
     74 N          -2.9751  -24.6636  -44.0794 N.am      13 UNK        -0.5000 
     75 CA         -2.7432  -26.0742  -43.7891 C.3       13 UNK         0.1400 
     76 CB         -1.5094  -26.2093  -42.8815 C.3       13 UNK        -0.1800 
     77 C          -2.5902  -26.9391  -45.0531 C.2       13 UNK         0.5000 
     78 O          -3.3133  -27.9252  -45.2018 O.2       13 UNK        -0.5000 
     79 N          -1.6261  -26.5896  -45.9144 N.am      14 UNK        -0.5000 
     80 CA         -1.1520  -27.4597  -46.9922 C.3       14 UNK         0.1400 
     81 CB          0.3659  -27.2764  -47.1495 C.3       14 UNK        -0.1800 
     82 C          -1.8502  -27.2163  -48.3384 C.2       14 UNK         0.5000 
     83 O          -1.9761  -28.1599  -49.1202 O.2       14 UNK        -0.5000 
     84 N          -2.2686  -25.9724  -48.6032 N.am      15 UNK        -0.5000 
     85 CA         -2.8176  -25.5456  -49.8947 C.3       15 UNK         0.1400 
     86 CB         -2.0187  -24.3295  -50.3962 C.3       15 UNK        -0.1800 
     87 C          -4.3225  -25.2314  -49.8233 C.2       15 UNK         0.5000 
     88 O          -4.8683  -24.7105  -50.7963 O.2       15 UNK        -0.5000 
     89 N          -4.9632  -25.5173  -48.6790 N.am      16 UNK        -0.5000 
     90 CA         -6.3771  -25.2645  -48.3711 C.3       16 UNK         0.1400 
     91 CB         -7.2841  -26.2078  -49.1884 C.3       16 UNK        -0.1800 
     92 C          -6.7643  -23.7753  -48.5162 C.2       16 UNK         0.5000 
     93 O          -7.8181  -23.4559  -49.0679 O.2       16 UNK        -0.5000 
     94 N          -5.8707  -22.9029  -48.0306 N.am      17 UNK        -0.5000 
     95 CA         -5.8928  -21.4367  -48.0803 C.3       17 UNK         0.1400 
     96 CB         -7.2247  -20.8417  -47.5778 C.3       17 UNK        -0.1800 
     97 C          -5.4349  -20.8482  -49.4280 C.2       17 UNK         0.5000 
     98 O          -5.5067  -19.6323  -49.5925 O.2       17 UNK        -0.5000 
     99 N          -4.9199  -21.6928  -50.3349 N.am      18 UNK        -0.5000 
    100 CA        -4.3251  -21.3490  -51.6287 C.3       18 UNK         0.1400 
    101 CB        -2.9461  -20.6796  -51.4298 C.3       18 UNK        -0.1800 
    102 C         -5.2907  -20.5491  -52.5281 C.2       18 UNK         0.5000 
    103 O         -6.3160  -21.0987  -52.9339 O.2       18 UNK        -0.5000 
    104 N         -4.9331  -19.2937  -52.8443 N.am      19 UNK        -0.5000 
    105 CA        -5.6232  -18.3711  -53.7573 C.3       19 UNK         0.1400 
    106 CB        -7.0240  -18.0040  -53.2246 C.3       19 UNK        -0.1800 
    107 C         -5.6494  -18.8679  -55.2210 C.2       19 UNK         0.5000 
    108 O         -6.5114  -18.4609  -56.0018 O.2       19 UNK        -0.5000 
    109 N         -4.6889  -19.7294  -55.5663 N.am      20 UNK        -0.5000 
    110 CA        -4.4619  -20.3249  -56.8732 C.3       20 UNK         0.1400 
    111 CB        -5.3973  -21.5283  -57.0796 C.3       20 UNK        -0.1800 
    112 C         -2.9885  -20.7471  -56.9163 C.2       20 UNK         0.5000 
    113 O         -2.4236  -21.0761  -55.8691 O.2       20 UNK        -0.5000 
    114 N         -2.3923  -20.7027  -58.1160 N.am      21 UNK        -0.5000 
    115 CA        -0.9657  -20.9320  -58.3967 C.3       21 UNK         0.1400 
    116 CB        -0.5639  -22.3899  -58.0876 C.3       21 UNK        -0.1800 
    117 C         -0.0309  -19.8961  -57.7263 C.2       21 UNK         0.5000 
    118 O          1.1496  -20.1759  -57.5106 O.2       21 UNK        -0.5000 
    119 N         -0.5768  -18.7108  -57.4248 N.am      22 UNK        -0.5000 
    120 CA         0.1182  -17.5769  -56.7954 C.3       22 UNK         0.1400 
    121 C          1.0283  -16.7632  -57.7642 C.2       22 UNK         0.5000 
    122 N          0.9938  -16.9936  -59.0714 N.am      22 UNK        -0.7600 
    123 O          1.7896  -15.9091  -57.3184 O.2       22 UNK        -0.5000 
    124 C124       -0.8873  -16.6467  -56.0672 C.3       23 UNK        -0.0398 
    125 S125       -1.6755  -17.4447  -54.6223 S.3       23 UNK        -0.2404 
    126 C126       -1.0115  -16.3933  -53.2927 C.3       23 UNK        -0.0205 
    127 H127       -1.4609   -9.8153  -49.9749 H         1 UNK         0.0600 
    128 H128       -3.0914  -10.4086  -50.3042 H         1 UNK         0.0600 
    129 H129       -1.8003  -10.6806  -51.4776 H         1 UNK         0.0600 
    130 H130       -3.5854  -12.2550  -49.1608 H         1 UNK         0.3000 
    131 H131       -1.9716  -14.5816  -49.1194 H         1 UNK         0.0600 
    132 H132       -3.7093  -15.4797  -47.5309 H         1 UNK         0.0800 
    133 H133       -4.3941  -13.8869  -47.3703 H         1 UNK         0.0800 
    134 H134       -5.3425  -16.9412  -50.5753 H         1 UNK         0.0800 
    135 H135       -4.9181  -17.1526  -48.8970 H         1 UNK         0.0800 
    136 H136       -3.4939  -16.1122  -52.2082 H         1 UNK         0.1150 
    137 H137        0.4296  -17.5824  -51.3015 H         1 UNK         0.1150 
    138 H138       -2.6458  -17.7127  -48.3210 H         1 UNK         0.1150 
    139 H139        0.9873  -17.9011  -48.9234 H         1 UNK         0.0800 
    140 H140       -0.2465  -17.9828  -47.7005 H         1 UNK         0.0800 
    141 H141       -2.2519  -20.5882  -48.4905 H         1 UNK         0.0800 
    142 H142       -1.5824  -19.8369  -47.0603 H         1 UNK         0.0800 
    143 H143       -0.8566  -22.6666  -47.9441 H         1 UNK         0.0600 
    144 H144        0.2151  -21.0880  -45.8468 H         1 UNK         0.3000 
    145 H145        1.3261  -23.8730  -43.8320 H         1 UNK         0.0600 
    146 H146        3.4191  -22.5947  -44.0785 H         1 UNK         0.0600 
    147 H147        3.0282  -23.3842  -45.5979 H         1 UNK         0.0600 
    148 H148        2.7394  -21.6596  -45.4086 H         1 UNK         0.0600 
    149 H149        1.4702  -21.0936  -43.3239 H         1 UNK         0.3000 
    150 H150       -1.6753  -20.7978  -41.5821 H         1 UNK         0.0600 
    151 H151       -0.1207  -19.9459  -39.8623 H         1 UNK         0.0600 
    152 H152        0.0299  -21.6921  -39.9856 H         1 UNK         0.0600 
    153 H153        1.2560  -20.6543  -40.7040 H         1 UNK         0.0600 
    154 H154        0.2993  -18.8439  -42.1279 H         1 UNK         0.3000 
    155 H155       -1.0075  -17.7270  -45.2914 H         1 UNK         0.0600 
    156 H156       -0.7532  -16.4851  -42.5011 H         1 UNK         0.0600 
    157 H157       -2.2402  -16.5823  -43.4398 H         1 UNK         0.0600 
    158 H158       -0.8970  -15.6115  -44.0244 H         1 UNK         0.0600 
    159 H159        1.2872  -16.8803  -43.8833 H         1 UNK         0.3000 
    160 H160        3.6306  -19.2147  -45.2982 H         1 UNK         0.0600 
    161 H161        3.1631  -16.1926  -45.5259 H         1 UNK         0.0600 
    162 H162        3.3325  -17.3108  -46.8690 H         1 UNK         0.0600 
    163 H163        4.6929  -17.0275  -45.7954 H         1 UNK         0.0600 
    164 H164        3.8423  -17.1500  -43.3056 H         1 UNK         0.3000 
    165 H165        3.4347  -19.2729  -40.4668 H         1 UNK         0.0600 
    166 H166        5.7155  -18.4390  -39.9701 H         1 UNK         0.0600 
    167 H167        5.7850  -19.6760  -41.2148 H         1 UNK         0.0600 
    168 H168        5.9494  -17.9808  -41.6573 H         1 UNK         0.0600 
    169 H169        4.1661  -16.5230  -40.7487 H         1 UNK         0.3000 
    170 H170        0.8763  -15.1606  -40.7597 H         1 UNK         0.0600 
    171 H171        1.4508  -15.6075  -38.3680 H         1 UNK         0.0600 
    172 H172        3.1226  -15.1496  -38.6707 H         1 UNK         0.0600 
    173 H173        1.8342  -13.9545  -38.8203 H         1 UNK         0.0600 
    174 H174        3.4306  -13.9175  -40.8248 H         1 UNK         0.3000 
    175 H175        3.8472  -12.6654  -42.8309 H         1 UNK         0.0600 
    176 H176        5.0734  -15.2330  -44.0324 H         1 UNK         0.0600 
    177 H177        5.8539  -13.6560  -43.9895 H         1 UNK         0.0600 
    178 H178        5.5399  -14.5174  -42.4942 H         1 UNK         0.0600 
    179 H179        2.3799  -13.9204  -44.8790 H         1 UNK         0.3000 
    180 H180        2.6861  -11.2440  -47.1493 H         1 UNK         0.0600 
    181 H181        2.9659  -14.2677  -47.6068 H         1 UNK         0.0600 
    182 H182        4.0683  -13.0367  -48.2129 H         1 UNK         0.0600 
    183 H183        2.4108  -13.0892  -48.7955 H         1 UNK         0.0600 
    184 H184        0.8024  -13.3938  -46.7887 H         1 UNK         0.3000 
    185 H185       -0.8002  -13.2162  -44.6847 H         1 UNK         0.0600 
    186 H186       -1.2581  -11.0891  -43.4998 H         1 UNK         0.0600 
    187 H187       -1.9378  -10.3868  -44.9643 H         1 UNK         0.0600 
    188 H188       -2.7379  -11.7465  -44.1763 H         1 UNK         0.0600 
    189 H189       -2.3057  -11.9240  -46.8441 H         1 UNK         0.3000 
    190 H190       -2.4256  -21.4348  -44.9380 H         1 UNK         0.3000 
    191 H191       -5.0170  -22.4404  -45.4355 H         1 UNK         0.0600 
    192 H192       -4.5218  -20.8173  -43.6511 H         1 UNK         0.0600 
    193 H193       -5.3092  -22.2363  -42.9781 H         1 UNK         0.0600 
    194 H194       -3.5764  -22.0177  -42.7744 H         1 UNK         0.0600 
    195 H195       -2.2217  -24.0217  -43.8494 H         1 UNK         0.3000 
    196 H196       -3.6043  -26.4517  -43.2333 H         1 UNK         0.0600 
    197 H197       -1.3049  -27.2552  -42.6498 H         1 UNK         0.0600 
    198 H198       -1.6603  -25.6897  -41.9351 H         1 UNK         0.0600 
    199 H199       -0.6156  -25.7934  -43.3485 H         1 UNK         0.0600 
    200 H200       -1.0909  -25.7373  -45.7542 H         1 UNK         0.3000 
    201 H201       -1.3256  -28.5027  -46.7178 H         1 UNK         0.0600 
    202 H202        0.8865  -27.4684  -46.2111 H         1 UNK         0.0600 
    203 H203        0.6199  -26.2665  -47.4733 H         1 UNK         0.0600 
    204 H204        0.7676  -27.9675  -47.8916 H         1 UNK         0.0600 
    205 H205       -2.1770  -25.2529  -47.8961 H         1 UNK         0.3000 
    206 H206       -2.7051  -26.3365  -50.6386 H         1 UNK         0.0600 
    207 H207       -0.9485  -24.5360  -50.4089 H         1 UNK         0.0600 
    208 H208       -2.3075  -24.0638  -51.4137 H         1 UNK         0.0600 
    209 H209       -2.1841  -23.4522  -49.7735 H         1 UNK         0.0600 
    210 H210       -4.4134  -25.9119  -47.9290 H         1 UNK         0.3000 
    211 H211       -6.5104  -25.5106  -47.3166 H         1 UNK         0.0600 
    212 H212       -7.2371  -25.9911  -50.2560 H         1 UNK         0.0600 
    213 H213       -8.3260  -26.1123  -48.8806 H         1 UNK         0.0600 
    214 H214       -6.9990  -27.2500  -49.0450 H         1 UNK         0.0600 
    215 H215       -4.9987  -23.2899  -47.6761 H         1 UNK         0.3000 
    216 H216       -5.1289  -21.1161  -47.3723 H         1 UNK         0.0600 
    217 H217       -7.1330  -19.7667  -47.4186 H         1 UNK         0.0600 
    218 H218       -7.5236  -21.2849  -46.6279 H         1 UNK         0.0600 
    219 H219       -8.0339  -20.9908  -48.2925 H         1 UNK         0.0600 
    220 H220       -4.9761  -22.6861  -50.1450 H         1 UNK         0.3000 
    221 H221       -4.1530  -22.2948  -52.1445 H         1 UNK         0.0600 
    222 H222       -3.0193  -19.7499  -50.8676 H         1 UNK         0.0600 
    223 H223       -2.2662  -21.3347  -50.8873 H         1 UNK         0.0600 
    224 H224       -2.4700  -20.4554  -52.3856 H         1 UNK         0.0600 
    225 H225       -4.0773  -18.9401  -52.4390 H         1 UNK         0.3000 
    226 H226       -5.0270  -17.4577  -53.7643 H         1 UNK         0.0600 
    227 H227       -6.9810  -17.6793  -52.1854 H         1 UNK         0.0600 
    228 H228       -7.4591  -17.1872  -53.8013 H         1 UNK         0.0600 
    229 H229       -7.7137  -18.8463  -53.2828 H         1 UNK         0.0600 
    230 H230       -3.9867  -19.9826  -54.8821 H         1 UNK         0.3000 
    231 H231       -4.6431  -19.5760  -57.6470 H         1 UNK         0.0600 
    232 H232       -5.2484  -22.2875  -56.3106 H         1 UNK         0.0600 
    233 H233       -5.2211  -21.9992  -58.0474 H         1 UNK         0.0600 
    234 H234       -6.4441  -21.2255  -57.0511 H         1 UNK         0.0600 
    235 H235       -2.9480  -20.4307  -58.9158 H         1 UNK         0.3000 
    236 H236       -0.8452  -20.7851  -59.4709 H         1 UNK         0.0600 
    237 H237       -0.5698  -22.5958  -57.0170 H         1 UNK         0.0600 
    238 H238       -1.2401  -23.0961  -58.5693 H         1 UNK         0.0600 
    239 H239        0.4407  -22.6044  -58.4535 H         1 UNK         0.0600 
    240 H240       -1.5520  -18.5683  -57.6376 H         1 UNK         0.3000 
    241 H241        0.7940  -17.9827  -56.0399 H         1 UNK         0.0600 
    242 H242        0.3777  -17.6921  -59.4547 H         1 UNK         0.3800 
    243 H243        1.5924  -16.4626  -59.6848 H         1 UNK         0.3800 
    244 H244       -0.3937  -15.7315  -55.7354 H         1 UNK         0.0800 
    245 H245       -1.6710  -16.3231  -56.7539 H         1 UNK         0.0800 
    246 H246       -1.3143  -15.3593  -53.4658 H         1 UNK         0.0800 
    247 H247        0.0787  -16.4064  -53.3394 H         1 UNK         0.0800 
@<TRIPOS>BOND
     1    1    2 1    
     2    1  127 1    
     3    1  128 1    
     4    1  129 1    
     5    2    3 2    
     6    2    4 am   BACKBONE|DICT|INTERRES
     7    4    5 1    
     8    4  130 1    
     9    5    6 1    
    10    5   65 1    
    11    5  131 1    
    12    6    7 1    
    13    6  132 1    
    14    6  133 1    
    15    7    8 1    
    16    8    9 1    
    17    8  134 1    
    18    8  135 1    
    19    9   10 ar   
    20    9   14 ar   
    21   10   11 ar   
    22   10  136 1    
    23   11   12 ar   
    24   11  126 1    
    25   12   13 ar   
    26   12  137 1    
    27   13   14 ar   
    28   13   15 1    
    29   14  138 1    
    30   15   16 1    
    31   15  139 1    
    32   15  140 1    
    33   16   17 1    
    34   17   18 1    
    35   17  141 1    
    36   17  142 1    
    37   18   19 1    
    38   18   67 1    
    39   18  143 1    
    40   19   20 am   BACKBONE|DICT|INTERRES
    41   19  144 1    
    42   20   21 2    
    43   20   22 1    
    44   22   23 1    
    45   22   24 1    
    46   22  145 1    
    47   23  146 1    
    48   23  147 1    
    49   23  148 1    
    50   24   25 am   BACKBONE|DICT|INTERRES
    51   24  149 1    
    52   25   26 2    
    53   25   27 1    
    54   27   28 1    
    55   27   29 1    
    56   27  150 1    
    57   28  151 1    
    58   28  152 1    
    59   28  153 1    
    60   29   30 am   BACKBONE|DICT|INTERRES
    61   29  154 1    
    62   30   31 2    
    63   30   32 1    
    64   32   33 1    
    65   32   34 1    
    66   32  155 1    
    67   33  156 1    
    68   33  157 1    
    69   33  158 1    
    70   34   35 am   BACKBONE|DICT|INTERRES
    71   34  159 1    
    72   35   36 2    
    73   35   37 1    
    74   37   38 1    
    75   37   39 1    
    76   37  160 1    
    77   38  161 1    
    78   38  162 1    
    79   38  163 1    
    80   39   40 am   BACKBONE|DICT|INTERRES
    81   39  164 1    
    82   40   41 2    
    83   40   42 1    
    84   42   43 1    
    85   42   44 1    
    86   42  165 1    
    87   43  166 1    
    88   43  167 1    
    89   43  168 1    
    90   44   45 am   BACKBONE|DICT|INTERRES
    91   44  169 1    
    92   45   46 2    
    93   45   47 1    
    94   47   48 1    
    95   47   49 1    
    96   47  170 1    
    97   48  171 1    
    98   48  172 1    
    99   48  173 1    
   100   49   50 am   BACKBONE|DICT|INTERRES
   101   49  174 1    
   102   50   51 2    
   103   50   52 1    
   104   52   53 1    
   105   52   54 1    
   106   52  175 1    
   107   53  176 1    
   108   53  177 1    
   109   53  178 1    
   110   54   55 am   BACKBONE|DICT|INTERRES
   111   54  179 1    
   112   55   56 2    
   113   55   57 1    
   114   57   58 1    
   115   57   59 1    
   116   57  180 1    
   117   58  181 1    
   118   58  182 1    
   119   58  183 1    
   120   59   60 am   BACKBONE|DICT|INTERRES
   121   59  184 1    
   122   60   61 2    
   123   60   62 1    
   124   62   63 1    
   125   62   64 1    
   126   62  185 1    
   127   63  186 1    
   128   63  187 1    
   129   63  188 1    
   130   64   65 am   BACKBONE|DICT|INTERRES
   131   64  189 1    
   132   65   66 2    
   133   67   68 2    
   134   67   69 am   BACKBONE|DICT|INTERRES
   135   69   70 1    
   136   69  190 1    
   137   70   71 1    
   138   70   72 1    
   139   70  191 1    
   140   71  192 1    
   141   71  193 1    
   142   71  194 1    
   143   72   73 2    
   144   72   74 am   BACKBONE|DICT|INTERRES
   145   74   75 1    
   146   74  195 1    
   147   75   76 1    
   148   75   77 1    
   149   75  196 1    
   150   76  197 1    
   151   76  198 1    
   152   76  199 1    
   153   77   78 2    
   154   77   79 am   BACKBONE|DICT|INTERRES
   155   79   80 1    
   156   79  200 1    
   157   80   81 1    
   158   80   82 1    
   159   80  201 1    
   160   81  202 1    
   161   81  203 1    
   162   81  204 1    
   163   82   83 2    
   164   82   84 am   BACKBONE|DICT|INTERRES
   165   84   85 1    
   166   84  205 1    
   167   85   86 1    
   168   85   87 1    
   169   85  206 1    
   170   86  207 1    
   171   86  208 1    
   172   86  209 1    
   173   87   88 2    
   174   87   89 am   BACKBONE|DICT|INTERRES
   175   89   90 1    
   176   89  210 1    
   177   90   91 1    
   178   90   92 1    
   179   90  211 1    
   180   91  212 1    
   181   91  213 1    
   182   91  214 1    
   183   92   93 2    
   184   92   94 am   BACKBONE|DICT|INTERRES
   185   94   95 1    
   186   94  215 1    
   187   95   96 1    
   188   95   97 1    
   189   95  216 1    
   190   96  217 1    
   191   96  218 1    
   192   96  219 1    
   193   97   98 2    
   194   97   99 am   BACKBONE|DICT|INTERRES
   195   99  100 1    
   196   99  220 1    
   197  100  101 1    
   198  100  102 1    
   199  100  221 1    
   200  101  222 1    
   201  101  223 1    
   202  101  224 1    
   203  102  103 2    
   204  102  104 am   BACKBONE|DICT|INTERRES
   205  104  105 1    
   206  104  225 1    
   207  105  106 1    
   208  105  107 1    
   209  105  226 1    
   210  106  227 1    
   211  106  228 1    
   212  106  229 1    
   213  107  108 2    
   214  107  109 am   BACKBONE|DICT|INTERRES
   215  109  110 1    
   216  109  230 1    
   217  110  111 1    
   218  110  112 1    
   219  110  231 1    
   220  111  232 1    
   221  111  233 1    
   222  111  234 1    
   223  112  113 2    
   224  112  114 am   BACKBONE|DICT|INTERRES
   225  114  115 1    
   226  114  235 1    
   227  115  116 1    
   228  115  117 1    
   229  115  236 1    
   230  116  237 1    
   231  116  238 1    
   232  116  239 1    
   233  117  118 2    
   234  117  119 am   BACKBONE|DICT|INTERRES
   235  119  120 1    
   236  119  240 1    
   237  120  121 1    
   238  120  124 1    
   239  120  241 1    
   240  121  122 am   BACKBONE|DICT|INTERRES
   241  121  123 2    
   242  122  242 1    
   243  122  243 1    
   244  124  125 1    
   245  124  244 1    
   246  124  245 1    
   247  125  126 1    
   248  126  246 1    
   249  126  247 1    
@<TRIPOS>SUBSTRUCTURE
     1 UNK         1 GROUP             0       ****    0 ROOT    
