@<TRIPOS>MOLECULE
3R540
247   249    1
SMALL
USER_CHARGES


@<TRIPOS>ATOM
      1 CA         -4.3745  -15.3139  -46.9760 C.3       0 UNK        -0.1800 
      2 C          -3.5323  -14.5391  -47.9792 C.2       0 UNK         0.5000 
      3 O          -4.0513  -13.6437  -48.6460 O.2       0 UNK        -0.5000 
      4 N          -2.2387  -14.8717  -48.0827 N.am      1 UNK        -0.5000 
      5 CA         -1.2469  -14.1577  -48.8949 C.3       1 UNK         0.1400 
      6 C6          0.1151  -14.8895  -48.9250 C.3       23 UNK        -0.0398 
      7 S7          0.0098  -16.5638  -49.6341 S.3       23 UNK        -0.2404 
      8 C8          1.6142  -17.2398  -49.0861 C.3       23 UNK        -0.0205 
      9 C9          1.9015  -18.6330  -49.6364 C.ar      23 UNK        -0.0193 
     10 C10         1.6620  -18.9304  -50.9824 C.ar      23 UNK        -0.1150 
     11 C11         1.9614  -20.1924  -51.4991 C.ar      23 UNK        -0.0193 
     12 C12         2.5250  -21.1602  -50.6663 C.ar      23 UNK        -0.1150 
     13 C13         2.7736  -20.8803  -49.3201 C.ar      23 UNK        -0.0193 
     14 C14         2.4545  -19.6172  -48.8078 C.ar      23 UNK        -0.1150 
     15 C15         3.4163  -21.9420  -48.4406 C.3       23 UNK        -0.0205 
     16 S16         2.2617  -23.2941  -48.0522 S.3       23 UNK        -0.2404 
     17 C17         1.2304  -22.5115  -46.7710 C.3       23 UNK        -0.0398 
     18 CA          0.4535  -23.5427  -45.9172 C.3       11 UNK         0.1400 
     19 N           0.2032  -23.0297  -44.5662 N.am      11 UNK        -0.5000 
     20 C          -0.2228  -23.7480  -43.5178 C.2       10 UNK         0.5000 
     21 O          -0.4818  -24.9510  -43.5714 O.2       10 UNK        -0.5000 
     22 CA         -0.4203  -22.9777  -42.2004 C.3       10 UNK         0.1400 
     23 CB          0.9217  -22.7597  -41.4844 C.3       10 UNK        -0.1800 
     24 N          -1.0633  -21.6845  -42.4359 N.am      10 UNK        -0.5000 
     25 C          -2.3861  -21.5174  -42.5720 C.2       9 UNK         0.5000 
     26 O          -3.2063  -22.4223  -42.4186 O.2       9 UNK        -0.5000 
     27 CA         -2.8825  -20.1111  -42.9640 C.3       9 UNK         0.1400 
     28 CB         -3.1644  -19.2696  -41.7106 C.3       9 UNK        -0.1800 
     29 N          -1.9580  -19.3799  -43.8312 N.am      9 UNK        -0.5000 
     30 C          -1.5890  -19.7656  -45.0603 C.2       8 UNK         0.5000 
     31 O          -2.0088  -20.7754  -45.6198 O.2       8 UNK        -0.5000 
     32 CA         -0.5378  -18.8983  -45.7689 C.3       8 UNK         0.1400 
     33 CB         -1.2190  -17.6974  -46.4334 C.3       8 UNK        -0.1800 
     34 N           0.5194  -18.4243  -44.8760 N.am      8 UNK        -0.5000 
     35 C           1.3238  -19.2040  -44.1396 C.2       7 UNK         0.5000 
     36 O           1.2605  -20.4322  -44.1221 O.2       7 UNK        -0.5000 
     37 CA          2.3328  -18.4859  -43.2322 C.3       7 UNK         0.1400 
     38 CB          3.5562  -18.0212  -44.0358 C.3       7 UNK        -0.1800 
     39 N           1.7125  -17.3450  -42.5605 N.am      7 UNK        -0.5000 
     40 C           0.8600  -17.4542  -41.5313 C.2       6 UNK         0.5000 
     41 O           0.5736  -18.5225  -40.9902 O.2       6 UNK        -0.5000 
     42 CA          0.1935  -16.1537  -41.0442 C.3       6 UNK         0.1400 
     43 CB          1.0801  -15.4461  -40.0085 C.3       6 UNK        -0.1800 
     44 N          -0.1090  -15.2261  -42.1364 N.am      6 UNK        -0.5000 
     45 C          -1.0228  -15.4526  -43.0903 C.2       5 UNK         0.5000 
     46 O          -1.7254  -16.4624  -43.1375 O.2       5 UNK        -0.5000 
     47 CA         -1.1374  -14.3932  -44.2038 C.3       5 UNK         0.1400 
     48 CB         -2.1351  -13.2953  -43.8091 C.3       5 UNK        -0.1800 
     49 N           0.1415  -13.7797  -44.5790 N.am      5 UNK        -0.5000 
     50 C           1.1870  -14.4474  -45.0858 C.2       4 UNK         0.5000 
     51 O           1.2067  -15.6729  -45.2045 O.2       4 UNK        -0.5000 
     52 CA          2.3950  -13.6144  -45.5464 C.3       4 UNK         0.1400 
     53 CB          3.3258  -14.3875  -46.5056 C.3       4 UNK        -0.1800 
     54 N           1.9753  -12.3511  -46.1602 N.am      4 UNK        -0.5000 
     55 C           2.7498  -11.2573  -46.2214 C.2       3 UNK         0.5000 
     56 O           3.8634  -11.1941  -45.6976 O.2       3 UNK        -0.5000 
     57 CA          2.2181  -10.0366  -46.9987 C.3       3 UNK         0.1400 
     58 CB          3.3262   -9.3331  -47.8045 C.3       3 UNK        -0.1800 
     59 N           1.1299  -10.3967  -47.9086 N.am      3 UNK        -0.5000 
     60 C          -0.0338   -9.7434  -48.0050 C.2       2 UNK         0.5000 
     61 O          -0.3116   -8.7391  -47.3478 O.2       2 UNK        -0.5000 
     62 CA         -1.0758  -10.2984  -48.9986 C.3       2 UNK         0.1400 
     63 CB         -0.9980   -9.5332  -50.3291 C.3       2 UNK        -0.1800 
     64 N          -1.0097  -11.7396  -49.2790 N.am      2 UNK        -0.5000 
     65 C          -1.0621  -12.7193  -48.3665 C.2       1 UNK         0.5000 
     66 O          -0.9537  -12.5330  -47.1530 O.2       1 UNK        -0.5000 
     67 C          -0.8245  -24.0440  -46.6304 C.2       11 UNK         0.5000 
     68 O          -0.7204  -24.8617  -47.5434 O.2       11 UNK        -0.5000 
     69 N          -2.0032  -23.6029  -46.1653 N.am      12 UNK        -0.5000 
     70 CA         -3.3468  -23.9981  -46.6025 C.3       12 UNK         0.1400 
     71 CB         -4.3733  -23.3507  -45.6612 C.3       12 UNK        -0.1800 
     72 C          -3.5952  -25.5203  -46.6630 C.2       12 UNK         0.5000 
     73 O          -4.4220  -25.9717  -47.4558 O.2       12 UNK        -0.5000 
     74 N          -2.8813  -26.2831  -45.8243 N.am      13 UNK        -0.5000 
     75 CA         -2.9116  -27.7441  -45.7981 C.3       13 UNK         0.1400 
     76 CB         -2.3644  -28.2174  -44.4424 C.3       13 UNK        -0.1800 
     77 C          -2.1215  -28.3973  -46.9517 C.2       13 UNK         0.5000 
     78 O          -2.3723  -29.5641  -47.2569 O.2       13 UNK        -0.5000 
     79 N          -1.1750  -27.6624  -47.5513 N.am      14 UNK        -0.5000 
     80 CA         -0.2670  -28.1485  -48.5896 C.3       14 UNK         0.1400 
     81 CB          1.1711  -27.7534  -48.2150 C.3       14 UNK        -0.1800 
     82 C          -0.6208  -27.5991  -49.9814 C.2       14 UNK         0.5000 
     83 O          -0.4638  -28.3230  -50.9659 O.2       14 UNK        -0.5000 
     84 N          -1.0791  -26.3441  -50.0542 N.am      15 UNK        -0.5000 
     85 CA         -1.3974  -25.6404  -51.2946 C.3       15 UNK         0.1400 
     86 CB         -0.1180  -24.9881  -51.8483 C.3       15 UNK        -0.1800 
     87 C          -2.4851  -24.5887  -51.0371 C.2       15 UNK         0.5000 
     88 O          -2.7616  -24.2578  -49.8845 O.2       15 UNK        -0.5000 
     89 N          -3.0668  -24.0441  -52.1136 N.am      16 UNK        -0.5000 
     90 CA         -4.1394  -23.0386  -52.1071 C.3       16 UNK         0.1400 
     91 CB         -4.8333  -23.0647  -53.4823 C.3       16 UNK        -0.1800 
     92 C          -3.6761  -21.6171  -51.7000 C.2       16 UNK         0.5000 
     93 O          -4.1115  -20.6257  -52.2926 O.2       16 UNK        -0.5000 
     94 N          -2.7938  -21.5383  -50.6985 N.am      17 UNK        -0.5000 
     95 CA         -2.1588  -20.3244  -50.1947 C.3       17 UNK         0.1400 
     96 CB         -1.0674  -20.7144  -49.1920 C.3       17 UNK        -0.1800 
     97 C          -3.1706  -19.3566  -49.5633 C.2       17 UNK         0.5000 
     98 O          -3.2978  -18.2199  -50.0151 O.2       17 UNK        -0.5000 
     99 N          -3.9130  -19.8395  -48.5581 N.am      18 UNK        -0.5000 
    100 CA        -4.9581  -19.0669  -47.8819 C.3       18 UNK         0.1400 
    101 CB        -5.3781  -19.7881  -46.5938 C.3       18 UNK        -0.1800 
    102 C         -6.1874  -18.7957  -48.7698 C.2       18 UNK         0.5000 
    103 O         -6.9119  -17.8319  -48.5215 O.2       18 UNK        -0.5000 
    104 N         -6.4052  -19.6555  -49.7735 N.am      19 UNK        -0.5000 
    105 CA        -7.5157  -19.5618  -50.7137 C.3       19 UNK         0.1400 
    106 CB        -7.7377  -20.9258  -51.3842 C.3       19 UNK        -0.1800 
    107 C         -7.3073  -18.4546  -51.7601 C.2       19 UNK         0.5000 
    108 O         -8.2026  -17.6269  -51.9376 O.2       19 UNK        -0.5000 
    109 N         -6.1539  -18.4617  -52.4454 N.am      20 UNK        -0.5000 
    110 CA        -5.8985  -17.5821  -53.5899 C.3       20 UNK         0.1400 
    111 CB        -6.6507  -18.1148  -54.8301 C.3       20 UNK        -0.1800 
    112 C         -4.3986  -17.3777  -53.8718 C.2       20 UNK         0.5000 
    113 O         -4.0336  -17.1503  -55.0273 O.2       20 UNK        -0.5000 
    114 N         -3.5408  -17.4841  -52.8437 N.am      21 UNK        -0.5000 
    115 CA        -2.0752  -17.3540  -52.9186 C.3       21 UNK         0.1400 
    116 CB        -1.6740  -15.8845  -53.1596 C.3       21 UNK        -0.1800 
    117 C         -1.4271  -18.3329  -53.9241 C.2       21 UNK         0.5000 
    118 O         -0.4447  -17.9902  -54.5837 O.2       21 UNK        -0.5000 
    119 N         -2.0247  -19.5263  -54.0336 N.am      22 UNK        -0.5000 
    120 CA        -1.7065  -20.5978  -54.9911 C.3       22 UNK         0.1400 
    121 C         -2.1002  -20.2901  -56.4685 C.2       22 UNK         0.5000 
    122 N         -2.8441  -19.2296  -56.7621 N.am      22 UNK        -0.7600 
    123 O         -1.7526  -21.0473  -57.3708 O.2       22 UNK        -0.5000 
    124 C124       -0.2600  -21.1549  -54.8698 C.3       23 UNK        -0.0398 
    125 S125        0.2129  -21.5467  -53.1497 S.3       23 UNK        -0.2404 
    126 C126        1.6888  -20.5009  -52.9598 C.3       23 UNK        -0.0205 
    127 H127       -3.8073  -16.1059  -46.4897 H         1 UNK         0.0600 
    128 H128       -5.2339  -15.7615  -47.4748 H         1 UNK         0.0600 
    129 H129       -4.7435  -14.6409  -46.2021 H         1 UNK         0.0600 
    130 H130       -1.8745  -15.6321  -47.5307 H         1 UNK         0.3000 
    131 H131       -1.6331  -14.1068  -49.9152 H         1 UNK         0.0600 
    132 H132        0.5214  -14.9664  -47.9166 H         1 UNK         0.0800 
    133 H133        0.8431  -14.3264  -49.5120 H         1 UNK         0.0800 
    134 H134        1.6394  -17.2491  -47.9950 H         1 UNK         0.0800 
    135 H135        2.4128  -16.5717  -49.4107 H         1 UNK         0.0800 
    136 H136        1.2433  -18.1756  -51.6330 H         1 UNK         0.1150 
    137 H137        2.7641  -22.1362  -51.0651 H         1 UNK         0.1150 
    138 H138        2.6536  -19.3952  -47.7687 H         1 UNK         0.1150 
    139 H139        4.2773  -22.3600  -48.9641 H         1 UNK         0.0800 
    140 H140        3.8064  -21.5061  -47.5196 H         1 UNK         0.0800 
    141 H141        0.5658  -21.7773  -47.2236 H         1 UNK         0.0800 
    142 H142        1.9086  -21.9448  -46.1330 H         1 UNK         0.0800 
    143 H143        1.0923  -24.4187  -45.7843 H         1 UNK         0.0600 
    144 H144        0.4321  -22.0501  -44.4138 H         1 UNK         0.3000 
    145 H145       -1.0534  -23.5824  -41.5474 H         1 UNK         0.0600 
    146 H146        0.7801  -22.2483  -40.5321 H         1 UNK         0.0600 
    147 H147        1.6118  -22.1641  -42.0827 H         1 UNK         0.0600 
    148 H148        1.4091  -23.7123  -41.2734 H         1 UNK         0.0600 
    149 H149       -0.4534  -20.8955  -42.6039 H         1 UNK         0.3000 
    150 H150       -3.8198  -20.2360  -43.5097 H         1 UNK         0.0600 
    151 H151       -3.8642  -19.7777  -41.0460 H         1 UNK         0.0600 
    152 H152       -3.6054  -18.3078  -41.9733 H         1 UNK         0.0600 
    153 H153       -2.2526  -19.0755  -41.1444 H         1 UNK         0.0600 
    154 H154       -1.6069  -18.4961  -43.4773 H         1 UNK         0.3000 
    155 H155       -0.0583  -19.5011  -46.5406 H         1 UNK         0.0600 
    156 H156       -1.8601  -18.0169  -47.2545 H         1 UNK         0.0600 
    157 H157       -0.4844  -17.0042  -46.8350 H         1 UNK         0.0600 
    158 H158       -1.8386  -17.1504  -45.7249 H         1 UNK         0.0600 
    159 H159        0.6770  -17.4196  -44.8581 H         1 UNK         0.3000 
    160 H160        2.6741  -19.1964  -42.4760 H         1 UNK         0.0600 
    161 H161        3.2803  -17.3336  -44.8347 H         1 UNK         0.0600 
    162 H162        4.0613  -18.8704  -44.4978 H         1 UNK         0.0600 
    163 H163        4.2822  -17.5195  -43.3959 H         1 UNK         0.0600 
    164 H164        1.8508  -16.4388  -42.9835 H         1 UNK         0.3000 
    165 H165       -0.7471  -16.4255  -40.5601 H         1 UNK         0.0600 
    166 H166        0.5836  -14.5657  -39.6002 H         1 UNK         0.0600 
    167 H167        1.3058  -16.1080  -39.1713 H         1 UNK         0.0600 
    168 H168        2.0296  -15.1272  -40.4401 H         1 UNK         0.0600 
    169 H169        0.4262  -14.3712  -42.1754 H         1 UNK         0.3000 
    170 H170       -1.5288  -14.8921  -45.0914 H         1 UNK         0.0600 
    171 H171       -1.7849  -12.7215  -42.9504 H         1 UNK         0.0600 
    172 H172       -2.3011  -12.6012  -44.6335 H         1 UNK         0.0600 
    173 H173       -3.1038  -13.7234  -43.5476 H         1 UNK         0.0600 
    174 H174        0.1905  -12.7731  -44.5206 H         1 UNK         0.3000 
    175 H175        2.9567  -13.3947  -44.6362 H         1 UNK         0.0600 
    176 H176        2.8253  -14.6370  -47.4405 H         1 UNK         0.0600 
    177 H177        4.2149  -13.8068  -46.7508 H         1 UNK         0.0600 
    178 H178        3.6724  -15.3189  -46.0582 H         1 UNK         0.0600 
    179 H179        1.0372  -12.3253  -46.5483 H         1 UNK         0.3000 
    180 H180        1.8595   -9.3404  -46.2381 H         1 UNK         0.0600 
    181 H181        2.9381   -8.4570  -48.3244 H         1 UNK         0.0600 
    182 H182        3.7630   -9.9987  -48.5498 H         1 UNK         0.0600 
    183 H183        4.1322   -8.9894  -47.1550 H         1 UNK         0.0600 
    184 H184        1.2797  -11.2059  -48.4937 H         1 UNK         0.3000 
    185 H185       -2.0572  -10.1092  -48.5590 H         1 UNK         0.0600 
    186 H186       -0.0556   -9.7213  -50.8452 H         1 UNK         0.0600 
    187 H187       -1.8109   -9.8172  -50.9977 H         1 UNK         0.0600 
    188 H188       -1.0748   -8.4568  -50.1686 H         1 UNK         0.0600 
    189 H189       -1.0768  -11.9910  -50.2548 H         1 UNK         0.3000 
    190 H190       -1.9723  -22.8551  -45.4824 H         1 UNK         0.3000 
    191 H191       -3.4997  -23.5857  -47.5985 H         1 UNK         0.0600 
    192 H192       -4.2359  -22.2728  -45.6031 H         1 UNK         0.0600 
    193 H193       -4.2930  -23.7479  -44.6486 H         1 UNK         0.0600 
    194 H194       -5.3918  -23.5321  -46.0067 H         1 UNK         0.0600 
    195 H195       -2.2285  -25.8295  -45.1988 H         1 UNK         0.3000 
    196 H196       -3.9493  -28.0741  -45.8806 H         1 UNK         0.0600 
    197 H197       -2.9575  -27.8214  -43.6178 H         1 UNK         0.0600 
    198 H198       -1.3310  -27.9008  -44.2940 H         1 UNK         0.0600 
    199 H199       -2.3898  -29.3053  -44.3670 H         1 UNK         0.0600 
    200 H200       -1.0721  -26.6837  -47.2978 H         1 UNK         0.3000 
    201 H201       -0.3060  -29.2383  -48.6473 H         1 UNK         0.0600 
    202 H202        1.4583  -28.1790  -47.2535 H         1 UNK         0.0600 
    203 H203        1.2900  -26.6709  -48.1508 H         1 UNK         0.0600 
    204 H204        1.8821  -28.1175  -48.9576 H         1 UNK         0.0600 
    205 H205       -1.1954  -25.7930  -49.2066 H         1 UNK         0.3000 
    206 H206       -1.7912  -26.3496  -52.0256 H         1 UNK         0.0600 
    207 H207        0.2746  -24.2329  -51.1652 H         1 UNK         0.0600 
    208 H208        0.6660  -25.7270  -52.0144 H         1 UNK         0.0600 
    209 H209       -0.3070  -24.5023  -52.8056 H         1 UNK         0.0600 
    210 H210       -2.7530  -24.3407  -53.0262 H         1 UNK         0.3000 
    211 H211       -4.8790  -23.3396  -51.3625 H         1 UNK         0.0600 
    212 H212       -4.1397  -22.8335  -54.2898 H         1 UNK         0.0600 
    213 H213       -5.6499  -22.3457  -53.5408 H         1 UNK         0.0600 
    214 H214       -5.2608  -24.0468  -53.6846 H         1 UNK         0.0600 
    215 H215       -2.5316  -22.4123  -50.2520 H         1 UNK         0.3000 
    216 H216       -1.6794  -19.8208  -51.0352 H         1 UNK         0.0600 
    217 H217       -0.5660  -19.8273  -48.8072 H         1 UNK         0.0600 
    218 H218       -0.3078  -21.3390  -49.6625 H         1 UNK         0.0600 
    219 H219       -1.4734  -21.2652  -48.3431 H         1 UNK         0.0600 
    220 H220       -3.7497  -20.7801  -48.2304 H         1 UNK         0.3000 
    221 H221       -4.5341  -18.1018  -47.6049 H         1 UNK         0.0600 
    222 H222       -5.7767  -20.7817  -46.8010 H         1 UNK         0.0600 
    223 H223       -4.5377  -19.8924  -45.9099 H         1 UNK         0.0600 
    224 H224       -6.1513  -19.2281  -46.0663 H         1 UNK         0.0600 
    225 H225       -5.7462  -20.4055  -49.9116 H         1 UNK         0.3000 
    226 H226       -8.4213  -19.3210  -50.1522 H         1 UNK         0.0600 
    227 H227       -7.9790  -21.6927  -50.6479 H         1 UNK         0.0600 
    228 H228       -8.5661  -20.8827  -52.0925 H         1 UNK         0.0600 
    229 H229       -6.8556  -21.2528  -51.9312 H         1 UNK         0.0600 
    230 H230       -5.4614  -19.1841  -52.2672 H         1 UNK         0.3000 
    231 H231       -6.2848  -16.5874  -53.3584 H         1 UNK         0.0600 
    232 H232       -6.5262  -17.4517  -55.6871 H         1 UNK         0.0600 
    233 H233       -7.7223  -18.1943  -54.6488 H         1 UNK         0.0600 
    234 H234       -6.2868  -19.1013  -55.1201 H         1 UNK         0.0600 
    235 H235       -3.8981  -17.6846  -51.9154 H         1 UNK         0.3000 
    236 H236       -1.6821  -17.6329  -51.9424 H         1 UNK         0.0600 
    237 H237       -1.9809  -15.5368  -54.1464 H         1 UNK         0.0600 
    238 H238       -2.1248  -15.2286  -52.4149 H         1 UNK         0.0600 
    239 H239       -0.5932  -15.7582  -53.0870 H         1 UNK         0.0600 
    240 H240       -2.8300  -19.7099  -53.4435 H         1 UNK         0.3000 
    241 H241       -2.3700  -21.4125  -54.7064 H         1 UNK         0.0600 
    242 H242       -3.1465  -18.5762  -56.0463 H         1 UNK         0.3800 
    243 H243       -3.0951  -19.0582  -57.7226 H         1 UNK         0.3800 
    244 H244        0.4518  -20.4542  -55.3077 H         1 UNK         0.0800 
    245 H245       -0.1630  -22.0741  -55.4496 H         1 UNK         0.0800 
    246 H246        2.5491  -21.0059  -53.4012 H         1 UNK         0.0800 
    247 H247        1.5609  -19.5692  -53.5124 H         1 UNK         0.0800 
@<TRIPOS>BOND
     1    1    2 1    
     2    1  127 1    
     3    1  128 1    
     4    1  129 1    
     5    2    3 2    
     6    2    4 am   BACKBONE|DICT|INTERRES
     7    4    5 1    
     8    4  130 1    
     9    5    6 1    
    10    5   65 1    
    11    5  131 1    
    12    6    7 1    
    13    6  132 1    
    14    6  133 1    
    15    7    8 1    
    16    8    9 1    
    17    8  134 1    
    18    8  135 1    
    19    9   10 ar   
    20    9   14 ar   
    21   10   11 ar   
    22   10  136 1    
    23   11   12 ar   
    24   11  126 1    
    25   12   13 ar   
    26   12  137 1    
    27   13   14 ar   
    28   13   15 1    
    29   14  138 1    
    30   15   16 1    
    31   15  139 1    
    32   15  140 1    
    33   16   17 1    
    34   17   18 1    
    35   17  141 1    
    36   17  142 1    
    37   18   19 1    
    38   18   67 1    
    39   18  143 1    
    40   19   20 am   BACKBONE|DICT|INTERRES
    41   19  144 1    
    42   20   21 2    
    43   20   22 1    
    44   22   23 1    
    45   22   24 1    
    46   22  145 1    
    47   23  146 1    
    48   23  147 1    
    49   23  148 1    
    50   24   25 am   BACKBONE|DICT|INTERRES
    51   24  149 1    
    52   25   26 2    
    53   25   27 1    
    54   27   28 1    
    55   27   29 1    
    56   27  150 1    
    57   28  151 1    
    58   28  152 1    
    59   28  153 1    
    60   29   30 am   BACKBONE|DICT|INTERRES
    61   29  154 1    
    62   30   31 2    
    63   30   32 1    
    64   32   33 1    
    65   32   34 1    
    66   32  155 1    
    67   33  156 1    
    68   33  157 1    
    69   33  158 1    
    70   34   35 am   BACKBONE|DICT|INTERRES
    71   34  159 1    
    72   35   36 2    
    73   35   37 1    
    74   37   38 1    
    75   37   39 1    
    76   37  160 1    
    77   38  161 1    
    78   38  162 1    
    79   38  163 1    
    80   39   40 am   BACKBONE|DICT|INTERRES
    81   39  164 1    
    82   40   41 2    
    83   40   42 1    
    84   42   43 1    
    85   42   44 1    
    86   42  165 1    
    87   43  166 1    
    88   43  167 1    
    89   43  168 1    
    90   44   45 am   BACKBONE|DICT|INTERRES
    91   44  169 1    
    92   45   46 2    
    93   45   47 1    
    94   47   48 1    
    95   47   49 1    
    96   47  170 1    
    97   48  171 1    
    98   48  172 1    
    99   48  173 1    
   100   49   50 am   BACKBONE|DICT|INTERRES
   101   49  174 1    
   102   50   51 2    
   103   50   52 1    
   104   52   53 1    
   105   52   54 1    
   106   52  175 1    
   107   53  176 1    
   108   53  177 1    
   109   53  178 1    
   110   54   55 am   BACKBONE|DICT|INTERRES
   111   54  179 1    
   112   55   56 2    
   113   55   57 1    
   114   57   58 1    
   115   57   59 1    
   116   57  180 1    
   117   58  181 1    
   118   58  182 1    
   119   58  183 1    
   120   59   60 am   BACKBONE|DICT|INTERRES
   121   59  184 1    
   122   60   61 2    
   123   60   62 1    
   124   62   63 1    
   125   62   64 1    
   126   62  185 1    
   127   63  186 1    
   128   63  187 1    
   129   63  188 1    
   130   64   65 am   BACKBONE|DICT|INTERRES
   131   64  189 1    
   132   65   66 2    
   133   67   68 2    
   134   67   69 am   BACKBONE|DICT|INTERRES
   135   69   70 1    
   136   69  190 1    
   137   70   71 1    
   138   70   72 1    
   139   70  191 1    
   140   71  192 1    
   141   71  193 1    
   142   71  194 1    
   143   72   73 2    
   144   72   74 am   BACKBONE|DICT|INTERRES
   145   74   75 1    
   146   74  195 1    
   147   75   76 1    
   148   75   77 1    
   149   75  196 1    
   150   76  197 1    
   151   76  198 1    
   152   76  199 1    
   153   77   78 2    
   154   77   79 am   BACKBONE|DICT|INTERRES
   155   79   80 1    
   156   79  200 1    
   157   80   81 1    
   158   80   82 1    
   159   80  201 1    
   160   81  202 1    
   161   81  203 1    
   162   81  204 1    
   163   82   83 2    
   164   82   84 am   BACKBONE|DICT|INTERRES
   165   84   85 1    
   166   84  205 1    
   167   85   86 1    
   168   85   87 1    
   169   85  206 1    
   170   86  207 1    
   171   86  208 1    
   172   86  209 1    
   173   87   88 2    
   174   87   89 am   BACKBONE|DICT|INTERRES
   175   89   90 1    
   176   89  210 1    
   177   90   91 1    
   178   90   92 1    
   179   90  211 1    
   180   91  212 1    
   181   91  213 1    
   182   91  214 1    
   183   92   93 2    
   184   92   94 am   BACKBONE|DICT|INTERRES
   185   94   95 1    
   186   94  215 1    
   187   95   96 1    
   188   95   97 1    
   189   95  216 1    
   190   96  217 1    
   191   96  218 1    
   192   96  219 1    
   193   97   98 2    
   194   97   99 am   BACKBONE|DICT|INTERRES
   195   99  100 1    
   196   99  220 1    
   197  100  101 1    
   198  100  102 1    
   199  100  221 1    
   200  101  222 1    
   201  101  223 1    
   202  101  224 1    
   203  102  103 2    
   204  102  104 am   BACKBONE|DICT|INTERRES
   205  104  105 1    
   206  104  225 1    
   207  105  106 1    
   208  105  107 1    
   209  105  226 1    
   210  106  227 1    
   211  106  228 1    
   212  106  229 1    
   213  107  108 2    
   214  107  109 am   BACKBONE|DICT|INTERRES
   215  109  110 1    
   216  109  230 1    
   217  110  111 1    
   218  110  112 1    
   219  110  231 1    
   220  111  232 1    
   221  111  233 1    
   222  111  234 1    
   223  112  113 2    
   224  112  114 am   BACKBONE|DICT|INTERRES
   225  114  115 1    
   226  114  235 1    
   227  115  116 1    
   228  115  117 1    
   229  115  236 1    
   230  116  237 1    
   231  116  238 1    
   232  116  239 1    
   233  117  118 2    
   234  117  119 am   BACKBONE|DICT|INTERRES
   235  119  120 1    
   236  119  240 1    
   237  120  121 1    
   238  120  124 1    
   239  120  241 1    
   240  121  122 am   BACKBONE|DICT|INTERRES
   241  121  123 2    
   242  122  242 1    
   243  122  243 1    
   244  124  125 1    
   245  124  244 1    
   246  124  245 1    
   247  125  126 1    
   248  126  246 1    
   249  126  247 1    
@<TRIPOS>SUBSTRUCTURE
     1 UNK         1 GROUP             0       ****    0 ROOT    
