@<TRIPOS>MOLECULE
3R540
247   249    1
SMALL
USER_CHARGES


@<TRIPOS>ATOM
      1 CA         -1.2676   -9.8379  -44.3484 C.3       0 UNK        -0.1800 
      2 C          -0.5474   -9.9357  -45.6853 C.2       0 UNK         0.5000 
      3 O           0.0683   -8.9648  -46.1265 O.2       0 UNK        -0.5000 
      4 N          -0.6279  -11.1022  -46.3390 N.am      1 UNK        -0.5000 
      5 CA         -0.0278  -11.3732  -47.6525 C.3       1 UNK         0.1400 
      6 C6         -0.5442  -12.6937  -48.2658 C.3       23 UNK        -0.0398 
      7 S7         -2.3546  -12.7232  -48.4976 S.3       23 UNK        -0.2404 
      8 C8         -2.5136  -13.8392  -49.9298 C.3       23 UNK        -0.0205 
      9 C9         -1.9139  -15.2088  -49.6473 C.ar      23 UNK        -0.0193 
     10 C10        -0.6470  -15.5383  -50.1415 C.ar      23 UNK        -0.1150 
     11 C11        -0.0680  -16.7744  -49.8436 C.ar      23 UNK        -0.0193 
     12 C12        -0.7774  -17.6879  -49.0626 C.ar      23 UNK        -0.1150 
     13 C13        -2.0483  -17.3793  -48.5775 C.ar      23 UNK        -0.0193 
     14 C14        -2.6162  -16.1382  -48.8740 C.ar      23 UNK        -0.1150 
     15 C15        -2.7822  -18.3921  -47.7188 C.3       23 UNK        -0.0205 
     16 S16        -3.6078  -19.6299  -48.7525 S.3       23 UNK        -0.2404 
     17 C17        -3.7509  -21.0394  -47.6096 C.3       23 UNK        -0.0398 
     18 CA         -2.7059  -22.1382  -47.9219 C.3       11 UNK         0.1400 
     19 N          -1.3309  -21.7488  -47.5814 N.am      11 UNK        -0.5000 
     20 C          -0.2406  -22.4129  -47.9942 C.2       10 UNK         0.5000 
     21 O          -0.2793  -23.3645  -48.7740 O.2       10 UNK        -0.5000 
     22 CA          1.1115  -21.9930  -47.3879 C.3       10 UNK         0.1400 
     23 CB          1.7923  -20.8942  -48.2145 C.3       10 UNK        -0.1800 
     24 N           0.9873  -21.5612  -45.9949 N.am      10 UNK        -0.5000 
     25 C           0.8051  -22.4124  -44.9746 C.2       9 UNK         0.5000 
     26 O           0.7369  -23.6322  -45.1161 O.2       9 UNK        -0.5000 
     27 CA          0.6314  -21.8130  -43.5660 C.3       9 UNK         0.1400 
     28 CB          1.9957  -21.6547  -42.8793 C.3       9 UNK        -0.1800 
     29 N          -0.0638  -20.5268  -43.5542 N.am      9 UNK        -0.5000 
     30 C          -1.3028  -20.3116  -44.0161 C.2       8 UNK         0.5000 
     31 O          -2.0188  -21.1920  -44.4941 O.2       8 UNK        -0.5000 
     32 CA         -1.8089  -18.8581  -43.9854 C.3       8 UNK         0.1400 
     33 CB         -2.5804  -18.5887  -42.6854 C.3       8 UNK        -0.1800 
     34 N          -0.7670  -17.8366  -44.1389 N.am      8 UNK        -0.5000 
     35 C           0.1340  -17.7352  -45.1297 C.2       7 UNK         0.5000 
     36 O           0.2845  -18.5931  -46.0013 O.2       7 UNK        -0.5000 
     37 CA          1.0478  -16.4885  -45.1175 C.3       7 UNK         0.1400 
     38 CB          1.3001  -15.9412  -46.5369 C.3       7 UNK        -0.1800 
     39 N           0.5925  -15.4290  -44.2021 N.am      7 UNK        -0.5000 
     40 C          -0.4987  -14.6534  -44.3158 C.2       6 UNK         0.5000 
     41 O          -1.2661  -14.6731  -45.2758 O.2       6 UNK        -0.5000 
     42 CA         -0.8134  -13.7173  -43.1331 C.3       6 UNK         0.1400 
     43 CB         -1.9464  -14.3064  -42.2781 C.3       6 UNK        -0.1800 
     44 N           0.3410  -13.4547  -42.2706 N.am      6 UNK        -0.5000 
     45 C           1.3327  -12.6120  -42.5800 C.2       5 UNK         0.5000 
     46 O           1.3806  -11.9771  -43.6355 O.2       5 UNK        -0.5000 
     47 CA          2.4664  -12.4951  -41.5496 C.3       5 UNK         0.1400 
     48 CB          3.5989  -13.4842  -41.8641 C.3       5 UNK        -0.1800 
     49 N           3.0122  -11.1420  -41.5479 N.am      5 UNK        -0.5000 
     50 C           2.7288  -10.2065  -40.6323 C.2       4 UNK         0.5000 
     51 O           2.0018  -10.4014  -39.6569 O.2       4 UNK        -0.5000 
     52 CA          3.3658   -8.8164  -40.8252 C.3       4 UNK         0.1400 
     53 CB          4.6448   -8.6896  -39.9833 C.3       4 UNK        -0.1800 
     54 N           3.6868   -8.5218  -42.2210 N.am      4 UNK        -0.5000 
     55 C           2.7815   -8.2549  -43.1703 C.2       3 UNK         0.5000 
     56 O           1.5724   -8.1681  -42.9549 O.2       3 UNK        -0.5000 
     57 CA          3.3128   -8.0503  -44.6013 C.3       3 UNK         0.1400 
     58 CB          4.7342   -7.4472  -44.6558 C.3       3 UNK        -0.1800 
     59 N           3.2370   -9.2784  -45.3948 N.am      3 UNK        -0.5000 
     60 C           3.8359  -10.4568  -45.1622 C.2       2 UNK         0.5000 
     61 O           4.5588  -10.6836  -44.1893 O.2       2 UNK        -0.5000 
     62 CA          3.5493  -11.5595  -46.1987 C.3       2 UNK         0.1400 
     63 CB          4.0366  -12.9565  -45.7749 C.3       2 UNK        -0.1800 
     64 N           2.1132  -11.6143  -46.4529 N.am      2 UNK        -0.5000 
     65 C           1.5172  -11.3747  -47.6271 C.2       1 UNK         0.5000 
     66 O           2.1332  -11.1424  -48.6678 O.2       1 UNK        -0.5000 
     67 C          -3.0863  -23.4607  -47.2303 C.2       11 UNK         0.5000 
     68 O          -3.6982  -24.3180  -47.8674 O.2       11 UNK        -0.5000 
     69 N          -2.6847  -23.6184  -45.9598 N.am      12 UNK        -0.5000 
     70 CA         -2.8701  -24.8376  -45.1730 C.3       12 UNK         0.1400 
     71 CB         -2.4795  -24.5767  -43.7111 C.3       12 UNK        -0.1800 
     72 C          -2.0951  -26.0379  -45.7469 C.2       12 UNK         0.5000 
     73 O          -2.6579  -27.1286  -45.8340 O.2       12 UNK        -0.5000 
     74 N          -0.8451  -25.8117  -46.1778 N.am      13 UNK        -0.5000 
     75 CA          0.0014  -26.8054  -46.8464 C.3       13 UNK         0.1400 
     76 CB          1.4198  -26.2423  -47.0189 C.3       13 UNK        -0.1800 
     77 C          -0.5659  -27.2658  -48.2029 C.2       13 UNK         0.5000 
     78 O          -0.4690  -28.4479  -48.5335 O.2       13 UNK        -0.5000 
     79 N          -1.1836  -26.3344  -48.9420 N.am      14 UNK        -0.5000 
     80 CA         -1.9113  -26.5988  -50.1850 C.3       14 UNK         0.1400 
     81 CB         -2.0064  -25.2884  -50.9839 C.3       14 UNK        -0.1800 
     82 C          -3.3201  -27.1881  -49.9579 C.2       14 UNK         0.5000 
     83 O          -3.9914  -27.5302  -50.9344 O.2       14 UNK        -0.5000 
     84 N          -3.7715  -27.2371  -48.6940 N.am      15 UNK        -0.5000 
     85 CA         -5.0969  -27.6494  -48.2125 C.3       15 UNK         0.1400 
     86 CB         -5.2913  -29.1636  -48.4308 C.3       15 UNK        -0.1800 
     87 C          -6.2606  -26.8198  -48.8008 C.2       15 UNK         0.5000 
     88 O          -7.3997  -27.2888  -48.8128 O.2       15 UNK        -0.5000 
     89 N          -5.9399  -25.6240  -49.3213 N.am      16 UNK        -0.5000 
     90 CA         -6.7669  -24.7592  -50.1708 C.3       16 UNK         0.1400 
     91 CB         -7.8765  -24.0925  -49.3331 C.3       16 UNK        -0.1800 
     92 C          -7.3133  -25.4699  -51.4357 C.2       16 UNK         0.5000 
     93 O          -8.3610  -25.0747  -51.9513 O.2       16 UNK        -0.5000 
     94 N          -6.6138  -26.5182  -51.8957 N.am      17 UNK        -0.5000 
     95 CA         -7.0427  -27.4133  -52.9687 C.3       17 UNK         0.1400 
     96 CB         -7.3369  -28.8006  -52.3753 C.3       17 UNK        -0.1800 
     97 C          -5.9843  -27.5114  -54.0752 C.2       17 UNK         0.5000 
     98 O          -6.3392  -27.4570  -55.2534 O.2       17 UNK        -0.5000 
     99 N          -4.7049  -27.6358  -53.6921 N.am      18 UNK        -0.5000 
    100 CA        -3.5707  -27.6769  -54.6214 C.3       18 UNK         0.1400 
    101 CB        -2.3495  -28.2661  -53.8996 C.3       18 UNK        -0.1800 
    102 C         -3.2357  -26.2915  -55.2080 C.2       18 UNK         0.5000 
    103 O         -2.6360  -26.2094  -56.2805 O.2       18 UNK        -0.5000 
    104 N         -3.6412  -25.2360  -54.4974 N.am      19 UNK        -0.5000 
    105 CA        -3.5273  -23.8325  -54.8597 C.3       19 UNK         0.1400 
    106 CB        -2.0981  -23.3278  -54.5869 C.3       19 UNK        -0.1800 
    107 C         -4.5526  -23.0564  -54.0224 C.2       19 UNK         0.5000 
    108 O         -5.0244  -23.5716  -53.0042 O.2       19 UNK        -0.5000 
    109 N         -4.8610  -21.8302  -54.4577 N.am      20 UNK        -0.5000 
    110 CA        -5.6537  -20.8576  -53.7082 C.3       20 UNK         0.1400 
    111 CB        -6.4262  -19.9698  -54.7050 C.3       20 UNK        -0.1800 
    112 C         -4.7135  -20.0805  -52.7644 C.2       20 UNK         0.5000 
    113 O         -4.1349  -20.6851  -51.8613 O.2       20 UNK        -0.5000 
    114 N         -4.5328  -18.7749  -53.0045 N.am      21 UNK        -0.5000 
    115 CA        -3.5760  -17.9026  -52.3191 C.3       21 UNK         0.1400 
    116 CB        -3.9851  -16.4395  -52.5661 C.3       21 UNK        -0.1800 
    117 C         -2.1324  -18.1999  -52.7774 C.2       21 UNK         0.5000 
    118 O         -1.5580  -17.4210  -53.5390 O.2       21 UNK        -0.5000 
    119 N         -1.6283  -19.3710  -52.3686 N.am      22 UNK        -0.5000 
    120 CA        -0.3247  -20.0092  -52.6440 C.3       22 UNK         0.1400 
    121 C          0.1303  -20.1727  -54.1281 C.2       22 UNK         0.5000 
    122 N         -0.4893  -19.5232  -55.1020 N.am      22 UNK        -0.7600 
    123 O          1.0438  -20.9455  -54.4042 O.2       22 UNK        -0.5000 
    124 C124        0.8200  -19.5123  -51.7194 C.3       23 UNK        -0.0398 
    125 S125        1.3752  -17.7928  -51.9987 S.3       23 UNK        -0.2404 
    126 C126        1.3414  -17.0986  -50.3164 C.3       23 UNK        -0.0205 
    127 H127       -0.5526   -9.9316  -43.5301 H         1 UNK         0.0600 
    128 H128       -2.0219  -10.6174  -44.2401 H         1 UNK         0.0600 
    129 H129       -1.7655   -8.8721  -44.2572 H         1 UNK         0.0600 
    130 H130       -1.1624  -11.8634  -45.9453 H         1 UNK         0.3000 
    131 H131       -0.3265  -10.5602  -48.3177 H         1 UNK         0.0600 
    132 H132       -0.2667  -13.5428  -47.6403 H         1 UNK         0.0800 
    133 H133       -0.0727  -12.8571  -49.2362 H         1 UNK         0.0800 
    134 H134       -3.5701  -13.9482  -50.1791 H         1 UNK         0.0800 
    135 H135       -2.0402  -13.3829  -50.8006 H         1 UNK         0.0800 
    136 H136       -0.0987  -14.8248  -50.7400 H         1 UNK         0.1150 
    137 H137       -0.3420  -18.6413  -48.8129 H         1 UNK         0.1150 
    138 H138       -3.5943  -15.8868  -48.4889 H         1 UNK         0.1150 
    139 H139       -2.0650  -18.8904  -47.0695 H         1 UNK         0.0800 
    140 H140       -3.5111  -17.9021  -47.0717 H         1 UNK         0.0800 
    141 H141       -4.7631  -21.4311  -47.7281 H         1 UNK         0.0800 
    142 H142       -3.6782  -20.7013  -46.5751 H         1 UNK         0.0800 
    143 H143       -2.7383  -22.3303  -48.9973 H         1 UNK         0.0600 
    144 H144       -1.2185  -21.0059  -46.9079 H         1 UNK         0.3000 
    145 H145        1.7626  -22.8693  -47.4192 H         1 UNK         0.0600 
    146 H146        2.8110  -20.7209  -47.8677 H         1 UNK         0.0600 
    147 H147        1.8518  -21.1744  -49.2667 H         1 UNK         0.0600 
    148 H148        1.2588  -19.9492  -48.1475 H         1 UNK         0.0600 
    149 H149        0.9724  -20.5616  -45.8225 H         1 UNK         0.3000 
    150 H150        0.0346  -22.5144  -42.9803 H         1 UNK         0.0600 
    151 H151        2.5313  -22.6046  -42.8515 H         1 UNK         0.0600 
    152 H152        1.8825  -21.3171  -41.8489 H         1 UNK         0.0600 
    153 H153        2.6282  -20.9360  -43.4019 H         1 UNK         0.0600 
    154 H154        0.4512  -19.7369  -43.1954 H         1 UNK         0.3000 
    155 H155       -2.5070  -18.7403  -44.8140 H         1 UNK         0.0600 
    156 H156       -1.9298  -18.6460  -41.8118 H         1 UNK         0.0600 
    157 H157       -3.3810  -19.3168  -42.5471 H         1 UNK         0.0600 
    158 H158       -3.0416  -17.6008  -42.6971 H         1 UNK         0.0600 
    159 H159       -0.7868  -17.0872  -43.4649 H         1 UNK         0.3000 
    160 H160        2.0078  -16.8265  -44.7254 H         1 UNK         0.0600 
    161 H161        0.3659  -15.7375  -47.0598 H         1 UNK         0.0600 
    162 H162        1.8529  -16.6625  -47.1394 H         1 UNK         0.0600 
    163 H163        1.8815  -15.0202  -46.5136 H         1 UNK         0.0600 
    164 H164        1.1471  -15.3169  -43.3659 H         1 UNK         0.3000 
    165 H165       -1.1613  -12.7709  -43.5497 H         1 UNK         0.0600 
    166 H166       -2.8341  -14.4997  -42.8822 H         1 UNK         0.0600 
    167 H167       -1.6553  -15.2486  -41.8125 H         1 UNK         0.0600 
    168 H168       -2.2401  -13.6175  -41.4859 H         1 UNK         0.0600 
    169 H169        0.3618  -13.9376  -41.3836 H         1 UNK         0.3000 
    170 H170        2.0651  -12.7458  -40.5655 H         1 UNK         0.0600 
    171 H171        3.2215  -14.5013  -41.9757 H         1 UNK         0.0600 
    172 H172        4.1240  -13.2206  -42.7814 H         1 UNK         0.0600 
    173 H173        4.3347  -13.4985  -41.0600 H         1 UNK         0.0600 
    174 H174        3.5607  -10.8836  -42.3618 H         1 UNK         0.3000 
    175 H175        2.6491   -8.0720  -40.4716 H         1 UNK         0.0600 
    176 H176        5.4069   -9.4032  -40.2995 H         1 UNK         0.0600 
    177 H177        5.0693   -7.6883  -40.0586 H         1 UNK         0.0600 
    178 H178        4.4383   -8.8755  -38.9284 H         1 UNK         0.0600 
    179 H179        4.6542   -8.6158  -42.4957 H         1 UNK         0.3000 
    180 H180        2.6386   -7.3366  -45.0778 H         1 UNK         0.0600 
    181 H181        5.0055   -7.1890  -45.6795 H         1 UNK         0.0600 
    182 H182        5.4953   -8.1305  -44.2787 H         1 UNK         0.0600 
    183 H183        4.7921   -6.5305  -44.0674 H         1 UNK         0.0600 
    184 H184        2.5921   -9.2369  -46.1725 H         1 UNK         0.3000 
    185 H185        4.0960  -11.2762  -47.1000 H         1 UNK         0.0600 
    186 H186        3.9615  -13.6588  -46.6048 H         1 UNK         0.0600 
    187 H187        5.0810  -12.9398  -45.4617 H         1 UNK         0.0600 
    188 H188        3.4437  -13.3558  -44.9532 H         1 UNK         0.0600 
    189 H189        1.5412  -11.7406  -45.6221 H         1 UNK         0.3000 
    190 H190       -2.2402  -22.8360  -45.4882 H         1 UNK         0.3000 
    191 H191       -3.9331  -25.0866  -45.1984 H         1 UNK         0.0600 
    192 H192       -2.6826  -25.4517  -43.0925 H         1 UNK         0.0600 
    193 H193       -3.0448  -23.7433  -43.2934 H         1 UNK         0.0600 
    194 H194       -1.4196  -24.3458  -43.6114 H         1 UNK         0.0600 
    195 H195       -0.4223  -24.9053  -45.9998 H         1 UNK         0.3000 
    196 H196        0.0602  -27.6819  -46.1980 H         1 UNK         0.0600 
    197 H197        1.4225  -25.3418  -47.6334 H         1 UNK         0.0600 
    198 H198        1.8651  -25.9930  -46.0557 H         1 UNK         0.0600 
    199 H199        2.0740  -26.9705  -47.4999 H         1 UNK         0.0600 
    200 H200       -1.1701  -25.3724  -48.6237 H         1 UNK         0.3000 
    201 H201       -1.3460  -27.3217  -50.7757 H         1 UNK         0.0600 
    202 H202       -1.0169  -24.8868  -51.2029 H         1 UNK         0.0600 
    203 H203       -2.5633  -24.5241  -50.4409 H         1 UNK         0.0600 
    204 H204       -2.5107  -25.4423  -51.9372 H         1 UNK         0.0600 
    205 H205       -3.1487  -26.9066  -47.9680 H         1 UNK         0.3000 
    206 H206       -5.1046  -27.4617  -47.1383 H         1 UNK         0.0600 
    207 H207       -4.4642  -29.7313  -48.0043 H         1 UNK         0.0600 
    208 H208       -6.2053  -29.5164  -47.9520 H         1 UNK         0.0600 
    209 H209       -5.3592  -29.4137  -49.4900 H         1 UNK         0.0600 
    210 H210       -4.9921  -25.2990  -49.1611 H         1 UNK         0.3000 
    211 H211       -6.1059  -23.9693  -50.5296 H         1 UNK         0.0600 
    212 H212       -8.4100  -23.3405  -49.9154 H         1 UNK         0.0600 
    213 H213       -7.4611  -23.5893  -48.4600 H         1 UNK         0.0600 
    214 H214       -8.6104  -24.8197  -48.9846 H         1 UNK         0.0600 
    215 H215       -5.7531  -26.7682  -51.4204 H         1 UNK         0.3000 
    216 H216       -7.9592  -27.0434  -53.4326 H         1 UNK         0.0600 
    217 H217       -6.4576  -29.2269  -51.8907 H         1 UNK         0.0600 
    218 H218       -7.6590  -29.4982  -53.1494 H         1 UNK         0.0600 
    219 H219       -8.1324  -28.7475  -51.6317 H         1 UNK         0.0600 
    220 H220       -4.4790  -27.6839  -52.7013 H         1 UNK         0.3000 
    221 H221       -3.8250  -28.3378  -55.4527 H         1 UNK         0.0600 
    222 H222       -2.5699  -29.2512  -53.4881 H         1 UNK         0.0600 
    223 H223       -2.0196  -27.6265  -53.0819 H         1 UNK         0.0600 
    224 H224       -1.5090  -28.3795  -54.5853 H         1 UNK         0.0600 
    225 H225       -4.1747  -25.3886  -53.6502 H         1 UNK         0.3000 
    226 H226       -3.7718  -23.7129  -55.9171 H         1 UNK         0.0600 
    227 H227       -1.8356  -23.4156  -53.5319 H         1 UNK         0.0600 
    228 H228       -1.3603  -23.8860  -55.1629 H         1 UNK         0.0600 
    229 H229       -1.9953  -22.2783  -54.8638 H         1 UNK         0.0600 
    230 H230       -4.4117  -21.4858  -55.2938 H         1 UNK         0.3000 
    231 H231       -6.3852  -21.3746  -53.0833 H         1 UNK         0.0600 
    232 H232       -5.7613  -19.4432  -55.3907 H         1 UNK         0.0600 
    233 H233       -7.0337  -19.2278  -54.1850 H         1 UNK         0.0600 
    234 H234       -7.1076  -20.5705  -55.3079 H         1 UNK         0.0600 
    235 H235       -5.0262  -18.3623  -53.7825 H         1 UNK         0.3000 
    236 H236       -3.6278  -18.0841  -51.2447 H         1 UNK         0.0600 
    237 H237       -4.9607  -16.2247  -52.1300 H         1 UNK         0.0600 
    238 H238       -3.2694  -15.7529  -52.1145 H         1 UNK         0.0600 
    239 H239       -4.0327  -16.2060  -53.6304 H         1 UNK         0.0600 
    240 H240       -2.2725  -19.9513  -51.8400 H         1 UNK         0.3000 
    241 H241       -0.5090  -21.0404  -52.3389 H         1 UNK         0.0600 
    242 H242       -0.1930  -19.6424  -56.0573 H         1 UNK         0.3800 
    243 H243       -1.1271  -18.7765  -54.8494 H         1 UNK         0.3800 
    244 H244        1.6914  -20.1607  -51.8230 H         1 UNK         0.0800 
    245 H245        0.5060  -19.6283  -50.6842 H         1 UNK         0.0800 
    246 H246        1.8288  -17.7871  -49.6243 H         1 UNK         0.0800 
    247 H247        1.9428  -16.1885  -50.3042 H         1 UNK         0.0800 
@<TRIPOS>BOND
     1    1    2 1    
     2    1  127 1    
     3    1  128 1    
     4    1  129 1    
     5    2    3 2    
     6    2    4 am   BACKBONE|DICT|INTERRES
     7    4    5 1    
     8    4  130 1    
     9    5    6 1    
    10    5   65 1    
    11    5  131 1    
    12    6    7 1    
    13    6  132 1    
    14    6  133 1    
    15    7    8 1    
    16    8    9 1    
    17    8  134 1    
    18    8  135 1    
    19    9   10 ar   
    20    9   14 ar   
    21   10   11 ar   
    22   10  136 1    
    23   11   12 ar   
    24   11  126 1    
    25   12   13 ar   
    26   12  137 1    
    27   13   14 ar   
    28   13   15 1    
    29   14  138 1    
    30   15   16 1    
    31   15  139 1    
    32   15  140 1    
    33   16   17 1    
    34   17   18 1    
    35   17  141 1    
    36   17  142 1    
    37   18   19 1    
    38   18   67 1    
    39   18  143 1    
    40   19   20 am   BACKBONE|DICT|INTERRES
    41   19  144 1    
    42   20   21 2    
    43   20   22 1    
    44   22   23 1    
    45   22   24 1    
    46   22  145 1    
    47   23  146 1    
    48   23  147 1    
    49   23  148 1    
    50   24   25 am   BACKBONE|DICT|INTERRES
    51   24  149 1    
    52   25   26 2    
    53   25   27 1    
    54   27   28 1    
    55   27   29 1    
    56   27  150 1    
    57   28  151 1    
    58   28  152 1    
    59   28  153 1    
    60   29   30 am   BACKBONE|DICT|INTERRES
    61   29  154 1    
    62   30   31 2    
    63   30   32 1    
    64   32   33 1    
    65   32   34 1    
    66   32  155 1    
    67   33  156 1    
    68   33  157 1    
    69   33  158 1    
    70   34   35 am   BACKBONE|DICT|INTERRES
    71   34  159 1    
    72   35   36 2    
    73   35   37 1    
    74   37   38 1    
    75   37   39 1    
    76   37  160 1    
    77   38  161 1    
    78   38  162 1    
    79   38  163 1    
    80   39   40 am   BACKBONE|DICT|INTERRES
    81   39  164 1    
    82   40   41 2    
    83   40   42 1    
    84   42   43 1    
    85   42   44 1    
    86   42  165 1    
    87   43  166 1    
    88   43  167 1    
    89   43  168 1    
    90   44   45 am   BACKBONE|DICT|INTERRES
    91   44  169 1    
    92   45   46 2    
    93   45   47 1    
    94   47   48 1    
    95   47   49 1    
    96   47  170 1    
    97   48  171 1    
    98   48  172 1    
    99   48  173 1    
   100   49   50 am   BACKBONE|DICT|INTERRES
   101   49  174 1    
   102   50   51 2    
   103   50   52 1    
   104   52   53 1    
   105   52   54 1    
   106   52  175 1    
   107   53  176 1    
   108   53  177 1    
   109   53  178 1    
   110   54   55 am   BACKBONE|DICT|INTERRES
   111   54  179 1    
   112   55   56 2    
   113   55   57 1    
   114   57   58 1    
   115   57   59 1    
   116   57  180 1    
   117   58  181 1    
   118   58  182 1    
   119   58  183 1    
   120   59   60 am   BACKBONE|DICT|INTERRES
   121   59  184 1    
   122   60   61 2    
   123   60   62 1    
   124   62   63 1    
   125   62   64 1    
   126   62  185 1    
   127   63  186 1    
   128   63  187 1    
   129   63  188 1    
   130   64   65 am   BACKBONE|DICT|INTERRES
   131   64  189 1    
   132   65   66 2    
   133   67   68 2    
   134   67   69 am   BACKBONE|DICT|INTERRES
   135   69   70 1    
   136   69  190 1    
   137   70   71 1    
   138   70   72 1    
   139   70  191 1    
   140   71  192 1    
   141   71  193 1    
   142   71  194 1    
   143   72   73 2    
   144   72   74 am   BACKBONE|DICT|INTERRES
   145   74   75 1    
   146   74  195 1    
   147   75   76 1    
   148   75   77 1    
   149   75  196 1    
   150   76  197 1    
   151   76  198 1    
   152   76  199 1    
   153   77   78 2    
   154   77   79 am   BACKBONE|DICT|INTERRES
   155   79   80 1    
   156   79  200 1    
   157   80   81 1    
   158   80   82 1    
   159   80  201 1    
   160   81  202 1    
   161   81  203 1    
   162   81  204 1    
   163   82   83 2    
   164   82   84 am   BACKBONE|DICT|INTERRES
   165   84   85 1    
   166   84  205 1    
   167   85   86 1    
   168   85   87 1    
   169   85  206 1    
   170   86  207 1    
   171   86  208 1    
   172   86  209 1    
   173   87   88 2    
   174   87   89 am   BACKBONE|DICT|INTERRES
   175   89   90 1    
   176   89  210 1    
   177   90   91 1    
   178   90   92 1    
   179   90  211 1    
   180   91  212 1    
   181   91  213 1    
   182   91  214 1    
   183   92   93 2    
   184   92   94 am   BACKBONE|DICT|INTERRES
   185   94   95 1    
   186   94  215 1    
   187   95   96 1    
   188   95   97 1    
   189   95  216 1    
   190   96  217 1    
   191   96  218 1    
   192   96  219 1    
   193   97   98 2    
   194   97   99 am   BACKBONE|DICT|INTERRES
   195   99  100 1    
   196   99  220 1    
   197  100  101 1    
   198  100  102 1    
   199  100  221 1    
   200  101  222 1    
   201  101  223 1    
   202  101  224 1    
   203  102  103 2    
   204  102  104 am   BACKBONE|DICT|INTERRES
   205  104  105 1    
   206  104  225 1    
   207  105  106 1    
   208  105  107 1    
   209  105  226 1    
   210  106  227 1    
   211  106  228 1    
   212  106  229 1    
   213  107  108 2    
   214  107  109 am   BACKBONE|DICT|INTERRES
   215  109  110 1    
   216  109  230 1    
   217  110  111 1    
   218  110  112 1    
   219  110  231 1    
   220  111  232 1    
   221  111  233 1    
   222  111  234 1    
   223  112  113 2    
   224  112  114 am   BACKBONE|DICT|INTERRES
   225  114  115 1    
   226  114  235 1    
   227  115  116 1    
   228  115  117 1    
   229  115  236 1    
   230  116  237 1    
   231  116  238 1    
   232  116  239 1    
   233  117  118 2    
   234  117  119 am   BACKBONE|DICT|INTERRES
   235  119  120 1    
   236  119  240 1    
   237  120  121 1    
   238  120  124 1    
   239  120  241 1    
   240  121  122 am   BACKBONE|DICT|INTERRES
   241  121  123 2    
   242  122  242 1    
   243  122  243 1    
   244  124  125 1    
   245  124  244 1    
   246  124  245 1    
   247  125  126 1    
   248  126  246 1    
   249  126  247 1    
@<TRIPOS>SUBSTRUCTURE
     1 UNK         1 GROUP             0       ****    0 ROOT    
