@<TRIPOS>MOLECULE
3R540
247   249    1
SMALL
USER_CHARGES


@<TRIPOS>ATOM
      1 CA          3.4870  -11.5872  -45.3600 C.3       0 UNK        -0.1800 
      2 C           2.4301  -12.2770  -46.2084 C.2       0 UNK         0.5000 
      3 O           1.2357  -12.0893  -45.9767 O.2       0 UNK        -0.5000 
      4 N           2.8520  -13.0689  -47.2018 N.am      1 UNK        -0.5000 
      5 CA          1.9663  -13.8345  -48.0905 C.3       1 UNK         0.1400 
      6 C6          2.7423  -14.8077  -49.0065 C.3       23 UNK        -0.0398 
      7 S7          3.7897  -15.9712  -48.0689 S.3       23 UNK        -0.2404 
      8 C8          4.6494  -16.8328  -49.4220 C.3       23 UNK        -0.0205 
      9 C9          3.7510  -17.8598  -50.0933 C.ar      23 UNK        -0.0193 
     10 C10         2.9611  -17.5019  -51.1907 C.ar      23 UNK        -0.1150 
     11 C11         2.1070  -18.4362  -51.7833 C.ar      23 UNK        -0.0193 
     12 C12         2.0786  -19.7455  -51.2993 C.ar      23 UNK        -0.1150 
     13 C13         2.8743  -20.1186  -50.2140 C.ar      23 UNK        -0.0193 
     14 C14         3.7038  -19.1705  -49.6092 C.ar      23 UNK        -0.1150 
     15 C15         2.8137  -21.5401  -49.6855 C.3       23 UNK        -0.0205 
     16 S16         1.4526  -21.7101  -48.5007 S.3       23 UNK        -0.2404 
     17 C17         1.4870  -23.4993  -48.1917 C.3       23 UNK        -0.0398 
     18 CA          0.3729  -23.9905  -47.2388 C.3       11 UNK         0.1400 
     19 N           0.3630  -23.2761  -45.9589 N.am      11 UNK        -0.5000 
     20 C          -0.0993  -23.7989  -44.8163 C.2       10 UNK         0.5000 
     21 O          -0.5563  -24.9388  -44.7279 O.2       10 UNK        -0.5000 
     22 CA         -0.0818  -22.8833  -43.5784 C.3       10 UNK         0.1400 
     23 CB          1.3457  -22.7341  -43.0309 C.3       10 UNK        -0.1800 
     24 N          -0.6436  -21.5569  -43.8387 N.am      10 UNK        -0.5000 
     25 C          -1.9086  -21.3255  -44.2171 C.2       9 UNK         0.5000 
     26 O          -2.7447  -22.2148  -44.3730 O.2       9 UNK        -0.5000 
     27 CA         -2.3013  -19.8633  -44.5053 C.3       9 UNK         0.1400 
     28 CB         -2.7836  -19.1686  -43.2259 C.3       9 UNK        -0.1800 
     29 N          -1.2220  -19.0871  -45.1202 N.am      9 UNK        -0.5000 
     30 C          -0.7167  -19.3463  -46.3351 C.2       8 UNK         0.5000 
     31 O          -1.1249  -20.2601  -47.0490 O.2       8 UNK        -0.5000 
     32 CA          0.4353  -18.4558  -46.8274 C.3       8 UNK         0.1400 
     33 CB         -0.1107  -17.2284  -47.5651 C.3       8 UNK        -0.1800 
     34 N           1.2896  -18.0265  -45.7223 N.am      8 UNK        -0.5000 
     35 C           2.3420  -18.7252  -45.2742 C.2       7 UNK         0.5000 
     36 O           2.7371  -19.7761  -45.7782 O.2       7 UNK        -0.5000 
     37 CA          3.0633  -18.1758  -44.0276 C.3       7 UNK         0.1400 
     38 CB          4.1278  -17.1446  -44.4335 C.3       7 UNK        -0.1800 
     39 N           2.1609  -17.5694  -43.0477 N.am      7 UNK        -0.5000 
     40 C           1.1672  -18.2072  -42.4132 C.2       6 UNK         0.5000 
     41 O           0.9176  -19.4040  -42.5563 O.2       6 UNK        -0.5000 
     42 CA          0.2676  -17.3517  -41.4991 C.3       6 UNK         0.1400 
     43 CB          0.8237  -17.3419  -40.0675 C.3       6 UNK        -0.1800 
     44 N           0.0620  -15.9677  -41.9424 N.am      6 UNK        -0.5000 
     45 C          -0.3343  -15.5626  -43.1584 C.2       5 UNK         0.5000 
     46 O          -0.5107  -16.3287  -44.1107 O.2       5 UNK        -0.5000 
     47 CA         -0.5138  -14.0382  -43.3226 C.3       5 UNK         0.1400 
     48 CB          0.8073  -13.3005  -43.0444 C.3       5 UNK        -0.1800 
     49 N          -0.9936  -13.6541  -44.6511 N.am      5 UNK        -0.5000 
     50 C          -2.2295  -13.8833  -45.1193 C.2       4 UNK         0.5000 
     51 O          -3.1242  -14.4074  -44.4523 O.2       4 UNK        -0.5000 
     52 CA         -2.5049  -13.4335  -46.5706 C.3       4 UNK         0.1400 
     53 CB         -4.0046  -13.4170  -46.9367 C.3       4 UNK        -0.1800 
     54 N          -1.8747  -12.1520  -46.9008 N.am      4 UNK        -0.5000 
     55 C          -2.1002  -10.9566  -46.3306 C.2       3 UNK         0.5000 
     56 O          -2.9412  -10.7667  -45.4509 O.2       3 UNK        -0.5000 
     57 CA         -1.2386   -9.7684  -46.8082 C.3       3 UNK         0.1400 
     58 CB         -0.5173   -9.1008  -45.6243 C.3       3 UNK        -0.1800 
     59 N          -0.2349  -10.1778  -47.7912 N.am      3 UNK        -0.5000 
     60 C          -0.3646  -10.0805  -49.1212 C.2       2 UNK         0.5000 
     61 O          -1.3301   -9.5567  -49.6772 O.2       2 UNK        -0.5000 
     62 CA          0.7651  -10.6873  -49.9807 C.3       2 UNK         0.1400 
     63 CB          1.7343   -9.5897  -50.4454 C.3       2 UNK        -0.1800 
     64 N           1.5283  -11.7329  -49.2928 N.am      2 UNK        -0.5000 
     65 C           1.0396  -12.9279  -48.9288 C.2       1 UNK         0.5000 
     66 O          -0.1096  -13.2921  -49.1715 O.2       1 UNK        -0.5000 
     67 C          -1.0221  -24.0320  -47.9024 C.2       11 UNK         0.5000 
     68 O          -1.2803  -24.9326  -48.7035 O.2       11 UNK        -0.5000 
     69 N          -1.9196  -23.1029  -47.5429 N.am      12 UNK        -0.5000 
     70 CA         -3.3357  -23.1493  -47.9075 C.3       12 UNK         0.1400 
     71 CB         -4.0053  -21.8047  -47.6117 C.3       12 UNK        -0.1800 
     72 C          -4.0688  -24.2911  -47.1881 C.2       12 UNK         0.5000 
     73 O          -4.8020  -25.0359  -47.8361 O.2       12 UNK        -0.5000 
     74 N          -3.8102  -24.4498  -45.8816 N.am      13 UNK        -0.5000 
     75 CA         -4.3200  -25.5470  -45.0534 C.3       13 UNK         0.1400 
     76 CB         -3.9762  -25.2787  -43.5808 C.3       13 UNK        -0.1800 
     77 C          -3.7989  -26.9290  -45.4960 C.2       13 UNK         0.5000 
     78 O          -4.5237  -27.9176  -45.3820 O.2       13 UNK        -0.5000 
     79 N          -2.5748  -26.9630  -46.0411 N.am      14 UNK        -0.5000 
     80 CA         -1.9690  -28.1326  -46.6836 C.3       14 UNK         0.1400 
     81 CB         -0.4466  -27.9308  -46.7444 C.3       14 UNK        -0.1800 
     82 C          -2.5276  -28.4214  -48.0958 C.2       14 UNK         0.5000 
     83 O          -2.1622  -29.4407  -48.6822 O.2       14 UNK        -0.5000 
     84 N          -3.3767  -27.5242  -48.6223 N.am      15 UNK        -0.5000 
     85 CA         -4.0159  -27.5477  -49.9426 C.3       15 UNK         0.1400 
     86 CB         -4.9212  -28.7864  -50.1053 C.3       15 UNK        -0.1800 
     87 C          -3.0333  -27.3611  -51.1179 C.2       15 UNK         0.5000 
     88 O          -3.3657  -27.7165  -52.2496 O.2       15 UNK        -0.5000 
     89 N          -1.8564  -26.7813  -50.8461 N.am      16 UNK        -0.5000 
     90 CA         -0.8438  -26.4584  -51.8493 C.3       16 UNK         0.1400 
     91 CB          0.5516  -26.5158  -51.2092 C.3       16 UNK        -0.1800 
     92 C          -1.1157  -25.0818  -52.4772 C.2       16 UNK         0.5000 
     93 O          -1.0832  -24.9570  -53.7016 O.2       16 UNK        -0.5000 
     94 N          -1.4112  -24.0831  -51.6316 N.am      17 UNK        -0.5000 
     95 CA         -1.7805  -22.7284  -52.0623 C.3       17 UNK         0.1400 
     96 CB         -1.3054  -21.7124  -51.0145 C.3       17 UNK        -0.1800 
     97 C          -3.2934  -22.5745  -52.3031 C.2       17 UNK         0.5000 
     98 O          -3.7080  -21.5819  -52.9039 O.2       17 UNK        -0.5000 
     99 N          -4.0859  -23.5378  -51.8064 N.am      18 UNK        -0.5000 
    100 CA        -5.5517  -23.6627  -51.8458 C.3       18 UNK         0.1400 
    101 CB        -6.0708  -23.7039  -53.2951 C.3       18 UNK        -0.1800 
    102 C         -6.3191  -22.6156  -51.0110 C.2       18 UNK         0.5000 
    103 O         -7.3227  -22.9606  -50.3870 O.2       18 UNK        -0.5000 
    104 N         -5.8324  -21.3742  -50.9914 N.am      19 UNK        -0.5000 
    105 CA        -6.3231  -20.2553  -50.2004 C.3       19 UNK         0.1400 
    106 CB        -7.3312  -19.4424  -51.0288 C.3       19 UNK        -0.1800 
    107 C         -5.1146  -19.3949  -49.8162 C.2       19 UNK         0.5000 
    108 O         -4.1221  -19.3799  -50.5470 O.2       19 UNK        -0.5000 
    109 N         -5.2152  -18.6671  -48.6962 N.am      20 UNK        -0.5000 
    110 CA        -4.1503  -17.7899  -48.1892 C.3       20 UNK         0.1400 
    111 CB        -4.4953  -17.3477  -46.7593 C.3       20 UNK        -0.1800 
    112 C         -3.8708  -16.5713  -49.0957 C.2       20 UNK         0.5000 
    113 O         -2.8068  -15.9670  -48.9907 O.2       20 UNK        -0.5000 
    114 N         -4.8164  -16.2540  -49.9900 N.am      21 UNK        -0.5000 
    115 CA        -4.6655  -15.2795  -51.0702 C.3       21 UNK         0.1400 
    116 CB        -6.0681  -14.8335  -51.5154 C.3       21 UNK        -0.1800 
    117 C         -3.8536  -15.8135  -52.2741 C.2       21 UNK         0.5000 
    118 O         -3.5766  -15.0326  -53.1849 O.2       21 UNK        -0.5000 
    119 N         -3.4992  -17.1086  -52.2608 N.am      22 UNK        -0.5000 
    120 CA        -2.7839  -17.8705  -53.2967 C.3       22 UNK         0.1400 
    121 C         -3.6925  -18.1566  -54.5215 C.2       22 UNK         0.5000 
    122 N         -4.2205  -19.3675  -54.6410 N.am      22 UNK        -0.7600 
    123 O         -3.9037  -17.3043  -55.3806 O.2       22 UNK        -0.5000 
    124 C124       -1.4148  -17.2585  -53.7068 C.3       23 UNK        -0.0398 
    125 S125       -0.2669  -17.1484  -52.2911 S.3       23 UNK        -0.2404 
    126 C126        1.1917  -18.0312  -52.9257 C.3       23 UNK        -0.0205 
    127 H127        3.3650  -10.5058  -45.4186 H         1 UNK         0.0600 
    128 H128        3.3841  -11.8864  -44.3172 H         1 UNK         0.0600 
    129 H129        4.4961  -11.8362  -45.6888 H         1 UNK         0.0600 
    130 H130        3.8425  -13.2099  -47.3426 H         1 UNK         0.3000 
    131 H131        1.3171  -14.4292  -47.4445 H         1 UNK         0.0600 
    132 H132        3.3722  -14.2566  -49.7071 H         1 UNK         0.0800 
    133 H133        2.0408  -15.3884  -49.6076 H         1 UNK         0.0800 
    134 H134        5.5325  -17.3278  -49.0153 H         1 UNK         0.0800 
    135 H135        5.0171  -16.1097  -50.1516 H         1 UNK         0.0800 
    136 H136        2.9866  -16.4890  -51.5668 H         1 UNK         0.1150 
    137 H137        1.4221  -20.4715  -51.7562 H         1 UNK         0.1150 
    138 H138        4.3030  -19.4500  -48.7538 H         1 UNK         0.1150 
    139 H139        2.6727  -22.2383  -50.5120 H         1 UNK         0.0800 
    140 H140        3.7543  -21.8092  -49.2026 H         1 UNK         0.0800 
    141 H141        1.4423  -24.0247  -49.1460 H         1 UNK         0.0800 
    142 H142        2.4597  -23.7439  -47.7626 H         1 UNK         0.0800 
    143 H143        0.6186  -25.0308  -47.0202 H         1 UNK         0.0600 
    144 H144        0.6974  -22.3222  -45.9749 H         1 UNK         0.3000 
    145 H145       -0.6937  -23.3584  -42.8088 H         1 UNK         0.0600 
    146 H146        1.3490  -22.1864  -42.0883 H         1 UNK         0.0600 
    147 H147        1.7978  -23.7085  -42.8418 H         1 UNK         0.0600 
    148 H148        1.9916  -22.1989  -43.7286 H         1 UNK         0.0600 
    149 H149       -0.0339  -20.7627  -43.6688 H         1 UNK         0.3000 
    150 H150       -3.1325  -19.8739  -45.2115 H         1 UNK         0.0600 
    151 H151       -3.7233  -19.6041  -42.8844 H         1 UNK         0.0600 
    152 H152       -2.9552  -18.1035  -43.3856 H         1 UNK         0.0600 
    153 H153       -2.0649  -19.2842  -42.4166 H         1 UNK         0.0600 
    154 H154       -0.8733  -18.2845  -44.6082 H         1 UNK         0.3000 
    155 H155        1.0274  -19.0270  -47.5439 H         1 UNK         0.0600 
    156 H156        0.7001  -16.6297  -47.9734 H         1 UNK         0.0600 
    157 H157       -0.7146  -16.5921  -46.9169 H         1 UNK         0.0600 
    158 H158       -0.7325  -17.5343  -48.4070 H         1 UNK         0.0600 
    159 H159        0.9798  -17.2131  -45.2031 H         1 UNK         0.3000 
    160 H160        3.5655  -19.0148  -43.5414 H         1 UNK         0.0600 
    161 H161        3.6779  -16.2569  -44.8802 H         1 UNK         0.0600 
    162 H162        4.8190  -17.5640  -45.1659 H         1 UNK         0.0600 
    163 H163        4.7185  -16.8266  -43.5743 H         1 UNK         0.0600 
    164 H164        2.2814  -16.5836  -42.8702 H         1 UNK         0.3000 
    165 H165       -0.7141  -17.8214  -41.4689 H         1 UNK         0.0600 
    166 H166        1.7882  -16.8352  -40.0140 H         1 UNK         0.0600 
    167 H167        0.1414  -16.8401  -39.3812 H         1 UNK         0.0600 
    168 H168        0.9654  -18.3577  -39.6957 H         1 UNK         0.0600 
    169 H169        0.1956  -15.2638  -41.2311 H         1 UNK         0.3000 
    170 H170       -1.2544  -13.7092  -42.5910 H         1 UNK         0.0600 
    171 H171        1.1214  -13.4173  -42.0069 H         1 UNK         0.0600 
    172 H172        1.6139  -13.6769  -43.6740 H         1 UNK         0.0600 
    173 H173        0.7092  -12.2300  -43.2267 H         1 UNK         0.0600 
    174 H174       -0.3203  -13.1885  -45.2504 H         1 UNK         0.3000 
    175 H175       -2.0202  -14.1764  -47.2045 H         1 UNK         0.0600 
    176 H176       -4.1495  -13.1479  -47.9830 H         1 UNK         0.0600 
    177 H177       -4.4536  -14.3991  -46.7936 H         1 UNK         0.0600 
    178 H178       -4.5668  -12.7116  -46.3249 H         1 UNK         0.0600 
    179 H179       -1.1675  -12.2035  -47.6233 H         1 UNK         0.3000 
    180 H180       -1.9157   -9.0337  -47.2483 H         1 UNK         0.0600 
    181 H181        0.0923   -8.2606  -45.9571 H         1 UNK         0.0600 
    182 H182       -1.2320   -8.7130  -44.8974 H         1 UNK         0.0600 
    183 H183        0.1340   -9.8010  -45.1004 H         1 UNK         0.0600 
    184 H184        0.5667  -10.6665  -47.4111 H         1 UNK         0.3000 
    185 H185        0.3018  -11.1325  -50.8637 H         1 UNK         0.0600 
    186 H186        2.4942   -9.9915  -51.1158 H         1 UNK         0.0600 
    187 H187        1.2053   -8.8057  -50.9891 H         1 UNK         0.0600 
    188 H188        2.2427   -9.1189  -49.6030 H         1 UNK         0.0600 
    189 H189        2.4769  -11.5039  -49.0333 H         1 UNK         0.3000 
    190 H190       -1.6195  -22.3252  -46.9662 H         1 UNK         0.3000 
    191 H191       -3.4069  -23.3294  -48.9814 H         1 UNK         0.0600 
    192 H192       -5.0348  -21.8029  -47.9687 H         1 UNK         0.0600 
    193 H193       -3.4759  -20.9918  -48.1062 H         1 UNK         0.0600 
    194 H194       -4.0352  -21.5861  -46.5464 H         1 UNK         0.0600 
    195 H195       -3.2366  -23.7562  -45.4081 H         1 UNK         0.3000 
    196 H196       -5.4073  -25.5594  -45.1519 H         1 UNK         0.0600 
    197 H197       -4.3693  -26.0668  -42.9374 H         1 UNK         0.0600 
    198 H198       -4.4069  -24.3364  -43.2416 H         1 UNK         0.0600 
    199 H199       -2.8991  -25.2295  -43.4202 H         1 UNK         0.0600 
    200 H200       -2.0229  -26.1150  -46.0246 H         1 UNK         0.3000 
    201 H201       -2.1718  -29.0086  -46.0642 H         1 UNK         0.0600 
    202 H202       -0.0393  -27.6583  -45.7704 H         1 UNK         0.0600 
    203 H203       -0.1745  -27.1531  -47.4569 H         1 UNK         0.0600 
    204 H204        0.0538  -28.8468  -47.0609 H         1 UNK         0.0600 
    205 H205       -3.6196  -26.7180  -48.0586 H         1 UNK         0.3000 
    206 H206       -4.6668  -26.6734  -49.9694 H         1 UNK         0.0600 
    207 H207       -5.6037  -28.8889  -49.2615 H         1 UNK         0.0600 
    208 H208       -5.5315  -28.7095  -51.0058 H         1 UNK         0.0600 
    209 H209       -4.3421  -29.7067  -50.1836 H         1 UNK         0.0600 
    210 H210       -1.6766  -26.4578  -49.9010 H         1 UNK         0.3000 
    211 H211       -0.8713  -27.2037  -52.6474 H         1 UNK         0.0600 
    212 H212        0.6459  -25.8209  -50.3766 H         1 UNK         0.0600 
    213 H213        1.3259  -26.2670  -51.9359 H         1 UNK         0.0600 
    214 H214        0.7676  -27.5156  -50.8322 H         1 UNK         0.0600 
    215 H215       -1.3947  -24.2692  -50.6350 H         1 UNK         0.3000 
    216 H216       -1.2755  -22.4944  -53.0018 H         1 UNK         0.0600 
    217 H217       -1.4803  -20.6893  -51.3505 H         1 UNK         0.0600 
    218 H218       -0.2378  -21.8158  -50.8341 H         1 UNK         0.0600 
    219 H219       -1.8198  -21.8300  -50.0621 H         1 UNK         0.0600 
    220 H220       -3.6126  -24.2926  -51.3340 H         1 UNK         0.3000 
    221 H221       -5.7711  -24.6324  -51.3958 H         1 UNK         0.0600 
    222 H222       -5.9182  -22.7557  -53.8111 H         1 UNK         0.0600 
    223 H223       -5.5718  -24.4839  -53.8702 H         1 UNK         0.0600 
    224 H224       -7.1403  -23.9163  -53.3180 H         1 UNK         0.0600 
    225 H225       -4.9890  -21.1774  -51.5258 H         1 UNK         0.3000 
    226 H226       -6.8008  -20.6215  -49.2894 H         1 UNK         0.0600 
    227 H227       -7.7177  -18.5964  -50.4593 H         1 UNK         0.0600 
    228 H228       -6.8770  -19.0486  -51.9395 H         1 UNK         0.0600 
    229 H229       -8.1849  -20.0545  -51.3200 H         1 UNK         0.0600 
    230 H230       -6.0611  -18.7141  -48.1460 H         1 UNK         0.3000 
    231 H231       -3.2290  -18.3752  -48.1465 H         1 UNK         0.0600 
    232 H232       -3.6826  -16.7626  -46.3257 H         1 UNK         0.0600 
    233 H233       -4.6562  -18.2058  -46.1074 H         1 UNK         0.0600 
    234 H234       -5.3963  -16.7340  -46.7340 H         1 UNK         0.0600 
    235 H235       -5.6666  -16.7967  -49.9915 H         1 UNK         0.3000 
    236 H236       -4.1362  -14.4063  -50.6824 H         1 UNK         0.0600 
    237 H237       -6.6445  -15.6662  -51.9207 H         1 UNK         0.0600 
    238 H238       -6.6296  -14.4079  -50.6835 H         1 UNK         0.0600 
    239 H239       -6.0091  -14.0677  -52.2898 H         1 UNK         0.0600 
    240 H240       -3.7836  -17.6760  -51.4700 H         1 UNK         0.3000 
    241 H241       -2.5656  -18.8344  -52.8336 H         1 UNK         0.0600 
    242 H242       -4.8045  -19.5699  -55.4363 H         1 UNK         0.3800 
    243 H243       -4.0371  -20.1032  -53.9605 H         1 UNK         0.3800 
    244 H244       -1.5356  -16.2645  -54.1376 H         1 UNK         0.0800 
    245 H245       -0.9601  -17.8640  -54.4920 H         1 UNK         0.0800 
    246 H246        0.8772  -18.9163  -53.4810 H         1 UNK         0.0800 
    247 H247        1.7278  -17.3935  -53.6300 H         1 UNK         0.0800 
@<TRIPOS>BOND
     1    1    2 1    
     2    1  127 1    
     3    1  128 1    
     4    1  129 1    
     5    2    3 2    
     6    2    4 am   BACKBONE|DICT|INTERRES
     7    4    5 1    
     8    4  130 1    
     9    5    6 1    
    10    5   65 1    
    11    5  131 1    
    12    6    7 1    
    13    6  132 1    
    14    6  133 1    
    15    7    8 1    
    16    8    9 1    
    17    8  134 1    
    18    8  135 1    
    19    9   10 ar   
    20    9   14 ar   
    21   10   11 ar   
    22   10  136 1    
    23   11   12 ar   
    24   11  126 1    
    25   12   13 ar   
    26   12  137 1    
    27   13   14 ar   
    28   13   15 1    
    29   14  138 1    
    30   15   16 1    
    31   15  139 1    
    32   15  140 1    
    33   16   17 1    
    34   17   18 1    
    35   17  141 1    
    36   17  142 1    
    37   18   19 1    
    38   18   67 1    
    39   18  143 1    
    40   19   20 am   BACKBONE|DICT|INTERRES
    41   19  144 1    
    42   20   21 2    
    43   20   22 1    
    44   22   23 1    
    45   22   24 1    
    46   22  145 1    
    47   23  146 1    
    48   23  147 1    
    49   23  148 1    
    50   24   25 am   BACKBONE|DICT|INTERRES
    51   24  149 1    
    52   25   26 2    
    53   25   27 1    
    54   27   28 1    
    55   27   29 1    
    56   27  150 1    
    57   28  151 1    
    58   28  152 1    
    59   28  153 1    
    60   29   30 am   BACKBONE|DICT|INTERRES
    61   29  154 1    
    62   30   31 2    
    63   30   32 1    
    64   32   33 1    
    65   32   34 1    
    66   32  155 1    
    67   33  156 1    
    68   33  157 1    
    69   33  158 1    
    70   34   35 am   BACKBONE|DICT|INTERRES
    71   34  159 1    
    72   35   36 2    
    73   35   37 1    
    74   37   38 1    
    75   37   39 1    
    76   37  160 1    
    77   38  161 1    
    78   38  162 1    
    79   38  163 1    
    80   39   40 am   BACKBONE|DICT|INTERRES
    81   39  164 1    
    82   40   41 2    
    83   40   42 1    
    84   42   43 1    
    85   42   44 1    
    86   42  165 1    
    87   43  166 1    
    88   43  167 1    
    89   43  168 1    
    90   44   45 am   BACKBONE|DICT|INTERRES
    91   44  169 1    
    92   45   46 2    
    93   45   47 1    
    94   47   48 1    
    95   47   49 1    
    96   47  170 1    
    97   48  171 1    
    98   48  172 1    
    99   48  173 1    
   100   49   50 am   BACKBONE|DICT|INTERRES
   101   49  174 1    
   102   50   51 2    
   103   50   52 1    
   104   52   53 1    
   105   52   54 1    
   106   52  175 1    
   107   53  176 1    
   108   53  177 1    
   109   53  178 1    
   110   54   55 am   BACKBONE|DICT|INTERRES
   111   54  179 1    
   112   55   56 2    
   113   55   57 1    
   114   57   58 1    
   115   57   59 1    
   116   57  180 1    
   117   58  181 1    
   118   58  182 1    
   119   58  183 1    
   120   59   60 am   BACKBONE|DICT|INTERRES
   121   59  184 1    
   122   60   61 2    
   123   60   62 1    
   124   62   63 1    
   125   62   64 1    
   126   62  185 1    
   127   63  186 1    
   128   63  187 1    
   129   63  188 1    
   130   64   65 am   BACKBONE|DICT|INTERRES
   131   64  189 1    
   132   65   66 2    
   133   67   68 2    
   134   67   69 am   BACKBONE|DICT|INTERRES
   135   69   70 1    
   136   69  190 1    
   137   70   71 1    
   138   70   72 1    
   139   70  191 1    
   140   71  192 1    
   141   71  193 1    
   142   71  194 1    
   143   72   73 2    
   144   72   74 am   BACKBONE|DICT|INTERRES
   145   74   75 1    
   146   74  195 1    
   147   75   76 1    
   148   75   77 1    
   149   75  196 1    
   150   76  197 1    
   151   76  198 1    
   152   76  199 1    
   153   77   78 2    
   154   77   79 am   BACKBONE|DICT|INTERRES
   155   79   80 1    
   156   79  200 1    
   157   80   81 1    
   158   80   82 1    
   159   80  201 1    
   160   81  202 1    
   161   81  203 1    
   162   81  204 1    
   163   82   83 2    
   164   82   84 am   BACKBONE|DICT|INTERRES
   165   84   85 1    
   166   84  205 1    
   167   85   86 1    
   168   85   87 1    
   169   85  206 1    
   170   86  207 1    
   171   86  208 1    
   172   86  209 1    
   173   87   88 2    
   174   87   89 am   BACKBONE|DICT|INTERRES
   175   89   90 1    
   176   89  210 1    
   177   90   91 1    
   178   90   92 1    
   179   90  211 1    
   180   91  212 1    
   181   91  213 1    
   182   91  214 1    
   183   92   93 2    
   184   92   94 am   BACKBONE|DICT|INTERRES
   185   94   95 1    
   186   94  215 1    
   187   95   96 1    
   188   95   97 1    
   189   95  216 1    
   190   96  217 1    
   191   96  218 1    
   192   96  219 1    
   193   97   98 2    
   194   97   99 am   BACKBONE|DICT|INTERRES
   195   99  100 1    
   196   99  220 1    
   197  100  101 1    
   198  100  102 1    
   199  100  221 1    
   200  101  222 1    
   201  101  223 1    
   202  101  224 1    
   203  102  103 2    
   204  102  104 am   BACKBONE|DICT|INTERRES
   205  104  105 1    
   206  104  225 1    
   207  105  106 1    
   208  105  107 1    
   209  105  226 1    
   210  106  227 1    
   211  106  228 1    
   212  106  229 1    
   213  107  108 2    
   214  107  109 am   BACKBONE|DICT|INTERRES
   215  109  110 1    
   216  109  230 1    
   217  110  111 1    
   218  110  112 1    
   219  110  231 1    
   220  111  232 1    
   221  111  233 1    
   222  111  234 1    
   223  112  113 2    
   224  112  114 am   BACKBONE|DICT|INTERRES
   225  114  115 1    
   226  114  235 1    
   227  115  116 1    
   228  115  117 1    
   229  115  236 1    
   230  116  237 1    
   231  116  238 1    
   232  116  239 1    
   233  117  118 2    
   234  117  119 am   BACKBONE|DICT|INTERRES
   235  119  120 1    
   236  119  240 1    
   237  120  121 1    
   238  120  124 1    
   239  120  241 1    
   240  121  122 am   BACKBONE|DICT|INTERRES
   241  121  123 2    
   242  122  242 1    
   243  122  243 1    
   244  124  125 1    
   245  124  244 1    
   246  124  245 1    
   247  125  126 1    
   248  126  246 1    
   249  126  247 1    
@<TRIPOS>SUBSTRUCTURE
     1 UNK         1 GROUP             0       ****    0 ROOT    
