@<TRIPOS>MOLECULE
3R540
247   249    1
SMALL
USER_CHARGES


@<TRIPOS>ATOM
      1 CA         -5.7274  -16.5704  -50.6866 C.3       0 UNK        -0.1800 
      2 C          -5.4473  -17.5175  -49.5224 C.2       0 UNK         0.5000 
      3 O          -6.1420  -18.5197  -49.3817 O.2       0 UNK        -0.5000 
      4 N          -4.4509  -17.2491  -48.6707 N.am      1 UNK        -0.5000 
      5 CA         -3.5604  -16.0883  -48.6930 C.3       1 UNK         0.1400 
      6 C6         -2.3429  -16.3169  -49.6224 C.3       23 UNK        -0.0398 
      7 S7         -1.7538  -14.7843  -50.4180 S.3       23 UNK        -0.2404 
      8 C8         -0.0952  -14.5874  -49.6926 C.3       23 UNK        -0.0205 
      9 C9          0.8112  -15.7729  -49.9902 C.ar      23 UNK        -0.0193 
     10 C10         1.2765  -16.0013  -51.2873 C.ar      23 UNK        -0.1150 
     11 C11         2.0910  -17.1024  -51.5682 C.ar      23 UNK        -0.0193 
     12 C12         2.4495  -17.9716  -50.5302 C.ar      23 UNK        -0.1150 
     13 C13         2.0173  -17.7340  -49.2204 C.ar      23 UNK        -0.0193 
     14 C14         1.1949  -16.6355  -48.9613 C.ar      23 UNK        -0.1150 
     15 C15         2.4892  -18.6195  -48.0744 C.3       23 UNK        -0.0205 
     16 S16         1.4027  -20.0501  -47.7771 S.3       23 UNK        -0.2404 
     17 C17        -0.0482  -19.2868  -46.9751 C.3       23 UNK        -0.0398 
     18 CA         -1.1143  -20.3377  -46.5885 C.3       11 UNK         0.1400 
     19 N          -0.6033  -21.3042  -45.6109 N.am      11 UNK        -0.5000 
     20 C          -1.2153  -22.4404  -45.2532 C.2       10 UNK         0.5000 
     21 O          -2.3098  -22.7934  -45.6906 O.2       10 UNK        -0.5000 
     22 CA         -0.5133  -23.2913  -44.1815 C.3       10 UNK         0.1400 
     23 CB          0.5093  -24.2331  -44.8341 C.3       10 UNK        -0.1800 
     24 N           0.1512  -22.4989  -43.1416 N.am      10 UNK        -0.5000 
     25 C          -0.4479  -21.6048  -42.3415 C.2       9 UNK         0.5000 
     26 O          -1.6320  -21.2895  -42.4587 O.2       9 UNK        -0.5000 
     27 CA          0.4022  -20.9048  -41.2612 C.3       9 UNK         0.1400 
     28 CB         -0.1983  -21.0968  -39.8545 C.3       9 UNK        -0.1800 
     29 N           1.8351  -21.2288  -41.2751 N.am      9 UNK        -0.5000 
     30 C           2.4433  -22.3852  -40.9636 C.2       8 UNK         0.5000 
     31 O           1.8410  -23.4142  -40.6591 O.2       8 UNK        -0.5000 
     32 CA          3.9860  -22.4145  -41.0339 C.3       8 UNK         0.1400 
     33 CB          4.4450  -23.1607  -42.2969 C.3       8 UNK        -0.1800 
     34 N           4.5984  -21.0841  -41.0300 N.am      8 UNK        -0.5000 
     35 C           4.6392  -20.2546  -39.9775 C.2       7 UNK         0.5000 
     36 O           4.2578  -20.5666  -38.8490 O.2       7 UNK        -0.5000 
     37 CA          5.1650  -18.8252  -40.2331 C.3       7 UNK         0.1400 
     38 CB          6.6235  -18.6999  -39.7662 C.3       7 UNK        -0.1800 
     39 N           5.0726  -18.3760  -41.6295 N.am      7 UNK        -0.5000 
     40 C           3.9404  -18.2639  -42.3377 C.2       6 UNK         0.5000 
     41 O           2.8305  -18.5823  -41.9043 O.2       6 UNK        -0.5000 
     42 CA          4.0903  -17.7837  -43.7932 C.3       6 UNK         0.1400 
     43 CB          4.6604  -18.9102  -44.6716 C.3       6 UNK        -0.1800 
     44 N           2.8090  -17.3682  -44.3605 N.am      6 UNK        -0.5000 
     45 C           2.1575  -16.2411  -44.0517 C.2       5 UNK         0.5000 
     46 O           2.5937  -15.3757  -43.2881 O.2       5 UNK        -0.5000 
     47 CA          0.7686  -16.0804  -44.6981 C.3       5 UNK         0.1400 
     48 CB         -0.3164  -16.7586  -43.8466 C.3       5 UNK        -0.1800 
     49 N           0.4072  -14.6834  -44.9310 N.am      5 UNK        -0.5000 
     50 C           1.0129  -13.8882  -45.8235 C.2       4 UNK         0.5000 
     51 O           1.9254  -14.2640  -46.5609 O.2       4 UNK        -0.5000 
     52 CA          0.4845  -12.4481  -45.9224 C.3       4 UNK         0.1400 
     53 CB          0.9870  -11.6903  -47.1677 C.3       4 UNK        -0.1800 
     54 N          -0.9766  -12.4459  -45.8912 N.am      4 UNK        -0.5000 
     55 C          -1.7259  -11.4569  -45.3881 C.2       3 UNK         0.5000 
     56 O          -1.2560  -10.4279  -44.9003 O.2       3 UNK        -0.5000 
     57 CA         -3.2579  -11.6301  -45.4320 C.3       3 UNK         0.1400 
     58 CB         -3.8508  -10.8280  -46.6010 C.3       3 UNK        -0.1800 
     59 N          -3.7096  -13.0188  -45.5417 N.am      3 UNK        -0.5000 
     60 C          -3.5329  -13.9713  -44.6160 C.2       2 UNK         0.5000 
     61 O          -2.9409  -13.7915  -43.5518 O.2       2 UNK        -0.5000 
     62 CA         -4.1008  -15.3668  -44.9394 C.3       2 UNK         0.1400 
     63 CB         -5.4814  -15.5403  -44.2869 C.3       2 UNK        -0.1800 
     64 N          -4.2108  -15.6641  -46.3726 N.am      2 UNK        -0.5000 
     65 C          -3.1904  -15.7135  -47.2431 C.2       1 UNK         0.5000 
     66 O          -2.0218  -15.4859  -46.9284 O.2       1 UNK        -0.5000 
     67 C          -2.4266  -19.6544  -46.1440 C.2       11 UNK         0.5000 
     68 O          -3.1830  -19.2056  -47.0054 O.2       11 UNK        -0.5000 
     69 N          -2.7176  -19.6261  -44.8332 N.am      12 UNK        -0.5000 
     70 CA         -3.9987  -19.1527  -44.2993 C.3       12 UNK         0.1400 
     71 CB         -3.8436  -18.7868  -42.8160 C.3       12 UNK        -0.1800 
     72 C          -5.1464  -20.1608  -44.5125 C.2       12 UNK         0.5000 
     73 O          -6.3100  -19.7616  -44.4891 O.2       12 UNK        -0.5000 
     74 N          -4.8003  -21.4292  -44.7694 N.am      13 UNK        -0.5000 
     75 CA         -5.6996  -22.4924  -45.2190 C.3       13 UNK         0.1400 
     76 CB         -5.4211  -23.7574  -44.3875 C.3       13 UNK        -0.1800 
     77 C          -5.5236  -22.7423  -46.7336 C.2       13 UNK         0.5000 
     78 O          -5.7465  -23.8595  -47.2034 O.2       13 UNK        -0.5000 
     79 N          -5.0815  -21.7044  -47.4632 N.am      14 UNK        -0.5000 
     80 CA         -4.8050  -21.6406  -48.9033 C.3       14 UNK         0.1400 
     81 CB         -6.0780  -21.9410  -49.7210 C.3       14 UNK        -0.1800 
     82 C          -3.6264  -22.5090  -49.3819 C.2       14 UNK         0.5000 
     83 O          -3.3686  -22.5356  -50.5859 O.2       14 UNK        -0.5000 
     84 N          -2.9370  -23.2026  -48.4614 N.am      15 UNK        -0.5000 
     85 CA         -1.9620  -24.2723  -48.7014 C.3       15 UNK         0.1400 
     86 CB         -0.6260  -23.6918  -49.2004 C.3       15 UNK        -0.1800 
     87 C          -2.5576  -25.3565  -49.6234 C.2       15 UNK         0.5000 
     88 O          -1.9853  -25.6792  -50.6679 O.2       15 UNK        -0.5000 
     89 N          -3.7764  -25.7930  -49.2656 N.am      16 UNK        -0.5000 
     90 CA         -4.7457  -26.5713  -50.0481 C.3       16 UNK         0.1400 
     91 CB         -4.1833  -27.9399  -50.4797 C.3       16 UNK        -0.1800 
     92 C          -5.3087  -25.7743  -51.2421 C.2       16 UNK         0.5000 
     93 O          -6.5231  -25.5969  -51.3400 O.2       16 UNK        -0.5000 
     94 N          -4.4086  -25.2792  -52.0949 N.am      17 UNK        -0.5000 
     95 CA         -4.6700  -24.3606  -53.2002 C.3       17 UNK         0.1400 
     96 CB         -5.3014  -25.1187  -54.3831 C.3       17 UNK        -0.1800 
     97 C          -3.4033  -23.6070  -53.6518 C.2       17 UNK         0.5000 
     98 O          -3.5228  -22.6817  -54.4557 O.2       17 UNK        -0.5000 
     99 N          -2.2136  -23.9924  -53.1609 N.am      18 UNK        -0.5000 
    100 CA        -0.9272  -23.4671  -53.6209 C.3       18 UNK         0.1400 
    101 CB         0.2060  -24.3425  -53.0646 C.3       18 UNK        -0.1800 
    102 C         -0.6851  -21.9821  -53.2926 C.2       18 UNK         0.5000 
    103 O          0.0274  -21.3220  -54.0471 O.2       18 UNK        -0.5000 
    104 N         -1.2808  -21.4764  -52.2038 N.am      19 UNK        -0.5000 
    105 CA        -1.2002  -20.0663  -51.8202 C.3       19 UNK         0.1400 
    106 CB        -1.2575  -19.9280  -50.2952 C.3       19 UNK        -0.1800 
    107 C         -2.3178  -19.2464  -52.4802 C.2       19 UNK         0.5000 
    108 O         -2.1071  -18.0732  -52.7759 O.2       19 UNK        -0.5000 
    109 N         -3.4758  -19.8701  -52.7454 N.am      20 UNK        -0.5000 
    110 CA        -4.5575  -19.2626  -53.5273 C.3       20 UNK         0.1400 
    111 CB        -5.8241  -20.1247  -53.4357 C.3       20 UNK        -0.1800 
    112 C         -4.1418  -19.0261  -54.9923 C.2       20 UNK         0.5000 
    113 O         -4.4838  -17.9919  -55.5679 O.2       20 UNK        -0.5000 
    114 N         -3.3397  -19.9519  -55.5378 N.am      21 UNK        -0.5000 
    115 CA        -2.6955  -19.8603  -56.8493 C.3       21 UNK         0.1400 
    116 CB        -2.0056  -21.1975  -57.1603 C.3       21 UNK        -0.1800 
    117 C         -1.7015  -18.6860  -56.9931 C.2       21 UNK         0.5000 
    118 O         -1.3932  -18.3066  -58.1239 O.2       21 UNK        -0.5000 
    119 N         -1.2382  -18.1124  -55.8724 N.am      22 UNK        -0.5000 
    120 CA        -0.4485  -16.8694  -55.8408 C.3       22 UNK         0.1400 
    121 C         -1.2786  -15.5876  -56.1559 C.2       22 UNK         0.5000 
    122 N         -2.6072  -15.6302  -56.1775 N.am      22 UNK        -0.7600 
    123 O         -0.7020  -14.5304  -56.3961 O.2       22 UNK        -0.5000 
    124 C124        0.3294  -16.6870  -54.5102 C.3       23 UNK        -0.0398 
    125 S125        1.4118  -18.0965  -54.0900 S.3       23 UNK        -0.2404 
    126 C126        2.6285  -17.3191  -52.9781 C.3       23 UNK        -0.0205 
    127 H127       -4.8164  -16.3341  -51.2360 H         1 UNK         0.0600 
    128 H128       -6.1723  -15.6430  -50.3265 H         1 UNK         0.0600 
    129 H129       -6.4255  -17.0271  -51.3886 H         1 UNK         0.0600 
    130 H130       -4.2300  -17.9259  -47.9435 H         1 UNK         0.3000 
    131 H131       -4.1266  -15.2324  -49.0642 H         1 UNK         0.0600 
    132 H132       -2.6163  -16.9852  -50.4374 H         1 UNK         0.0800 
    133 H133       -1.5397  -16.8314  -49.0979 H         1 UNK         0.0800 
    134 H134       -0.1941  -14.4363  -48.6174 H         1 UNK         0.0800 
    135 H135        0.3604  -13.6799  -50.0902 H         1 UNK         0.0800 
    136 H136        0.9999  -15.3179  -52.0770 H         1 UNK         0.1150 
    137 H137        3.0913  -18.8169  -50.7351 H         1 UNK         0.1150 
    138 H138        0.8576  -16.4410  -47.9543 H         1 UNK         0.1150 
    139 H139        3.4917  -18.9898  -48.2939 H         1 UNK         0.0800 
    140 H140        2.5843  -18.0312  -47.1620 H         1 UNK         0.0800 
    141 H141       -0.4678  -18.5459  -47.6565 H         1 UNK         0.0800 
    142 H142        0.2829  -18.7481  -46.0891 H         1 UNK         0.0800 
    143 H143       -1.3655  -20.9024  -47.4881 H         1 UNK         0.0600 
    144 H144        0.2978  -21.1013  -45.2048 H         1 UNK         0.3000 
    145 H145       -1.2785  -23.8988  -43.6941 H         1 UNK         0.0600 
    146 H146        0.9494  -24.9075  -44.0992 H         1 UNK         0.0600 
    147 H147        0.0387  -24.8511  -45.6001 H         1 UNK         0.0600 
    148 H148        1.3201  -23.6805  -45.3108 H         1 UNK         0.0600 
    149 H149        1.1206  -22.7111  -42.9599 H         1 UNK         0.3000 
    150 H150        0.3455  -19.8400  -41.4920 H         1 UNK         0.0600 
    151 H151       -1.2172  -20.7105  -39.8089 H         1 UNK         0.0600 
    152 H152        0.3834  -20.5641  -39.1021 H         1 UNK         0.0600 
    153 H153       -0.2377  -22.1479  -39.5679 H         1 UNK         0.0600 
    154 H154        2.4241  -20.4359  -41.5138 H         1 UNK         0.3000 
    155 H155        4.3445  -22.9622  -40.1598 H         1 UNK         0.0600 
    156 H156        4.1248  -22.6501  -43.2061 H         1 UNK         0.0600 
    157 H157        4.0353  -24.1714  -42.3263 H         1 UNK         0.0600 
    158 H158        5.5309  -23.2525  -42.3279 H         1 UNK         0.0600 
    159 H159        4.9531  -20.7470  -41.9123 H         1 UNK         0.3000 
    160 H160        4.5549  -18.1484  -39.6314 H         1 UNK         0.0600 
    161 H161        7.2893  -19.3327  -40.3544 H         1 UNK         0.0600 
    162 H162        6.7274  -18.9962  -38.7215 H         1 UNK         0.0600 
    163 H163        6.9775  -17.6720  -39.8463 H         1 UNK         0.0600 
    164 H164        5.9448  -18.1141  -42.0664 H         1 UNK         0.3000 
    165 H165        4.7761  -16.9340  -43.8113 H         1 UNK         0.0600 
    166 H166        4.7889  -18.5789  -45.7023 H         1 UNK         0.0600 
    167 H167        5.6395  -19.2337  -44.3163 H         1 UNK         0.0600 
    168 H168        4.0090  -19.7853  -44.6807 H         1 UNK         0.0600 
    169 H169        2.3563  -18.0468  -44.9511 H         1 UNK         0.3000 
    170 H170        0.7929  -16.5709  -45.6706 H         1 UNK         0.0600 
    171 H171       -0.4862  -16.2261  -42.9101 H         1 UNK         0.0600 
    172 H172       -1.2598  -16.8038  -44.3880 H         1 UNK         0.0600 
    173 H173       -0.0427  -17.7842  -43.5951 H         1 UNK         0.0600 
    174 H174       -0.3222  -14.2979  -44.3487 H         1 UNK         0.3000 
    175 H175        0.8644  -11.9341  -45.0370 H         1 UNK         0.0600 
    176 H176        0.6289  -12.1495  -48.0885 H         1 UNK         0.0600 
    177 H177        0.6518  -10.6532  -47.1607 H         1 UNK         0.0600 
    178 H178        2.0768  -11.6749  -47.2070 H         1 UNK         0.0600 
    179 H179       -1.4303  -13.2775  -46.2510 H         1 UNK         0.3000 
    180 H180       -3.6565  -11.2233  -44.5004 H         1 UNK         0.0600 
    181 H181       -4.9403  -10.8664  -46.5950 H         1 UNK         0.0600 
    182 H182       -3.5051  -11.2064  -47.5639 H         1 UNK         0.0600 
    183 H183       -3.5648   -9.7770  -46.5398 H         1 UNK         0.0600 
    184 H184       -4.2087  -13.2638  -46.3836 H         1 UNK         0.3000 
    185 H185       -3.4218  -16.0966  -44.4992 H         1 UNK         0.0600 
    186 H186       -5.8817  -16.5407  -44.4508 H         1 UNK         0.0600 
    187 H187       -5.4247  -15.3890  -43.2081 H         1 UNK         0.0600 
    188 H188       -6.2037  -14.8242  -44.6808 H         1 UNK         0.0600 
    189 H189       -5.1378  -15.8725  -46.7156 H         1 UNK         0.3000 
    190 H190       -2.0917  -20.0666  -44.1688 H         1 UNK         0.3000 
    191 H191       -4.2735  -18.2483  -44.8415 H         1 UNK         0.0600 
    192 H192       -4.7507  -18.3141  -42.4377 H         1 UNK         0.0600 
    193 H193       -3.0238  -18.0847  -42.6635 H         1 UNK         0.0600 
    194 H194       -3.6551  -19.6657  -42.1998 H         1 UNK         0.0600 
    195 H195       -3.8153  -21.6669  -44.7972 H         1 UNK         0.3000 
    196 H196       -6.7403  -22.2042  -45.0601 H         1 UNK         0.0600 
    197 H197       -4.4123  -24.1361  -44.5552 H         1 UNK         0.0600 
    198 H198       -5.5307  -23.5588  -43.3213 H         1 UNK         0.0600 
    199 H199       -6.1192  -24.5562  -44.6405 H         1 UNK         0.0600 
    200 H200       -4.8954  -20.8423  -46.9692 H         1 UNK         0.3000 
    201 H201       -4.5137  -20.6106  -49.1076 H         1 UNK         0.0600 
    202 H202       -5.9049  -21.7876  -50.7855 H         1 UNK         0.0600 
    203 H203       -6.8981  -21.2852  -49.4291 H         1 UNK         0.0600 
    204 H204       -6.4095  -22.9724  -49.5991 H         1 UNK         0.0600 
    205 H205       -3.1749  -23.0634  -47.4852 H         1 UNK         0.3000 
    206 H206       -1.7754  -24.7519  -47.7396 H         1 UNK         0.0600 
    207 H207       -0.2165  -22.9784  -48.4852 H         1 UNK         0.0600 
    208 H208        0.1164  -24.4790  -49.3352 H         1 UNK         0.0600 
    209 H209       -0.7390  -23.1801  -50.1532 H         1 UNK         0.0600 
    210 H210       -4.1659  -25.3899  -48.4225 H         1 UNK         0.3000 
    211 H211       -5.5821  -26.7619  -49.3736 H         1 UNK         0.0600 
    212 H212       -4.9572  -28.5396  -50.9601 H         1 UNK         0.0600 
    213 H213       -3.8212  -28.5043  -49.6205 H         1 UNK         0.0600 
    214 H214       -3.3613  -27.8469  -51.1894 H         1 UNK         0.0600 
    215 H215       -3.4381  -25.4628  -51.8681 H         1 UNK         0.3000 
    216 H216       -5.3733  -23.6014  -52.8521 H         1 UNK         0.0600 
    217 H217       -4.6475  -25.9152  -54.7398 H         1 UNK         0.0600 
    218 H218       -5.4929  -24.4488  -55.2224 H         1 UNK         0.0600 
    219 H219       -6.2559  -25.5668  -54.1076 H         1 UNK         0.0600 
    220 H220       -2.1569  -24.6996  -52.4401 H         1 UNK         0.3000 
    221 H221       -0.9100  -23.5573  -54.7093 H         1 UNK         0.0600 
    222 H222        0.0977  -25.3783  -53.3866 H         1 UNK         0.0600 
    223 H223        0.2281  -24.3331  -51.9755 H         1 UNK         0.0600 
    224 H224        1.1781  -23.9936  -53.4154 H         1 UNK         0.0600 
    225 H225       -1.8983  -22.0668  -51.6513 H         1 UNK         0.3000 
    226 H226       -0.2405  -19.6593  -52.1448 H         1 UNK         0.0600 
    227 H227       -2.2697  -20.0263  -49.9058 H         1 UNK         0.0600 
    228 H228       -0.6301  -20.6740  -49.8103 H         1 UNK         0.0600 
    229 H229       -0.8874  -18.9482  -49.9962 H         1 UNK         0.0600 
    230 H230       -3.5755  -20.8427  -52.4910 H         1 UNK         0.3000 
    231 H231       -4.7840  -18.2874  -53.0915 H         1 UNK         0.0600 
    232 H232       -5.6475  -21.1470  -53.7695 H         1 UNK         0.0600 
    233 H233       -6.6220  -19.7112  -54.0538 H         1 UNK         0.0600 
    234 H234       -6.1977  -20.1590  -52.4129 H         1 UNK         0.0600 
    235 H235       -3.1696  -20.8053  -55.0144 H         1 UNK         0.3000 
    236 H236       -3.4834  -19.7053  -57.5890 H         1 UNK         0.0600 
    237 H237       -1.2111  -21.4140  -56.4465 H         1 UNK         0.0600 
    238 H238       -2.7153  -22.0246  -57.1331 H         1 UNK         0.0600 
    239 H239       -1.5585  -21.1858  -58.1550 H         1 UNK         0.0600 
    240 H240       -1.5339  -18.4684  -54.9737 H         1 UNK         0.3000 
    241 H241        0.2966  -16.9426  -56.6352 H         1 UNK         0.0600 
    242 H242       -3.1227  -14.7907  -56.3886 H         1 UNK         0.3800 
    243 H243       -3.1108  -16.4867  -55.9774 H         1 UNK         0.3800 
    244 H244       -0.3593  -16.5157  -53.6834 H         1 UNK         0.0800 
    245 H245        0.9512  -15.7923  -54.5712 H         1 UNK         0.0800 
    246 H246        3.5125  -17.9573  -52.9413 H         1 UNK         0.0800 
    247 H247        2.9649  -16.3706  -53.3989 H         1 UNK         0.0800 
@<TRIPOS>BOND
     1    1    2 1    
     2    1  127 1    
     3    1  128 1    
     4    1  129 1    
     5    2    3 2    
     6    2    4 am   BACKBONE|DICT|INTERRES
     7    4    5 1    
     8    4  130 1    
     9    5    6 1    
    10    5   65 1    
    11    5  131 1    
    12    6    7 1    
    13    6  132 1    
    14    6  133 1    
    15    7    8 1    
    16    8    9 1    
    17    8  134 1    
    18    8  135 1    
    19    9   10 ar   
    20    9   14 ar   
    21   10   11 ar   
    22   10  136 1    
    23   11   12 ar   
    24   11  126 1    
    25   12   13 ar   
    26   12  137 1    
    27   13   14 ar   
    28   13   15 1    
    29   14  138 1    
    30   15   16 1    
    31   15  139 1    
    32   15  140 1    
    33   16   17 1    
    34   17   18 1    
    35   17  141 1    
    36   17  142 1    
    37   18   19 1    
    38   18   67 1    
    39   18  143 1    
    40   19   20 am   BACKBONE|DICT|INTERRES
    41   19  144 1    
    42   20   21 2    
    43   20   22 1    
    44   22   23 1    
    45   22   24 1    
    46   22  145 1    
    47   23  146 1    
    48   23  147 1    
    49   23  148 1    
    50   24   25 am   BACKBONE|DICT|INTERRES
    51   24  149 1    
    52   25   26 2    
    53   25   27 1    
    54   27   28 1    
    55   27   29 1    
    56   27  150 1    
    57   28  151 1    
    58   28  152 1    
    59   28  153 1    
    60   29   30 am   BACKBONE|DICT|INTERRES
    61   29  154 1    
    62   30   31 2    
    63   30   32 1    
    64   32   33 1    
    65   32   34 1    
    66   32  155 1    
    67   33  156 1    
    68   33  157 1    
    69   33  158 1    
    70   34   35 am   BACKBONE|DICT|INTERRES
    71   34  159 1    
    72   35   36 2    
    73   35   37 1    
    74   37   38 1    
    75   37   39 1    
    76   37  160 1    
    77   38  161 1    
    78   38  162 1    
    79   38  163 1    
    80   39   40 am   BACKBONE|DICT|INTERRES
    81   39  164 1    
    82   40   41 2    
    83   40   42 1    
    84   42   43 1    
    85   42   44 1    
    86   42  165 1    
    87   43  166 1    
    88   43  167 1    
    89   43  168 1    
    90   44   45 am   BACKBONE|DICT|INTERRES
    91   44  169 1    
    92   45   46 2    
    93   45   47 1    
    94   47   48 1    
    95   47   49 1    
    96   47  170 1    
    97   48  171 1    
    98   48  172 1    
    99   48  173 1    
   100   49   50 am   BACKBONE|DICT|INTERRES
   101   49  174 1    
   102   50   51 2    
   103   50   52 1    
   104   52   53 1    
   105   52   54 1    
   106   52  175 1    
   107   53  176 1    
   108   53  177 1    
   109   53  178 1    
   110   54   55 am   BACKBONE|DICT|INTERRES
   111   54  179 1    
   112   55   56 2    
   113   55   57 1    
   114   57   58 1    
   115   57   59 1    
   116   57  180 1    
   117   58  181 1    
   118   58  182 1    
   119   58  183 1    
   120   59   60 am   BACKBONE|DICT|INTERRES
   121   59  184 1    
   122   60   61 2    
   123   60   62 1    
   124   62   63 1    
   125   62   64 1    
   126   62  185 1    
   127   63  186 1    
   128   63  187 1    
   129   63  188 1    
   130   64   65 am   BACKBONE|DICT|INTERRES
   131   64  189 1    
   132   65   66 2    
   133   67   68 2    
   134   67   69 am   BACKBONE|DICT|INTERRES
   135   69   70 1    
   136   69  190 1    
   137   70   71 1    
   138   70   72 1    
   139   70  191 1    
   140   71  192 1    
   141   71  193 1    
   142   71  194 1    
   143   72   73 2    
   144   72   74 am   BACKBONE|DICT|INTERRES
   145   74   75 1    
   146   74  195 1    
   147   75   76 1    
   148   75   77 1    
   149   75  196 1    
   150   76  197 1    
   151   76  198 1    
   152   76  199 1    
   153   77   78 2    
   154   77   79 am   BACKBONE|DICT|INTERRES
   155   79   80 1    
   156   79  200 1    
   157   80   81 1    
   158   80   82 1    
   159   80  201 1    
   160   81  202 1    
   161   81  203 1    
   162   81  204 1    
   163   82   83 2    
   164   82   84 am   BACKBONE|DICT|INTERRES
   165   84   85 1    
   166   84  205 1    
   167   85   86 1    
   168   85   87 1    
   169   85  206 1    
   170   86  207 1    
   171   86  208 1    
   172   86  209 1    
   173   87   88 2    
   174   87   89 am   BACKBONE|DICT|INTERRES
   175   89   90 1    
   176   89  210 1    
   177   90   91 1    
   178   90   92 1    
   179   90  211 1    
   180   91  212 1    
   181   91  213 1    
   182   91  214 1    
   183   92   93 2    
   184   92   94 am   BACKBONE|DICT|INTERRES
   185   94   95 1    
   186   94  215 1    
   187   95   96 1    
   188   95   97 1    
   189   95  216 1    
   190   96  217 1    
   191   96  218 1    
   192   96  219 1    
   193   97   98 2    
   194   97   99 am   BACKBONE|DICT|INTERRES
   195   99  100 1    
   196   99  220 1    
   197  100  101 1    
   198  100  102 1    
   199  100  221 1    
   200  101  222 1    
   201  101  223 1    
   202  101  224 1    
   203  102  103 2    
   204  102  104 am   BACKBONE|DICT|INTERRES
   205  104  105 1    
   206  104  225 1    
   207  105  106 1    
   208  105  107 1    
   209  105  226 1    
   210  106  227 1    
   211  106  228 1    
   212  106  229 1    
   213  107  108 2    
   214  107  109 am   BACKBONE|DICT|INTERRES
   215  109  110 1    
   216  109  230 1    
   217  110  111 1    
   218  110  112 1    
   219  110  231 1    
   220  111  232 1    
   221  111  233 1    
   222  111  234 1    
   223  112  113 2    
   224  112  114 am   BACKBONE|DICT|INTERRES
   225  114  115 1    
   226  114  235 1    
   227  115  116 1    
   228  115  117 1    
   229  115  236 1    
   230  116  237 1    
   231  116  238 1    
   232  116  239 1    
   233  117  118 2    
   234  117  119 am   BACKBONE|DICT|INTERRES
   235  119  120 1    
   236  119  240 1    
   237  120  121 1    
   238  120  124 1    
   239  120  241 1    
   240  121  122 am   BACKBONE|DICT|INTERRES
   241  121  123 2    
   242  122  242 1    
   243  122  243 1    
   244  124  125 1    
   245  124  244 1    
   246  124  245 1    
   247  125  126 1    
   248  126  246 1    
   249  126  247 1    
@<TRIPOS>SUBSTRUCTURE
     1 UNK         1 GROUP             0       ****    0 ROOT    
