@<TRIPOS>MOLECULE
3R540
247   249    1
SMALL
USER_CHARGES


@<TRIPOS>ATOM
      1 CA         -6.8194  -16.9487  -46.4622 C.3       0 UNK        -0.1800 
      2 C          -5.9018  -15.7371  -46.5249 C.2       0 UNK         0.5000 
      3 O          -6.3842  -14.6056  -46.5597 O.2       0 UNK        -0.5000 
      4 N          -4.5847  -15.9673  -46.5287 N.am      1 UNK        -0.5000 
      5 CA         -3.5365  -14.9493  -46.6532 C.3       1 UNK         0.1400 
      6 C6         -2.4666  -15.3487  -47.7033 C.3       23 UNK        -0.0398 
      7 S7         -3.1730  -15.7413  -49.3390 S.3       23 UNK        -0.2404 
      8 C8         -1.6820  -15.7027  -50.3775 C.3       23 UNK        -0.0205 
      9 C9         -0.8119  -16.9373  -50.1890 C.ar      23 UNK        -0.0193 
     10 C10        -0.9736  -18.0418  -51.0296 C.ar      23 UNK        -0.1150 
     11 C11        -0.1174  -19.1426  -50.9307 C.ar      23 UNK        -0.0193 
     12 C12         0.8747  -19.1538  -49.9457 C.ar      23 UNK        -0.1150 
     13 C13         1.0287  -18.0674  -49.0789 C.ar      23 UNK        -0.0193 
     14 C14         0.1885  -16.9579  -49.2124 C.ar      23 UNK        -0.1150 
     15 C15         2.1333  -18.0728  -48.0310 C.3       23 UNK        -0.0205 
     16 S16         1.8285  -19.2748  -46.6969 S.3       23 UNK        -0.2404 
     17 C17         0.3538  -18.5830  -45.8772 C.3       23 UNK        -0.0398 
     18 CA         -0.8559  -19.5414  -45.9094 C.3       11 UNK         0.1400 
     19 N          -0.5282  -20.8359  -45.3062 N.am      11 UNK        -0.5000 
     20 C          -1.3457  -21.8808  -45.1237 C.2       10 UNK         0.5000 
     21 O          -2.5064  -21.9210  -45.5346 O.2       10 UNK        -0.5000 
     22 CA         -0.7899  -23.0444  -44.2800 C.3       10 UNK         0.1400 
     23 CB         -0.2765  -24.1654  -45.1950 C.3       10 UNK        -0.1800 
     24 N           0.2843  -22.6566  -43.3562 N.am      10 UNK        -0.5000 
     25 C           0.2255  -21.7147  -42.4039 C.2       9 UNK         0.5000 
     26 O          -0.7741  -21.0255  -42.1965 O.2       9 UNK        -0.5000 
     27 CA          1.5008  -21.4459  -41.5798 C.3       9 UNK         0.1400 
     28 CB          1.4769  -22.2282  -40.2537 C.3       9 UNK        -0.1800 
     29 N           2.7706  -21.6452  -42.2956 N.am      9 UNK        -0.5000 
     30 C           3.3258  -22.7845  -42.7422 C.2       8 UNK         0.5000 
     31 O           2.7706  -23.8817  -42.6841 O.2       8 UNK        -0.5000 
     32 CA          4.7241  -22.6912  -43.3905 C.3       8 UNK         0.1400 
     33 CB          4.5992  -22.7462  -44.9215 C.3       8 UNK        -0.1800 
     34 N           5.4640  -21.4822  -43.0265 N.am      8 UNK        -0.5000 
     35 C           5.8998  -21.1698  -41.7976 C.2       7 UNK         0.5000 
     36 O           5.8446  -21.9414  -40.8395 O.2       7 UNK        -0.5000 
     37 CA          6.4633  -19.7456  -41.5929 C.3       7 UNK         0.1400 
     38 CB          7.9906  -19.7910  -41.4294 C.3       7 UNK        -0.1800 
     39 N           6.1316  -18.7883  -42.6578 N.am      7 UNK        -0.5000 
     40 C           4.8982  -18.4134  -43.0250 C.2       6 UNK         0.5000 
     41 O           3.8668  -18.8663  -42.5190 O.2       6 UNK        -0.5000 
     42 CA          4.8200  -17.4258  -44.2040 C.3       6 UNK         0.1400 
     43 CB          5.2424  -18.1156  -45.5126 C.3       6 UNK        -0.1800 
     44 N           3.4624  -16.9134  -44.3701 N.am      6 UNK        -0.5000 
     45 C           2.9409  -15.8979  -43.6731 C.2       5 UNK         0.5000 
     46 O           3.5756  -15.2118  -42.8680 O.2       5 UNK        -0.5000 
     47 CA          1.4425  -15.6304  -43.8969 C.3       5 UNK         0.1400 
     48 CB          0.5958  -16.3181  -42.8141 C.3       5 UNK        -0.1800 
     49 N           1.1256  -14.2057  -43.9290 N.am      5 UNK        -0.5000 
     50 C           1.4733  -13.3782  -44.9237 C.2       4 UNK         0.5000 
     51 O           2.1178  -13.7374  -45.9112 O.2       4 UNK        -0.5000 
     52 CA          0.9905  -11.9217  -44.8038 C.3       4 UNK         0.1400 
     53 CB          0.9897  -11.1728  -46.1505 C.3       4 UNK        -0.1800 
     54 N          -0.3499  -11.8734  -44.2201 N.am      4 UNK        -0.5000 
     55 C          -0.7900  -10.9256  -43.3820 C.2       3 UNK         0.5000 
     56 O          -0.0911   -9.9898  -42.9903 O.2       3 UNK        -0.5000 
     57 CA         -2.2542  -11.0137  -42.8996 C.3       3 UNK         0.1400 
     58 CB         -3.1188   -9.9701  -43.6243 C.3       3 UNK        -0.1800 
     59 N          -2.8674  -12.3310  -43.0776 N.am      3 UNK        -0.5000 
     60 C          -2.5398  -13.4335  -42.3915 C.2       2 UNK         0.5000 
     61 O          -1.6909  -13.4568  -41.5001 O.2       2 UNK        -0.5000 
     62 CA         -3.2572  -14.7388  -42.7895 C.3       2 UNK         0.1400 
     63 CB         -4.4806  -14.9734  -41.8904 C.3       2 UNK        -0.1800 
     64 N          -3.6789  -14.8198  -44.1940 N.am      2 UNK        -0.5000 
     65 C          -2.8962  -14.6723  -45.2750 C.2       1 UNK         0.5000 
     66 O          -1.7134  -14.3394  -45.2073 O.2       1 UNK        -0.5000 
     67 C          -2.0749  -18.8560  -45.2524 C.2       11 UNK         0.5000 
     68 O          -2.7920  -18.1330  -45.9411 O.2       11 UNK        -0.5000 
     69 N          -2.3521  -19.1393  -43.9697 N.am      12 UNK        -0.5000 
     70 CA         -3.5588  -18.6900  -43.2663 C.3       12 UNK         0.1400 
     71 CB         -3.4514  -19.0661  -41.7823 C.3       12 UNK        -0.1800 
     72 C          -4.8772  -19.2195  -43.8734 C.2       12 UNK         0.5000 
     73 O          -5.9165  -18.5879  -43.6887 O.2       12 UNK        -0.5000 
     74 N          -4.8020  -20.3315  -44.6170 N.am      13 UNK        -0.5000 
     75 CA         -5.8767  -20.8976  -45.4341 C.3       13 UNK         0.1400 
     76 CB         -6.1127  -22.3507  -44.9855 C.3       13 UNK        -0.1800 
     77 C          -5.5266  -20.8216  -46.9373 C.2       13 UNK         0.5000 
     78 O          -6.0963  -21.5703  -47.7327 O.2       13 UNK        -0.5000 
     79 N          -4.5581  -19.9605  -47.2968 N.am      14 UNK        -0.5000 
     80 CA         -3.9735  -19.7510  -48.6303 C.3       14 UNK         0.1400 
     81 CB         -5.0021  -19.0923  -49.5696 C.3       14 UNK        -0.1800 
     82 C          -3.3401  -21.0242  -49.2344 C.2       14 UNK         0.5000 
     83 O          -3.2182  -21.1309  -50.4537 O.2       14 UNK        -0.5000 
     84 N          -2.9751  -21.9781  -48.3632 N.am      15 UNK        -0.5000 
     85 CA         -2.5223  -23.3373  -48.6615 C.3       15 UNK         0.1400 
     86 CB         -1.0930  -23.3170  -49.2327 C.3       15 UNK        -0.1800 
     87 C          -3.5372  -24.1572  -49.4922 C.2       15 UNK         0.5000 
     88 O          -3.1424  -25.0250  -50.2737 O.2       15 UNK        -0.5000 
     89 N          -4.8345  -23.8786  -49.2815 N.am      16 UNK        -0.5000 
     90 CA         -5.9963  -24.5193  -49.8993 C.3       16 UNK         0.1400 
     91 CB         -6.1715  -25.9523  -49.3475 C.3       16 UNK        -0.1800 
     92 C          -5.9514  -24.4317  -51.4390 C.2       16 UNK         0.5000 
     93 O          -6.0023  -23.3272  -51.9809 O.2       16 UNK        -0.5000 
     94 N          -5.8445  -25.5818  -52.1187 N.am      17 UNK        -0.5000 
     95 CA         -5.8017  -25.7075  -53.5779 C.3       17 UNK         0.1400 
     96 CB         -5.8327  -27.1977  -53.9495 C.3       17 UNK        -0.1800 
     97 C          -4.5961  -25.0129  -54.2419 C.2       17 UNK         0.5000 
     98 O          -4.6828  -24.6532  -55.4170 O.2       17 UNK        -0.5000 
     99 N          -3.5075  -24.8045  -53.4857 N.am      18 UNK        -0.5000 
    100 CA        -2.3087  -24.1010  -53.9451 C.3       18 UNK         0.1400 
    101 CB        -1.1576  -24.3460  -52.9632 C.3       18 UNK        -0.1800 
    102 C         -2.5219  -22.5923  -54.1761 C.2       18 UNK         0.5000 
    103 O         -1.6969  -21.9781  -54.8509 O.2       18 UNK        -0.5000 
    104 N         -3.6313  -22.0202  -53.6811 N.am      19 UNK        -0.5000 
    105 CA        -4.0351  -20.6297  -53.9157 C.3       19 UNK         0.1400 
    106 CB        -5.3629  -20.3556  -53.1962 C.3       19 UNK        -0.1800 
    107 C         -4.1622  -20.2734  -55.4104 C.2       19 UNK         0.5000 
    108 O         -3.8450  -19.1484  -55.7966 O.2       19 UNK        -0.5000 
    109 N         -4.5726  -21.2535  -56.2286 N.am      20 UNK        -0.5000 
    110 CA        -4.6580  -21.1463  -57.6850 C.3       20 UNK         0.1400 
    111 CB        -5.4432  -22.3506  -58.2261 C.3       20 UNK        -0.1800 
    112 C         -3.2825  -21.0448  -58.3754 C.2       20 UNK         0.5000 
    113 O         -3.1990  -20.4677  -59.4603 O.2       20 UNK        -0.5000 
    114 N         -2.2359  -21.5969  -57.7456 N.am      21 UNK        -0.5000 
    115 CA        -0.8517  -21.5007  -58.2063 C.3       21 UNK         0.1400 
    116 CB        -0.0713  -22.7506  -57.7678 C.3       21 UNK        -0.1800 
    117 C         -0.1833  -20.2193  -57.6807 C.2       21 UNK         0.5000 
    118 O          0.5347  -19.5610  -58.4349 O.2       21 UNK        -0.5000 
    119 N         -0.4362  -19.8850  -56.4077 N.am      22 UNK        -0.5000 
    120 CA         0.0549  -18.6625  -55.7522 C.3       22 UNK         0.1400 
    121 C         -0.5464  -17.3525  -56.3356 C.2       22 UNK         0.5000 
    122 N         -1.8240  -17.3189  -56.6941 N.am      22 UNK        -0.7600 
    123 O          0.1572  -16.3546  -56.4663 O.2       22 UNK        -0.5000 
    124 C124       -0.1474  -18.6990  -54.2183 C.3       23 UNK        -0.0398 
    125 S125        0.7565  -20.0581  -53.4022 S.3       23 UNK        -0.2404 
    126 C126       -0.2468  -20.3075  -51.9020 C.3       23 UNK        -0.0205 
    127 H127       -6.2554  -17.8796  -46.4560 H         1 UNK         0.0600 
    128 H128       -7.4848  -16.9619  -47.3253 H         1 UNK         0.0600 
    129 H129       -7.4278  -16.9144  -45.5585 H         1 UNK         0.0600 
    130 H130       -4.2237  -16.9121  -46.4455 H         1 UNK         0.3000 
    131 H131       -3.9741  -14.0045  -46.9811 H         1 UNK         0.0600 
    132 H132       -1.8947  -16.2121  -47.3646 H         1 UNK         0.0800 
    133 H133       -1.7480  -14.5370  -47.8296 H         1 UNK         0.0800 
    134 H134       -1.1077  -14.7986  -50.1703 H         1 UNK         0.0800 
    135 H135       -1.9900  -15.6272  -51.4214 H         1 UNK         0.0800 
    136 H136       -1.7468  -18.0291  -51.7842 H         1 UNK         0.1150 
    137 H137        1.5388  -20.0026  -49.8613 H         1 UNK         0.1150 
    138 H138        0.3232  -16.1014  -48.5669 H         1 UNK         0.1150 
    139 H139        3.0786  -18.3221  -48.5152 H         1 UNK         0.0800 
    140 H140        2.2680  -17.0795  -47.5994 H         1 UNK         0.0800 
    141 H141        0.0968  -17.6268  -46.3362 H         1 UNK         0.0800 
    142 H142        0.6267  -18.3710  -44.8438 H         1 UNK         0.0800 
    143 H143       -1.1163  -19.7299  -46.9529 H         1 UNK         0.0600 
    144 H144        0.4115  -20.9207  -44.9481 H         1 UNK         0.3000 
    145 H145       -1.6144  -23.4343  -43.6803 H         1 UNK         0.0600 
    146 H146        0.0723  -25.0198  -44.6146 H         1 UNK         0.0600 
    147 H147       -1.0658  -24.5254  -45.8554 H         1 UNK         0.0600 
    148 H148        0.5496  -23.8264  -45.8217 H         1 UNK         0.0600 
    149 H149        1.1409  -23.2007  -43.3996 H         1 UNK         0.3000 
    150 H150        1.4801  -20.3840  -41.3293 H         1 UNK         0.0600 
    151 H151        0.5889  -21.9783  -39.6717 H         1 UNK         0.0600 
    152 H152        2.3457  -21.9891  -39.6403 H         1 UNK         0.0600 
    153 H153        1.4659  -23.3064  -40.4151 H         1 UNK         0.0600 
    154 H154        3.2980  -20.7881  -42.4351 H         1 UNK         0.3000 
    155 H155        5.3005  -23.5562  -43.0566 H         1 UNK         0.0600 
    156 H156        4.0412  -21.8933  -45.3112 H         1 UNK         0.0600 
    157 H157        4.0795  -23.6509  -45.2402 H         1 UNK         0.0600 
    158 H158        5.5797  -22.7527  -45.3980 H         1 UNK         0.0600 
    159 H159        5.5693  -20.7869  -43.7495 H         1 UNK         0.3000 
    160 H160        6.0314  -19.3646  -40.6652 H         1 UNK         0.0600 
    161 H161        8.4814  -20.1401  -42.3387 H         1 UNK         0.0600 
    162 H162        8.2792  -20.4648  -40.6214 H         1 UNK         0.0600 
    163 H163        8.3918  -18.8069  -41.1863 H         1 UNK         0.0600 
    164 H164        6.9205  -18.3823  -43.1406 H         1 UNK         0.3000 
    165 H165        5.5001  -16.5938  -44.0089 H         1 UNK         0.0600 
    166 H166        5.1244  -17.4486  -46.3669 H         1 UNK         0.0600 
    167 H167        6.2908  -18.4138  -45.4820 H         1 UNK         0.0600 
    168 H168        4.6542  -19.0133  -45.7060 H         1 UNK         0.0600 
    169 H169        2.8668  -17.4531  -44.9794 H         1 UNK         0.3000 
    170 H170        1.1621  -16.0435  -44.8664 H         1 UNK         0.0600 
    171 H171        0.6937  -15.8200  -41.8488 H         1 UNK         0.0600 
    172 H172       -0.4574  -16.3199  -43.0901 H         1 UNK         0.0600 
    173 H173        0.8940  -17.3582  -42.6740 H         1 UNK         0.0600 
    174 H174        0.6113  -13.8336  -43.1439 H         1 UNK         0.3000 
    175 H175        1.7001  -11.4274  -44.1374 H         1 UNK         0.0600 
    176 H176        0.3180  -11.6455  -46.8681 H         1 UNK         0.0600 
    177 H177        0.6728  -10.1373  -46.0264 H         1 UNK         0.0600 
    178 H178        1.9867  -11.1538  -46.5920 H         1 UNK         0.0600 
    179 H179       -0.9668  -12.6371  -44.4844 H         1 UNK         0.3000 
    180 H180       -2.2587  -10.7795  -41.8330 H         1 UNK         0.0600 
    181 H181       -4.1388   -9.9659  -43.2396 H         1 UNK         0.0600 
    182 H182       -3.1638  -10.1610  -44.6973 H         1 UNK         0.0600 
    183 H183       -2.7179   -8.9649  -43.4865 H         1 UNK         0.0600 
    184 H184       -3.5701  -12.4099  -43.7977 H         1 UNK         0.3000 
    185 H185       -2.5537  -15.5530  -42.6157 H         1 UNK         0.0600 
    186 H186       -4.9436  -15.9400  -42.0902 H         1 UNK         0.0600 
    187 H187       -4.1995  -14.9625  -40.8364 H         1 UNK         0.0600 
    188 H188       -5.2385  -14.2027  -42.0360 H         1 UNK         0.0600 
    189 H189       -4.6421  -15.0760  -44.3559 H         1 UNK         0.3000 
    190 H190       -1.7422  -19.7670  -43.4538 H         1 UNK         0.3000 
    191 H191       -3.5915  -17.6033  -43.3405 H         1 UNK         0.0600 
    192 H192       -4.3119  -18.6986  -41.2217 H         1 UNK         0.0600 
    193 H193       -2.5592  -18.6330  -41.3296 H         1 UNK         0.0600 
    194 H194       -3.4058  -20.1472  -41.6457 H         1 UNK         0.0600 
    195 H195       -3.9029  -20.7936  -44.7153 H         1 UNK         0.3000 
    196 H196       -6.8032  -20.3377  -45.2943 H         1 UNK         0.0600 
    197 H197       -5.2328  -22.9715  -45.1598 H         1 UNK         0.0600 
    198 H198       -6.3516  -22.3997  -43.9230 H         1 UNK         0.0600 
    199 H199       -6.9470  -22.8010  -45.5246 H         1 UNK         0.0600 
    200 H200       -4.1343  -19.3992  -46.5672 H         1 UNK         0.3000 
    201 H201       -3.1531  -19.0435  -48.5012 H         1 UNK         0.0600 
    202 H202       -4.5374  -18.7977  -50.5113 H         1 UNK         0.0600 
    203 H203       -5.4205  -18.1901  -49.1235 H         1 UNK         0.0600 
    204 H204       -5.8261  -19.7668  -49.8035 H         1 UNK         0.0600 
    205 H205       -3.0852  -21.7842  -47.3726 H         1 UNK         0.3000 
    206 H206       -2.4733  -23.8496  -47.7006 H         1 UNK         0.0600 
    207 H207       -0.3974  -22.8703  -48.5219 H         1 UNK         0.0600 
    208 H208       -0.7327  -24.3230  -49.4500 H         1 UNK         0.0600 
    209 H209       -1.0413  -22.7362  -50.1502 H         1 UNK         0.0600 
    210 H210       -5.0590  -23.0983  -48.6728 H         1 UNK         0.3000 
    211 H211       -6.8660  -23.9384  -49.5891 H         1 UNK         0.0600 
    212 H212       -7.0693  -26.4233  -49.7499 H         1 UNK         0.0600 
    213 H213       -6.2800  -25.9373  -48.2629 H         1 UNK         0.0600 
    214 H214       -5.3214  -26.5941  -49.5817 H         1 UNK         0.0600 
    215 H215       -5.7796  -26.4407  -51.5921 H         1 UNK         0.3000 
    216 H216       -6.7032  -25.2371  -53.9757 H         1 UNK         0.0600 
    217 H217       -4.9666  -27.7287  -53.5524 H         1 UNK         0.0600 
    218 H218       -5.8316  -27.3311  -55.0323 H         1 UNK         0.0600 
    219 H219       -6.7305  -27.6824  -53.5655 H         1 UNK         0.0600 
    220 H220       -3.5208  -25.0940  -52.5145 H         1 UNK         0.3000 
    221 H221       -2.0190  -24.5288  -54.9072 H         1 UNK         0.0600 
    222 H222       -0.9475  -25.4100  -52.8538 H         1 UNK         0.0600 
    223 H223       -1.3931  -23.9473  -51.9804 H         1 UNK         0.0600 
    224 H224       -0.2403  -23.8630  -53.3028 H         1 UNK         0.0600 
    225 H225       -4.2604  -22.5786  -53.1160 H         1 UNK         0.3000 
    226 H226       -3.2703  -19.9855  -53.4798 H         1 UNK         0.0600 
    227 H227       -6.1745  -20.9573  -53.6071 H         1 UNK         0.0600 
    228 H228       -5.2896  -20.5831  -52.1335 H         1 UNK         0.0600 
    229 H229       -5.6487  -19.3070  -53.2867 H         1 UNK         0.0600 
    230 H230       -4.7878  -22.1570  -55.8284 H         1 UNK         0.3000 
    231 H231       -5.2149  -20.2383  -57.9256 H         1 UNK         0.0600 
    232 H232       -4.9428  -23.2923  -57.9962 H         1 UNK         0.0600 
    233 H233       -5.5524  -22.2920  -59.3098 H         1 UNK         0.0600 
    234 H234       -6.4462  -22.3915  -57.8007 H         1 UNK         0.0600 
    235 H235       -2.3729  -21.9937  -56.8247 H         1 UNK         0.3000 
    236 H236       -0.8344  -21.4669  -59.2979 H         1 UNK         0.0600 
    237 H237       -0.0118  -22.8375  -56.6828 H         1 UNK         0.0600 
    238 H238       -0.5352  -23.6592  -58.1516 H         1 UNK         0.0600 
    239 H239        0.9505  -22.7215  -58.1479 H         1 UNK         0.0600 
    240 H240       -0.9790  -20.5220  -55.8316 H         1 UNK         0.3000 
    241 H241        1.1304  -18.6158  -55.9353 H         1 UNK         0.0600 
    242 H242       -2.2046  -16.4687  -57.0772 H         1 UNK         0.3800 
    243 H243       -2.4454  -18.1024  -56.5106 H         1 UNK         0.3800 
    244 H244       -1.2104  -18.7868  -53.9917 H         1 UNK         0.0800 
    245 H245        0.1908  -17.7656  -53.7643 H         1 UNK         0.0800 
    246 H246       -1.2899  -20.4672  -52.1748 H         1 UNK         0.0800 
    247 H247        0.0859  -21.2265  -51.4206 H         1 UNK         0.0800 
@<TRIPOS>BOND
     1    1    2 1    
     2    1  127 1    
     3    1  128 1    
     4    1  129 1    
     5    2    3 2    
     6    2    4 am   BACKBONE|DICT|INTERRES
     7    4    5 1    
     8    4  130 1    
     9    5    6 1    
    10    5   65 1    
    11    5  131 1    
    12    6    7 1    
    13    6  132 1    
    14    6  133 1    
    15    7    8 1    
    16    8    9 1    
    17    8  134 1    
    18    8  135 1    
    19    9   10 ar   
    20    9   14 ar   
    21   10   11 ar   
    22   10  136 1    
    23   11   12 ar   
    24   11  126 1    
    25   12   13 ar   
    26   12  137 1    
    27   13   14 ar   
    28   13   15 1    
    29   14  138 1    
    30   15   16 1    
    31   15  139 1    
    32   15  140 1    
    33   16   17 1    
    34   17   18 1    
    35   17  141 1    
    36   17  142 1    
    37   18   19 1    
    38   18   67 1    
    39   18  143 1    
    40   19   20 am   BACKBONE|DICT|INTERRES
    41   19  144 1    
    42   20   21 2    
    43   20   22 1    
    44   22   23 1    
    45   22   24 1    
    46   22  145 1    
    47   23  146 1    
    48   23  147 1    
    49   23  148 1    
    50   24   25 am   BACKBONE|DICT|INTERRES
    51   24  149 1    
    52   25   26 2    
    53   25   27 1    
    54   27   28 1    
    55   27   29 1    
    56   27  150 1    
    57   28  151 1    
    58   28  152 1    
    59   28  153 1    
    60   29   30 am   BACKBONE|DICT|INTERRES
    61   29  154 1    
    62   30   31 2    
    63   30   32 1    
    64   32   33 1    
    65   32   34 1    
    66   32  155 1    
    67   33  156 1    
    68   33  157 1    
    69   33  158 1    
    70   34   35 am   BACKBONE|DICT|INTERRES
    71   34  159 1    
    72   35   36 2    
    73   35   37 1    
    74   37   38 1    
    75   37   39 1    
    76   37  160 1    
    77   38  161 1    
    78   38  162 1    
    79   38  163 1    
    80   39   40 am   BACKBONE|DICT|INTERRES
    81   39  164 1    
    82   40   41 2    
    83   40   42 1    
    84   42   43 1    
    85   42   44 1    
    86   42  165 1    
    87   43  166 1    
    88   43  167 1    
    89   43  168 1    
    90   44   45 am   BACKBONE|DICT|INTERRES
    91   44  169 1    
    92   45   46 2    
    93   45   47 1    
    94   47   48 1    
    95   47   49 1    
    96   47  170 1    
    97   48  171 1    
    98   48  172 1    
    99   48  173 1    
   100   49   50 am   BACKBONE|DICT|INTERRES
   101   49  174 1    
   102   50   51 2    
   103   50   52 1    
   104   52   53 1    
   105   52   54 1    
   106   52  175 1    
   107   53  176 1    
   108   53  177 1    
   109   53  178 1    
   110   54   55 am   BACKBONE|DICT|INTERRES
   111   54  179 1    
   112   55   56 2    
   113   55   57 1    
   114   57   58 1    
   115   57   59 1    
   116   57  180 1    
   117   58  181 1    
   118   58  182 1    
   119   58  183 1    
   120   59   60 am   BACKBONE|DICT|INTERRES
   121   59  184 1    
   122   60   61 2    
   123   60   62 1    
   124   62   63 1    
   125   62   64 1    
   126   62  185 1    
   127   63  186 1    
   128   63  187 1    
   129   63  188 1    
   130   64   65 am   BACKBONE|DICT|INTERRES
   131   64  189 1    
   132   65   66 2    
   133   67   68 2    
   134   67   69 am   BACKBONE|DICT|INTERRES
   135   69   70 1    
   136   69  190 1    
   137   70   71 1    
   138   70   72 1    
   139   70  191 1    
   140   71  192 1    
   141   71  193 1    
   142   71  194 1    
   143   72   73 2    
   144   72   74 am   BACKBONE|DICT|INTERRES
   145   74   75 1    
   146   74  195 1    
   147   75   76 1    
   148   75   77 1    
   149   75  196 1    
   150   76  197 1    
   151   76  198 1    
   152   76  199 1    
   153   77   78 2    
   154   77   79 am   BACKBONE|DICT|INTERRES
   155   79   80 1    
   156   79  200 1    
   157   80   81 1    
   158   80   82 1    
   159   80  201 1    
   160   81  202 1    
   161   81  203 1    
   162   81  204 1    
   163   82   83 2    
   164   82   84 am   BACKBONE|DICT|INTERRES
   165   84   85 1    
   166   84  205 1    
   167   85   86 1    
   168   85   87 1    
   169   85  206 1    
   170   86  207 1    
   171   86  208 1    
   172   86  209 1    
   173   87   88 2    
   174   87   89 am   BACKBONE|DICT|INTERRES
   175   89   90 1    
   176   89  210 1    
   177   90   91 1    
   178   90   92 1    
   179   90  211 1    
   180   91  212 1    
   181   91  213 1    
   182   91  214 1    
   183   92   93 2    
   184   92   94 am   BACKBONE|DICT|INTERRES
   185   94   95 1    
   186   94  215 1    
   187   95   96 1    
   188   95   97 1    
   189   95  216 1    
   190   96  217 1    
   191   96  218 1    
   192   96  219 1    
   193   97   98 2    
   194   97   99 am   BACKBONE|DICT|INTERRES
   195   99  100 1    
   196   99  220 1    
   197  100  101 1    
   198  100  102 1    
   199  100  221 1    
   200  101  222 1    
   201  101  223 1    
   202  101  224 1    
   203  102  103 2    
   204  102  104 am   BACKBONE|DICT|INTERRES
   205  104  105 1    
   206  104  225 1    
   207  105  106 1    
   208  105  107 1    
   209  105  226 1    
   210  106  227 1    
   211  106  228 1    
   212  106  229 1    
   213  107  108 2    
   214  107  109 am   BACKBONE|DICT|INTERRES
   215  109  110 1    
   216  109  230 1    
   217  110  111 1    
   218  110  112 1    
   219  110  231 1    
   220  111  232 1    
   221  111  233 1    
   222  111  234 1    
   223  112  113 2    
   224  112  114 am   BACKBONE|DICT|INTERRES
   225  114  115 1    
   226  114  235 1    
   227  115  116 1    
   228  115  117 1    
   229  115  236 1    
   230  116  237 1    
   231  116  238 1    
   232  116  239 1    
   233  117  118 2    
   234  117  119 am   BACKBONE|DICT|INTERRES
   235  119  120 1    
   236  119  240 1    
   237  120  121 1    
   238  120  124 1    
   239  120  241 1    
   240  121  122 am   BACKBONE|DICT|INTERRES
   241  121  123 2    
   242  122  242 1    
   243  122  243 1    
   244  124  125 1    
   245  124  244 1    
   246  124  245 1    
   247  125  126 1    
   248  126  246 1    
   249  126  247 1    
@<TRIPOS>SUBSTRUCTURE
     1 UNK         1 GROUP             0       ****    0 ROOT    
