@<TRIPOS>MOLECULE
3R540
247   249    1
SMALL
USER_CHARGES


@<TRIPOS>ATOM
      1 CA          3.9826   -8.9579  -51.5223 C.3       0 UNK        -0.1800 
      2 C           3.8191   -9.7844  -50.2544 C.2       0 UNK         0.5000 
      3 O           4.0129   -9.2645  -49.1552 O.2       0 UNK        -0.5000 
      4 N           3.4714  -11.0687  -50.4026 N.am      1 UNK        -0.5000 
      5 CA          3.2020  -11.9989  -49.3034 C.3       1 UNK         0.1400 
      6 C6          3.2122  -13.4661  -49.8031 C.3       23 UNK        -0.0398 
      7 S7          3.5511  -14.6675  -48.4735 S.3       23 UNK        -0.2404 
      8 C8          1.8728  -15.1886  -48.0071 C.3       23 UNK        -0.0205 
      9 C9          1.2933  -16.2391  -48.9407 C.ar      23 UNK        -0.0193 
     10 C10         0.4703  -15.8705  -50.0107 C.ar      23 UNK        -0.1150 
     11 C11        -0.0955  -16.8468  -50.8365 C.ar      23 UNK        -0.0193 
     12 C12         0.1472  -18.1966  -50.5698 C.ar      23 UNK        -0.1150 
     13 C13         0.9572  -18.5774  -49.4980 C.ar      23 UNK        -0.0193 
     14 C14         1.5420  -17.5922  -48.6998 C.ar      23 UNK        -0.1150 
     15 C15         1.1977  -20.0496  -49.2062 C.3       23 UNK        -0.0205 
     16 S16        -0.2146  -20.7984  -48.3327 S.3       23 UNK        -0.2404 
     17 C17         0.3557  -22.5261  -48.2231 C.3       23 UNK        -0.0398 
     18 CA         -0.0459  -23.2995  -46.9436 C.3       11 UNK         0.1400 
     19 N           0.5937  -22.8238  -45.7115 N.am      11 UNK        -0.5000 
     20 C           0.7479  -23.6155  -44.6368 C.2       10 UNK         0.5000 
     21 O           0.3704  -24.7873  -44.6008 O.2       10 UNK        -0.5000 
     22 CA          1.4047  -23.0120  -43.3846 C.3       10 UNK         0.1400 
     23 CB          2.9227  -22.8694  -43.5717 C.3       10 UNK        -0.1800 
     24 N           0.8214  -21.7301  -42.9983 N.am      10 UNK        -0.5000 
     25 C          -0.4439  -21.5587  -42.5892 C.2       9 UNK         0.5000 
     26 O          -1.2561  -22.4768  -42.4687 O.2       9 UNK        -0.5000 
     27 CA         -0.8868  -20.1102  -42.3012 C.3       9 UNK         0.1400 
     28 CB         -0.4606  -19.6738  -40.8918 C.3       9 UNK        -0.1800 
     29 N          -0.3735  -19.1549  -43.2840 N.am      9 UNK        -0.5000 
     30 C          -0.6608  -19.1929  -44.5930 C.2       8 UNK         0.5000 
     31 O          -1.4235  -20.0099  -45.1042 O.2       8 UNK        -0.5000 
     32 CA          0.0779  -18.1899  -45.4884 C.3       8 UNK         0.1400 
     33 CB         -0.5798  -16.8032  -45.4255 C.3       8 UNK        -0.1800 
     34 N           1.4966  -18.1033  -45.1421 N.am      8 UNK        -0.5000 
     35 C           2.3767  -19.1010  -45.3207 C.2       7 UNK         0.5000 
     36 O           2.0939  -20.1877  -45.8254 O.2       7 UNK        -0.5000 
     37 CA          3.8105  -18.8496  -44.8221 C.3       7 UNK         0.1400 
     38 CB          4.5946  -18.0143  -45.8463 C.3       7 UNK        -0.1800 
     39 N           3.8424  -18.1794  -43.5219 N.am      7 UNK        -0.5000 
     40 C           3.3666  -18.7012  -42.3813 C.2       6 UNK         0.5000 
     41 O           2.9059  -19.8373  -42.2898 O.2       6 UNK        -0.5000 
     42 CA          3.3526  -17.7777  -41.1480 C.3       6 UNK         0.1400 
     43 CB          4.6602  -17.9162  -40.3547 C.3       6 UNK        -0.1800 
     44 N           3.1376  -16.3689  -41.4904 N.am      6 UNK        -0.5000 
     45 C           2.0372  -15.8926  -42.0879 C.2       5 UNK         0.5000 
     46 O           1.0692  -16.5941  -42.3934 O.2       5 UNK        -0.5000 
     47 CA          2.0796  -14.4041  -42.4783 C.3       5 UNK         0.1400 
     48 CB          2.8710  -14.2314  -43.7852 C.3       5 UNK        -0.1800 
     49 N           0.7481  -13.8177  -42.6422 N.am      5 UNK        -0.5000 
     50 C          -0.1116  -13.5995  -41.6346 C.2       4 UNK         0.5000 
     51 O           0.1428  -13.8762  -40.4608 O.2       4 UNK        -0.5000 
     52 CA         -1.4620  -12.9252  -41.9593 C.3       4 UNK         0.1400 
     53 CB         -1.5563  -11.5515  -41.2740 C.3       4 UNK        -0.1800 
     54 N          -1.6842  -12.7356  -43.3919 N.am      4 UNK        -0.5000 
     55 C          -2.2423  -13.6326  -44.2143 C.2       3 UNK         0.5000 
     56 O          -2.6971  -14.7123  -43.8373 O.2       3 UNK        -0.5000 
     57 CA         -2.3030  -13.2632  -45.7130 C.3       3 UNK         0.1400 
     58 CB         -3.7335  -12.8700  -46.1123 C.3       3 UNK        -0.1800 
     59 N          -1.3879  -12.1831  -46.1052 N.am      3 UNK        -0.5000 
     60 C          -0.0528  -12.2770  -46.0887 C.2       2 UNK         0.5000 
     61 O           0.5495  -13.2774  -45.6988 O.2       2 UNK        -0.5000 
     62 CA          0.7386  -11.0251  -46.4982 C.3       2 UNK         0.1400 
     63 CB          1.2083  -10.2675  -45.2463 C.3       2 UNK        -0.1800 
     64 N           1.9059  -11.3794  -47.3045 N.am      2 UNK        -0.5000 
     65 C           1.8675  -11.6280  -48.6192 C.2       1 UNK         0.5000 
     66 O           0.8381  -11.5671  -49.2963 O.2       1 UNK        -0.5000 
     67 C          -1.5693  -23.4839  -46.7892 C.2       11 UNK         0.5000 
     68 O          -2.1145  -24.4047  -47.4002 O.2       11 UNK        -0.5000 
     69 N          -2.2315  -22.6704  -45.9506 N.am      12 UNK        -0.5000 
     70 CA         -3.6565  -22.7921  -45.6137 C.3       12 UNK         0.1400 
     71 CB         -4.1007  -21.6081  -44.7436 C.3       12 UNK        -0.1800 
     72 C          -4.0258  -24.1242  -44.9383 C.2       12 UNK         0.5000 
     73 O          -5.1337  -24.6190  -45.1469 O.2       12 UNK        -0.5000 
     74 N          -3.0860  -24.6991  -44.1769 N.am      13 UNK        -0.5000 
     75 CA         -3.2175  -26.0245  -43.5723 C.3       13 UNK         0.1400 
     76 CB         -2.1569  -26.1796  -42.4717 C.3       13 UNK        -0.1800 
     77 C          -3.1111  -27.1721  -44.5990 C.2       13 UNK         0.5000 
     78 O          -3.5946  -28.2698  -44.3189 O.2       13 UNK        -0.5000 
     79 N          -2.4823  -26.9103  -45.7537 N.am      14 UNK        -0.5000 
     80 CA         -2.2937  -27.8708  -46.8365 C.3       14 UNK         0.1400 
     81 CB         -0.9155  -27.6518  -47.4863 C.3       14 UNK        -0.1800 
     82 C          -3.4307  -27.7780  -47.8682 C.2       14 UNK         0.5000 
     83 O          -4.1742  -28.7463  -48.0331 O.2       14 UNK        -0.5000 
     84 N          -3.5392  -26.6305  -48.5532 N.am      15 UNK        -0.5000 
     85 CA         -4.4657  -26.4220  -49.6751 C.3       15 UNK         0.1400 
     86 CB         -3.9333  -27.1469  -50.9295 C.3       15 UNK        -0.1800 
     87 C          -4.7458  -24.9389  -49.9903 C.2       15 UNK         0.5000 
     88 O          -5.4547  -24.6600  -50.9600 O.2       15 UNK        -0.5000 
     89 N          -4.1641  -24.0091  -49.2169 N.am      16 UNK        -0.5000 
     90 CA         -4.2323  -22.5504  -49.3810 C.3       16 UNK         0.1400 
     91 CB         -5.6565  -22.0313  -49.0912 C.3       16 UNK        -0.1800 
     92 C          -3.6791  -22.0679  -50.7349 C.2       16 UNK         0.5000 
     93 O          -4.2028  -21.1088  -51.3005 O.2       16 UNK        -0.5000 
     94 N          -2.6480  -22.7655  -51.2385 N.am      17 UNK        -0.5000 
     95 CA         -1.9977  -22.5519  -52.5359 C.3       17 UNK         0.1400 
     96 CB         -1.1683  -21.2572  -52.5069 C.3       17 UNK        -0.1800 
     97 C          -3.0061  -22.6123  -53.7026 C.2       17 UNK         0.5000 
     98 O          -3.1085  -21.6724  -54.4960 O.2       17 UNK        -0.5000 
     99 N          -3.7501  -23.7271  -53.7363 N.am      18 UNK        -0.5000 
    100 CA        -4.8528  -24.0416  -54.6455 C.3       18 UNK         0.1400 
    101 CB        -4.3861  -24.0661  -56.1172 C.3       18 UNK        -0.1800 
    102 C         -6.0756  -23.1380  -54.3984 C.2       18 UNK         0.5000 
    103 O         -6.5429  -22.4611  -55.3141 O.2       18 UNK        -0.5000 
    104 N         -6.5751  -23.1595  -53.1535 N.am      19 UNK        -0.5000 
    105 CA        -7.8043  -22.5061  -52.6892 C.3       19 UNK         0.1400 
    106 CB        -9.0419  -23.1744  -53.3250 C.3       19 UNK        -0.1800 
    107 C         -7.7876  -20.9732  -52.8651 C.2       19 UNK         0.5000 
    108 O         -8.7319  -20.3987  -53.4099 O.2       19 UNK        -0.5000 
    109 N         -6.6999  -20.3460  -52.3971 N.am      20 UNK        -0.5000 
    110 CA        -6.4230  -18.9058  -52.3998 C.3       20 UNK         0.1400 
    111 CB        -7.5039  -18.1158  -51.6316 C.3       20 UNK        -0.1800 
    112 C         -6.1254  -18.3195  -53.7948 C.2       20 UNK         0.5000 
    113 O         -6.1270  -17.0968  -53.9482 O.2       20 UNK        -0.5000 
    114 N         -5.8258  -19.1794  -54.7797 N.am      21 UNK        -0.5000 
    115 CA        -5.3542  -18.7751  -56.1073 C.3       21 UNK         0.1400 
    116 CB        -5.4778  -19.9604  -57.0747 C.3       21 UNK        -0.1800 
    117 C         -3.9042  -18.2520  -56.0897 C.2       21 UNK         0.5000 
    118 O         -3.5260  -17.4921  -56.9822 O.2       21 UNK        -0.5000 
    119 N         -3.1288  -18.6624  -55.0769 N.am      22 UNK        -0.5000 
    120 CA        -1.7002  -18.3652  -54.9086 C.3       22 UNK         0.1400 
    121 C         -0.7995  -19.1165  -55.9348 C.2       22 UNK         0.5000 
    122 N         -1.1389  -20.3524  -56.2841 N.am      22 UNK        -0.7600 
    123 O          0.2047  -18.5973  -56.4145 O.2       22 UNK        -0.5000 
    124 C124       -1.4084  -16.8427  -54.7585 C.3       23 UNK        -0.0398 
    125 S125       -0.0559  -16.5197  -53.5761 S.3       23 UNK        -0.2404 
    126 C126       -0.9820  -16.4600  -52.0093 C.3       23 UNK        -0.0205 
    127 H127        4.9975   -8.5653  -51.5862 H         1 UNK         0.0600 
    128 H128        3.2902   -8.1162  -51.5131 H         1 UNK         0.0600 
    129 H129        3.7892   -9.5474  -52.4189 H         1 UNK         0.0600 
    130 H130        3.2962  -11.4252  -51.3312 H         1 UNK         0.3000 
    131 H131        4.0126  -11.8814  -48.5803 H         1 UNK         0.0600 
    132 H132        4.0135  -13.5968  -50.5319 H         1 UNK         0.0800 
    133 H133        2.2954  -13.7189  -50.3355 H         1 UNK         0.0800 
    134 H134        1.2078  -14.3280  -47.9670 H         1 UNK         0.0800 
    135 H135        1.9167  -15.5832  -46.9919 H         1 UNK         0.0800 
    136 H136        0.2632  -14.8264  -50.1977 H         1 UNK         0.1150 
    137 H137       -0.2994  -18.9522  -51.1970 H         1 UNK         0.1150 
    138 H138        2.1778  -17.8780  -47.8762 H         1 UNK         0.1150 
    139 H139        1.3740  -20.5828  -50.1413 H         1 UNK         0.0800 
    140 H140        2.0997  -20.1729  -48.6047 H         1 UNK         0.0800 
    141 H141       -0.0147  -23.0516  -49.1050 H         1 UNK         0.0800 
    142 H142        1.4428  -22.5447  -48.3110 H         1 UNK         0.0800 
    143 H143        0.3381  -24.3090  -47.1099 H         1 UNK         0.0600 
    144 H144        0.9333  -21.8661  -45.6980 H         1 UNK         0.3000 
    145 H145        1.2371  -23.7083  -42.5601 H         1 UNK         0.0600 
    146 H146        3.4036  -22.5434  -42.6494 H         1 UNK         0.0600 
    147 H147        3.1700  -22.1484  -44.3503 H         1 UNK         0.0600 
    148 H148        3.3727  -23.8224  -43.8523 H         1 UNK         0.0600 
    149 H149        1.4445  -20.9285  -43.0098 H         1 UNK         0.3000 
    150 H150       -1.9770  -20.0803  -42.3508 H         1 UNK         0.0600 
    151 H151       -0.8831  -20.3361  -40.1353 H         1 UNK         0.0600 
    152 H152       -0.8046  -18.6632  -40.6702 H         1 UNK         0.0600 
    153 H153        0.6227  -19.6917  -40.7742 H         1 UNK         0.0600 
    154 H154        0.2450  -18.4257  -42.9448 H         1 UNK         0.3000 
    155 H155       -0.0013  -18.5461  -46.5155 H         1 UNK         0.0600 
    156 H156       -1.6441  -16.8691  -45.6542 H         1 UNK         0.0600 
    157 H157       -0.1425  -16.1177  -46.1482 H         1 UNK         0.0600 
    158 H158       -0.4886  -16.3508  -44.4390 H         1 UNK         0.0600 
    159 H159        1.7913  -17.2729  -44.6511 H         1 UNK         0.3000 
    160 H160        4.3037  -19.8181  -44.7165 H         1 UNK         0.0600 
    161 H161        4.1632  -17.0205  -45.9756 H         1 UNK         0.0600 
    162 H162        4.5980  -18.4987  -46.8237 H         1 UNK         0.0600 
    163 H163        5.6342  -17.8918  -45.5423 H         1 UNK         0.0600 
    164 H164        4.2125  -17.2413  -43.5012 H         1 UNK         0.3000 
    165 H165        2.5279  -18.0951  -40.5069 H         1 UNK         0.0600 
    166 H166        4.6292  -17.3285  -39.4371 H         1 UNK         0.0600 
    167 H167        4.8340  -18.9544  -40.0682 H         1 UNK         0.0600 
    168 H168        5.5222  -17.5875  -40.9365 H         1 UNK         0.0600 
    169 H169        3.8943  -15.7349  -41.2770 H         1 UNK         0.3000 
    170 H170        2.5928  -13.8539  -41.6870 H         1 UNK         0.0600 
    171 H171        2.4297  -14.8044  -44.6014 H         1 UNK         0.0600 
    172 H172        2.9066  -13.1860  -44.0919 H         1 UNK         0.0600 
    173 H173        3.9020  -14.5677  -43.6712 H         1 UNK         0.0600 
    174 H174        0.4651  -13.6084  -43.5920 H         1 UNK         0.3000 
    175 H175       -2.2493  -13.5622  -41.5509 H         1 UNK         0.0600 
    176 H176       -0.7806  -10.8712  -41.6278 H         1 UNK         0.0600 
    177 H177       -2.5236  -11.0840  -41.4593 H         1 UNK         0.0600 
    178 H178       -1.4449  -11.6426  -40.1927 H         1 UNK         0.0600 
    179 H179       -1.3481  -11.8716  -43.7898 H         1 UNK         0.3000 
    180 H180       -2.0257  -14.1572  -46.2757 H         1 UNK         0.0600 
    181 H181       -4.0618  -11.9678  -45.5947 H         1 UNK         0.0600 
    182 H182       -4.4406  -13.6640  -45.8681 H         1 UNK         0.0600 
    183 H183       -3.8089  -12.6898  -47.1848 H         1 UNK         0.0600 
    184 H184       -1.8173  -11.3244  -46.4189 H         1 UNK         0.3000 
    185 H185        0.0906  -10.3637  -47.0777 H         1 UNK         0.0600 
    186 H186        1.8569  -10.8823  -44.6207 H         1 UNK         0.0600 
    187 H187        1.7593   -9.3661  -45.5155 H         1 UNK         0.0600 
    188 H188        0.3605   -9.9576  -44.6342 H         1 UNK         0.0600 
    189 H189        2.7774  -11.4854  -46.8064 H         1 UNK         0.3000 
    190 H190       -1.7378  -21.8865  -45.5309 H         1 UNK         0.3000 
    191 H191       -4.2250  -22.7477  -46.5405 H         1 UNK         0.0600 
    192 H192       -3.9962  -20.6654  -45.2804 H         1 UNK         0.0600 
    193 H193       -3.5160  -21.5422  -43.8261 H         1 UNK         0.0600 
    194 H194       -5.1498  -21.7002  -44.4594 H         1 UNK         0.0600 
    195 H195       -2.2100  -24.2139  -44.0313 H         1 UNK         0.3000 
    196 H196       -4.2018  -26.0919  -43.1042 H         1 UNK         0.0600 
    197 H197       -2.2409  -25.3876  -41.7272 H         1 UNK         0.0600 
    198 H198       -1.1461  -26.1505  -42.8787 H         1 UNK         0.0600 
    199 H199       -2.2723  -27.1306  -41.9503 H         1 UNK         0.0600 
    200 H200       -2.1566  -25.9684  -45.9250 H         1 UNK         0.3000 
    201 H201       -2.2984  -28.8848  -46.4307 H         1 UNK         0.0600 
    202 H202       -0.1151  -27.8000  -46.7611 H         1 UNK         0.0600 
    203 H203       -0.8036  -26.6500  -47.8998 H         1 UNK         0.0600 
    204 H204       -0.7523  -28.3608  -48.2988 H         1 UNK         0.0600 
    205 H205       -2.9057  -25.8724  -48.3218 H         1 UNK         0.3000 
    206 H206       -5.4321  -26.8547  -49.4088 H         1 UNK         0.0600 
    207 H207       -3.8358  -28.2193  -50.7616 H         1 UNK         0.0600 
    208 H208       -2.9553  -26.7655  -51.2246 H         1 UNK         0.0600 
    209 H209       -4.6062  -27.0218  -51.7788 H         1 UNK         0.0600 
    210 H210       -3.5625  -24.3139  -48.4577 H         1 UNK         0.3000 
    211 H211       -3.5653  -22.1165  -48.6364 H         1 UNK         0.0600 
    212 H212       -6.3706  -22.3715  -49.8394 H         1 UNK         0.0600 
    213 H213       -5.6842  -20.9410  -49.0847 H         1 UNK         0.0600 
    214 H214       -6.0116  -22.3691  -48.1180 H         1 UNK         0.0600 
    215 H215       -2.3061  -23.5465  -50.6984 H         1 UNK         0.3000 
    216 H216       -1.3048  -23.3813  -52.6842 H         1 UNK         0.0600 
    217 H217       -0.6329  -21.1112  -53.4451 H         1 UNK         0.0600 
    218 H218       -0.4242  -21.2934  -51.7121 H         1 UNK         0.0600 
    219 H219       -1.7989  -20.3854  -52.3363 H         1 UNK         0.0600 
    220 H220       -3.6038  -24.4010  -52.9987 H         1 UNK         0.3000 
    221 H221       -5.1717  -25.0546  -54.3952 H         1 UNK         0.0600 
    222 H222       -4.0803  -23.0818  -56.4707 H         1 UNK         0.0600 
    223 H223       -3.5448  -24.7457  -56.2517 H         1 UNK         0.0600 
    224 H224       -5.1882  -24.4090  -56.7716 H         1 UNK         0.0600 
    225 H225       -6.1010  -23.7248  -52.4517 H         1 UNK         0.3000 
    226 H226       -7.8602  -22.6883  -51.6158 H         1 UNK         0.0600 
    227 H227       -9.0440  -24.2495  -53.1460 H         1 UNK         0.0600 
    228 H228       -9.9633  -22.7742  -52.9004 H         1 UNK         0.0600 
    229 H229       -9.0821  -23.0137  -54.4028 H         1 UNK         0.0600 
    230 H230       -5.9420  -20.9034  -52.0097 H         1 UNK         0.3000 
    231 H231       -5.4939  -18.7917  -51.8401 H         1 UNK         0.0600 
    232 H232       -7.1928  -17.0827  -51.4726 H         1 UNK         0.0600 
    233 H233       -7.6876  -18.5514  -50.6494 H         1 UNK         0.0600 
    234 H234       -8.4505  -18.0882  -52.1713 H         1 UNK         0.0600 
    235 H235       -5.8710  -20.1728  -54.5946 H         1 UNK         0.3000 
    236 H236       -5.9947  -17.9697  -56.4726 H         1 UNK         0.0600 
    237 H237       -4.8486  -20.7952  -56.7646 H         1 UNK         0.0600 
    238 H238       -6.5061  -20.3173  -57.1338 H         1 UNK         0.0600 
    239 H239       -5.1729  -19.6769  -58.0827 H         1 UNK         0.0600 
    240 H240       -3.5104  -19.3526  -54.4440 H         1 UNK         0.3000 
    241 H241       -1.4533  -18.8259  -53.9548 H         1 UNK         0.0600 
    242 H242       -0.5739  -20.8564  -56.9485 H         1 UNK         0.3800 
    243 H243       -1.9366  -20.8048  -55.8483 H         1 UNK         0.3800 
    244 H244       -2.2943  -16.3142  -54.4033 H         1 UNK         0.0800 
    245 H245       -1.1661  -16.3895  -55.7210 H         1 UNK         0.0800 
    246 H246       -1.8332  -17.1416  -52.0511 H         1 UNK         0.0800 
    247 H247       -1.3948  -15.4596  -51.8708 H         1 UNK         0.0800 
@<TRIPOS>BOND
     1    1    2 1    
     2    1  127 1    
     3    1  128 1    
     4    1  129 1    
     5    2    3 2    
     6    2    4 am   BACKBONE|DICT|INTERRES
     7    4    5 1    
     8    4  130 1    
     9    5    6 1    
    10    5   65 1    
    11    5  131 1    
    12    6    7 1    
    13    6  132 1    
    14    6  133 1    
    15    7    8 1    
    16    8    9 1    
    17    8  134 1    
    18    8  135 1    
    19    9   10 ar   
    20    9   14 ar   
    21   10   11 ar   
    22   10  136 1    
    23   11   12 ar   
    24   11  126 1    
    25   12   13 ar   
    26   12  137 1    
    27   13   14 ar   
    28   13   15 1    
    29   14  138 1    
    30   15   16 1    
    31   15  139 1    
    32   15  140 1    
    33   16   17 1    
    34   17   18 1    
    35   17  141 1    
    36   17  142 1    
    37   18   19 1    
    38   18   67 1    
    39   18  143 1    
    40   19   20 am   BACKBONE|DICT|INTERRES
    41   19  144 1    
    42   20   21 2    
    43   20   22 1    
    44   22   23 1    
    45   22   24 1    
    46   22  145 1    
    47   23  146 1    
    48   23  147 1    
    49   23  148 1    
    50   24   25 am   BACKBONE|DICT|INTERRES
    51   24  149 1    
    52   25   26 2    
    53   25   27 1    
    54   27   28 1    
    55   27   29 1    
    56   27  150 1    
    57   28  151 1    
    58   28  152 1    
    59   28  153 1    
    60   29   30 am   BACKBONE|DICT|INTERRES
    61   29  154 1    
    62   30   31 2    
    63   30   32 1    
    64   32   33 1    
    65   32   34 1    
    66   32  155 1    
    67   33  156 1    
    68   33  157 1    
    69   33  158 1    
    70   34   35 am   BACKBONE|DICT|INTERRES
    71   34  159 1    
    72   35   36 2    
    73   35   37 1    
    74   37   38 1    
    75   37   39 1    
    76   37  160 1    
    77   38  161 1    
    78   38  162 1    
    79   38  163 1    
    80   39   40 am   BACKBONE|DICT|INTERRES
    81   39  164 1    
    82   40   41 2    
    83   40   42 1    
    84   42   43 1    
    85   42   44 1    
    86   42  165 1    
    87   43  166 1    
    88   43  167 1    
    89   43  168 1    
    90   44   45 am   BACKBONE|DICT|INTERRES
    91   44  169 1    
    92   45   46 2    
    93   45   47 1    
    94   47   48 1    
    95   47   49 1    
    96   47  170 1    
    97   48  171 1    
    98   48  172 1    
    99   48  173 1    
   100   49   50 am   BACKBONE|DICT|INTERRES
   101   49  174 1    
   102   50   51 2    
   103   50   52 1    
   104   52   53 1    
   105   52   54 1    
   106   52  175 1    
   107   53  176 1    
   108   53  177 1    
   109   53  178 1    
   110   54   55 am   BACKBONE|DICT|INTERRES
   111   54  179 1    
   112   55   56 2    
   113   55   57 1    
   114   57   58 1    
   115   57   59 1    
   116   57  180 1    
   117   58  181 1    
   118   58  182 1    
   119   58  183 1    
   120   59   60 am   BACKBONE|DICT|INTERRES
   121   59  184 1    
   122   60   61 2    
   123   60   62 1    
   124   62   63 1    
   125   62   64 1    
   126   62  185 1    
   127   63  186 1    
   128   63  187 1    
   129   63  188 1    
   130   64   65 am   BACKBONE|DICT|INTERRES
   131   64  189 1    
   132   65   66 2    
   133   67   68 2    
   134   67   69 am   BACKBONE|DICT|INTERRES
   135   69   70 1    
   136   69  190 1    
   137   70   71 1    
   138   70   72 1    
   139   70  191 1    
   140   71  192 1    
   141   71  193 1    
   142   71  194 1    
   143   72   73 2    
   144   72   74 am   BACKBONE|DICT|INTERRES
   145   74   75 1    
   146   74  195 1    
   147   75   76 1    
   148   75   77 1    
   149   75  196 1    
   150   76  197 1    
   151   76  198 1    
   152   76  199 1    
   153   77   78 2    
   154   77   79 am   BACKBONE|DICT|INTERRES
   155   79   80 1    
   156   79  200 1    
   157   80   81 1    
   158   80   82 1    
   159   80  201 1    
   160   81  202 1    
   161   81  203 1    
   162   81  204 1    
   163   82   83 2    
   164   82   84 am   BACKBONE|DICT|INTERRES
   165   84   85 1    
   166   84  205 1    
   167   85   86 1    
   168   85   87 1    
   169   85  206 1    
   170   86  207 1    
   171   86  208 1    
   172   86  209 1    
   173   87   88 2    
   174   87   89 am   BACKBONE|DICT|INTERRES
   175   89   90 1    
   176   89  210 1    
   177   90   91 1    
   178   90   92 1    
   179   90  211 1    
   180   91  212 1    
   181   91  213 1    
   182   91  214 1    
   183   92   93 2    
   184   92   94 am   BACKBONE|DICT|INTERRES
   185   94   95 1    
   186   94  215 1    
   187   95   96 1    
   188   95   97 1    
   189   95  216 1    
   190   96  217 1    
   191   96  218 1    
   192   96  219 1    
   193   97   98 2    
   194   97   99 am   BACKBONE|DICT|INTERRES
   195   99  100 1    
   196   99  220 1    
   197  100  101 1    
   198  100  102 1    
   199  100  221 1    
   200  101  222 1    
   201  101  223 1    
   202  101  224 1    
   203  102  103 2    
   204  102  104 am   BACKBONE|DICT|INTERRES
   205  104  105 1    
   206  104  225 1    
   207  105  106 1    
   208  105  107 1    
   209  105  226 1    
   210  106  227 1    
   211  106  228 1    
   212  106  229 1    
   213  107  108 2    
   214  107  109 am   BACKBONE|DICT|INTERRES
   215  109  110 1    
   216  109  230 1    
   217  110  111 1    
   218  110  112 1    
   219  110  231 1    
   220  111  232 1    
   221  111  233 1    
   222  111  234 1    
   223  112  113 2    
   224  112  114 am   BACKBONE|DICT|INTERRES
   225  114  115 1    
   226  114  235 1    
   227  115  116 1    
   228  115  117 1    
   229  115  236 1    
   230  116  237 1    
   231  116  238 1    
   232  116  239 1    
   233  117  118 2    
   234  117  119 am   BACKBONE|DICT|INTERRES
   235  119  120 1    
   236  119  240 1    
   237  120  121 1    
   238  120  124 1    
   239  120  241 1    
   240  121  122 am   BACKBONE|DICT|INTERRES
   241  121  123 2    
   242  122  242 1    
   243  122  243 1    
   244  124  125 1    
   245  124  244 1    
   246  124  245 1    
   247  125  126 1    
   248  126  246 1    
   249  126  247 1    
@<TRIPOS>SUBSTRUCTURE
     1 UNK         1 GROUP             0       ****    0 ROOT    
