@<TRIPOS>MOLECULE
3R540
247   249    1
SMALL
USER_CHARGES


@<TRIPOS>ATOM
      1 CA         -2.3315  -16.1627  -46.6688 C.3       0 UNK        -0.1800 
      2 C          -1.3824  -15.1552  -47.3004 C.2       0 UNK         0.5000 
      3 O          -1.0911  -14.1279  -46.6926 O.2       0 UNK        -0.5000 
      4 N          -0.9264  -15.4308  -48.5292 N.am      1 UNK        -0.5000 
      5 CA         -0.0236  -14.5853  -49.3311 C.3       1 UNK         0.1400 
      6 C6          1.4130  -14.4592  -48.7436 C.3       23 UNK        -0.0398 
      7 S7          2.2132  -16.0467  -48.3368 S.3       23 UNK        -0.2404 
      8 C8          2.5786  -16.7292  -49.9855 C.3       23 UNK        -0.0205 
      9 C9          2.0072  -18.1315  -50.0937 C.ar      23 UNK        -0.0193 
     10 C10         0.6415  -18.3108  -50.3274 C.ar      23 UNK        -0.1150 
     11 C11         0.0809  -19.5889  -50.3036 C.ar      23 UNK        -0.0193 
     12 C12         0.9020  -20.6962  -50.0938 C.ar      23 UNK        -0.1150 
     13 C13         2.2722  -20.5316  -49.8730 C.ar      23 UNK        -0.0193 
     14 C14         2.8230  -19.2472  -49.8836 C.ar      23 UNK        -0.1150 
     15 C15         3.1331  -21.7375  -49.5311 C.3       23 UNK        -0.0205 
     16 S16         3.5230  -21.8228  -47.7488 S.3       23 UNK        -0.2404 
     17 C17         1.8775  -21.6643  -46.9742 C.3       23 UNK        -0.0398 
     18 CA          1.1508  -23.0195  -46.8315 C.3       11 UNK         0.1400 
     19 N           1.7535  -23.8484  -45.7872 N.am      11 UNK        -0.5000 
     20 C           1.4463  -25.1268  -45.5364 C.2       10 UNK         0.5000 
     21 O           0.6390  -25.7823  -46.1956 O.2       10 UNK        -0.5000 
     22 CA          2.1322  -25.7581  -44.3107 C.3       10 UNK         0.1400 
     23 CB          3.5257  -26.2858  -44.6828 C.3       10 UNK        -0.1800 
     24 N           2.2505  -24.8199  -43.1901 N.am      10 UNK        -0.5000 
     25 C           1.2087  -24.3576  -42.4838 C.2       9 UNK         0.5000 
     26 O           0.0424  -24.6897  -42.6924 O.2       9 UNK        -0.5000 
     27 CA          1.5166  -23.3122  -41.3940 C.3       9 UNK         0.1400 
     28 CB          2.0366  -23.9935  -40.1192 C.3       9 UNK        -0.1800 
     29 N           2.4651  -22.2751  -41.8171 N.am      9 UNK        -0.5000 
     30 C           2.2677  -21.4454  -42.8499 C.2       8 UNK         0.5000 
     31 O           1.2892  -21.5173  -43.5955 O.2       8 UNK        -0.5000 
     32 CA          3.3625  -20.3942  -43.1222 C.3       8 UNK         0.1400 
     33 CB          4.5835  -21.0543  -43.7827 C.3       8 UNK        -0.1800 
     34 N           2.8773  -19.3272  -44.0015 N.am      8 UNK        -0.5000 
     35 C           1.9854  -18.3937  -43.6465 C.2       7 UNK         0.5000 
     36 O           1.5833  -18.2337  -42.4906 O.2       7 UNK        -0.5000 
     37 CA          1.4243  -17.5273  -44.7884 C.3       7 UNK         0.1400 
     38 CB          0.2710  -18.2571  -45.4969 C.3       7 UNK        -0.1800 
     39 N           0.9433  -16.2422  -44.2807 N.am      7 UNK        -0.5000 
     40 C           1.7149  -15.1655  -44.0941 C.2       6 UNK         0.5000 
     41 O           2.8915  -15.1136  -44.4586 O.2       6 UNK        -0.5000 
     42 CA          1.0857  -13.9582  -43.3580 C.3       6 UNK         0.1400 
     43 CB          1.9336  -12.6800  -43.4904 C.3       6 UNK        -0.1800 
     44 N          -0.2824  -13.6449  -43.7749 N.am      6 UNK        -0.5000 
     45 C          -1.3953  -14.2823  -43.3864 C.2       5 UNK         0.5000 
     46 O          -1.3766  -15.2989  -42.6903 O.2       5 UNK        -0.5000 
     47 CA         -2.7467  -13.6935  -43.8597 C.3       5 UNK         0.1400 
     48 CB         -3.9259  -14.0883  -42.9459 C.3       5 UNK        -0.1800 
     49 N          -2.7072  -12.2418  -44.0725 N.am      5 UNK        -0.5000 
     50 C          -2.4448  -11.2984  -43.1563 C.2       4 UNK         0.5000 
     51 O          -2.2875  -11.5388  -41.9580 O.2       4 UNK        -0.5000 
     52 CA         -2.3394   -9.8394  -43.6557 C.3       4 UNK         0.1400 
     53 CB         -1.2788   -9.0407  -42.8687 C.3       4 UNK        -0.1800 
     54 N          -2.1149   -9.6700  -45.1002 N.am      4 UNK        -0.5000 
     55 C          -1.0828  -10.1229  -45.8268 C.2       3 UNK         0.5000 
     56 O          -0.2479  -10.9299  -45.4139 O.2       3 UNK        -0.5000 
     57 CA         -0.9573   -9.5509  -47.2505 C.3       3 UNK         0.1400 
     58 CB          0.4841   -9.1037  -47.5451 C.3       3 UNK        -0.1800 
     59 N          -1.3638  -10.5147  -48.2658 N.am      3 UNK        -0.5000 
     60 C          -2.6167  -10.8788  -48.5552 C.2       2 UNK         0.5000 
     61 O          -3.6029  -10.4426  -47.9604 O.2       2 UNK        -0.5000 
     62 CA         -2.8084  -11.8894  -49.7083 C.3       2 UNK         0.1400 
     63 CB         -2.6698  -11.2086  -51.0828 C.3       2 UNK        -0.1800 
     64 N          -1.9626  -13.0853  -49.6178 N.am      2 UNK        -0.5000 
     65 C          -0.6246  -13.1924  -49.6489 C.2       1 UNK         0.5000 
     66 O           0.1260  -12.2452  -49.8909 O.2       1 UNK        -0.5000 
     67 C          -0.3533  -22.8078  -46.5781 C.2       11 UNK         0.5000 
     68 O          -1.1553  -23.0176  -47.4866 O.2       11 UNK        -0.5000 
     69 N          -0.7072  -22.4415  -45.3395 N.am      12 UNK        -0.5000 
     70 CA         -2.0828  -22.2478  -44.8853 C.3       12 UNK         0.1400 
     71 CB         -2.0648  -21.6063  -43.4900 C.3       12 UNK        -0.1800 
     72 C          -2.9096  -23.5477  -44.8805 C.2       12 UNK         0.5000 
     73 O          -4.1103  -23.4948  -45.1447 O.2       12 UNK        -0.5000 
     74 N          -2.2610  -24.6869  -44.5970 N.am      13 UNK        -0.5000 
     75 CA         -2.8661  -26.0178  -44.6589 C.3       13 UNK         0.1400 
     76 CB         -1.9545  -27.0382  -43.9606 C.3       13 UNK        -0.1800 
     77 C          -3.1788  -26.4582  -46.1012 C.2       13 UNK         0.5000 
     78 O          -4.2458  -27.0257  -46.3394 O.2       13 UNK        -0.5000 
     79 N          -2.2562  -26.1841  -47.0352 N.am      14 UNK        -0.5000 
     80 CA         -2.4322  -26.4404  -48.4665 C.3       14 UNK         0.1400 
     81 CB         -1.0746  -26.3344  -49.1758 C.3       14 UNK        -0.1800 
     82 C          -3.4581  -25.4882  -49.1077 C.2       14 UNK         0.5000 
     83 O          -4.3011  -25.9323  -49.8887 O.2       14 UNK        -0.5000 
     84 N          -3.3717  -24.2011  -48.7464 N.am      15 UNK        -0.5000 
     85 CA         -4.2284  -23.0967  -49.1699 C.3       15 UNK         0.1400 
     86 CB         -5.6157  -23.2050  -48.4990 C.3       15 UNK        -0.1800 
     87 C          -4.2751  -22.9582  -50.7054 C.2       15 UNK         0.5000 
     88 O          -3.2216  -22.8229  -51.3295 O.2       15 UNK        -0.5000 
     89 N          -5.4796  -23.0186  -51.2898 N.am      16 UNK        -0.5000 
     90 CA         -5.7515  -22.8851  -52.7235 C.3       16 UNK         0.1400 
     91 CB         -7.2689  -22.9605  -52.9488 C.3       16 UNK        -0.1800 
     92 C          -5.0219  -23.9066  -53.6193 C.2       16 UNK         0.5000 
     93 O          -4.8104  -23.6229  -54.7988 O.2       16 UNK        -0.5000 
     94 N          -4.6322  -25.0592  -53.0533 N.am      17 UNK        -0.5000 
     95 CA         -3.8175  -26.0700  -53.7288 C.3       17 UNK         0.1400 
     96 CB         -3.8760  -27.3866  -52.9395 C.3       17 UNK        -0.1800 
     97 C          -2.3546  -25.6258  -53.9268 C.2       17 UNK         0.5000 
     98 O          -1.7057  -26.1087  -54.8557 O.2       17 UNK        -0.5000 
     99 N          -1.8626  -24.7228  -53.0663 N.am      18 UNK        -0.5000 
    100 CA        -0.5385  -24.1189  -53.1780 C.3       18 UNK         0.1400 
    101 CB         0.0363  -23.8460  -51.7805 C.3       18 UNK        -0.1800 
    102 C         -0.5915  -22.8418  -54.0302 C.2       18 UNK         0.5000 
    103 O          0.1804  -22.7305  -54.9839 O.2       18 UNK        -0.5000 
    104 N         -1.5081  -21.9189  -53.7046 N.am      19 UNK        -0.5000 
    105 CA        -1.7216  -20.6778  -54.4481 C.3       19 UNK         0.1400 
    106 CB        -0.5680  -19.6842  -54.2019 C.3       19 UNK        -0.1800 
    107 C         -3.0611  -20.0413  -54.0595 C.2       19 UNK         0.5000 
    108 O         -3.4954  -20.1620  -52.9131 O.2       19 UNK        -0.5000 
    109 N         -3.6643  -19.3127  -55.0077 N.am      20 UNK        -0.5000 
    110 CA        -4.9315  -18.5920  -54.8391 C.3       20 UNK         0.1400 
    111 CB        -5.4102  -18.0977  -56.2124 C.3       20 UNK        -0.1800 
    112 C         -4.8620  -17.4190  -53.8390 C.2       20 UNK         0.5000 
    113 O         -5.8988  -17.0057  -53.3191 O.2       20 UNK        -0.5000 
    114 N         -3.6466  -16.9294  -53.5514 N.am      21 UNK        -0.5000 
    115 CA        -3.3493  -15.8701  -52.5801 C.3       21 UNK         0.1400 
    116 CB        -1.8613  -15.5074  -52.6968 C.3       21 UNK        -0.1800 
    117 C         -3.7081  -16.2231  -51.1192 C.2       21 UNK         0.5000 
    118 O         -3.7577  -15.3279  -50.2750 O.2       21 UNK        -0.5000 
    119 N         -3.9491  -17.5102  -50.8480 N.am      22 UNK        -0.5000 
    120 CA        -4.5081  -18.0224  -49.5903 C.3       22 UNK         0.1400 
    121 C         -6.0646  -17.9708  -49.5329 C.2       22 UNK         0.5000 
    122 N         -6.7738  -17.5953  -50.5916 N.am      22 UNK        -0.7600 
    123 O         -6.6463  -18.2676  -48.4936 O.2       22 UNK        -0.5000 
    124 C124       -3.9874  -19.4510  -49.2992 C.3       23 UNK        -0.0398 
    125 S125       -2.2258  -19.4699  -48.8341 S.3       23 UNK        -0.2404 
    126 C126       -1.4193  -19.7618  -50.4355 C.3       23 UNK        -0.0205 
    127 H127       -2.3020  -17.1196  -47.1854 H         1 UNK         0.0600 
    128 H128       -3.3541  -15.7876  -46.7023 H         1 UNK         0.0600 
    129 H129       -2.0623  -16.3377  -45.6278 H         1 UNK         0.0600 
    130 H130       -1.2190  -16.2916  -48.9674 H         1 UNK         0.3000 
    131 H131        0.0618  -15.0804  -50.2976 H         1 UNK         0.0600 
    132 H132        2.0680  -13.9263  -49.4350 H         1 UNK         0.0800 
    133 H133        1.3929  -13.8623  -47.8299 H         1 UNK         0.0800 
    134 H134        2.1666  -16.1000  -50.7749 H         1 UNK         0.0800 
    135 H135        3.6591  -16.7407  -50.1357 H         1 UNK         0.0800 
    136 H136        0.0031  -17.4528  -50.4705 H         1 UNK         0.1150 
    137 H137        0.4625  -21.6798  -50.0332 H         1 UNK         0.1150 
    138 H138        3.8755  -19.1151  -49.6752 H         1 UNK         0.1150 
    139 H139        2.6368  -22.6613  -49.8321 H         1 UNK         0.0800 
    140 H140        4.0642  -21.6926  -50.0977 H         1 UNK         0.0800 
    141 H141        2.0260  -21.2118  -45.9967 H         1 UNK         0.0800 
    142 H142        1.2727  -20.9389  -47.5149 H         1 UNK         0.0800 
    143 H143        1.2371  -23.5592  -47.7772 H         1 UNK         0.0600 
    144 H144        2.4044  -23.3861  -45.1717 H         1 UNK         0.3000 
    145 H145        1.5223  -26.6039  -43.9862 H         1 UNK         0.0600 
    146 H146        3.9902  -26.7996  -43.8409 H         1 UNK         0.0600 
    147 H147        3.4649  -27.0003  -45.5049 H         1 UNK         0.0600 
    148 H148        4.1928  -25.4815  -44.9955 H         1 UNK         0.0600 
    149 H149        3.1772  -24.4957  -42.9560 H         1 UNK         0.3000 
    150 H150        0.5762  -22.8135  -41.1498 H         1 UNK         0.0600 
    151 H151        1.3414  -24.7606  -39.7751 H         1 UNK         0.0600 
    152 H152        2.1524  -23.2752  -39.3073 H         1 UNK         0.0600 
    153 H153        3.0017  -24.4745  -40.2826 H         1 UNK         0.0600 
    154 H154        3.2977  -22.1709  -41.2553 H         1 UNK         0.3000 
    155 H155        3.6665  -19.9537  -42.1704 H         1 UNK         0.0600 
    156 H156        5.3691  -20.3238  -43.9769 H         1 UNK         0.0600 
    157 H157        4.3253  -21.5268  -44.7309 H         1 UNK         0.0600 
    158 H158        5.0128  -21.8238  -43.1400 H         1 UNK         0.0600 
    159 H159        3.1477  -19.3955  -44.9710 H         1 UNK         0.3000 
    160 H160        2.2205  -17.3604  -45.5169 H         1 UNK         0.0600 
    161 H161        0.5494  -19.2749  -45.7687 H         1 UNK         0.0600 
    162 H162        0.0010  -17.7487  -46.4214 H         1 UNK         0.0600 
    163 H163       -0.6165  -18.3231  -44.8667 H         1 UNK         0.0600 
    164 H164        0.0194  -16.2306  -43.8645 H         1 UNK         0.3000 
    165 H165        1.0624  -14.2229  -42.2990 H         1 UNK         0.0600 
    166 H166        2.0319  -12.3737  -44.5327 H         1 UNK         0.0600 
    167 H167        1.4870  -11.8511  -42.9405 H         1 UNK         0.0600 
    168 H168        2.9381  -12.8277  -43.0922 H         1 UNK         0.0600 
    169 H169       -0.3812  -12.8582  -44.4085 H         1 UNK         0.3000 
    170 H170       -2.9486  -14.1274  -44.8366 H         1 UNK         0.0600 
    171 H171       -4.0569  -15.1708  -42.9247 H         1 UNK         0.0600 
    172 H172       -3.7723  -13.7596  -41.9179 H         1 UNK         0.0600 
    173 H173       -4.8620  -13.6572  -43.3006 H         1 UNK         0.0600 
    174 H174       -2.7855  -11.9399  -45.0337 H         1 UNK         0.3000 
    175 H175       -3.3104   -9.3874  -43.4488 H         1 UNK         0.0600 
    176 H176       -1.2321   -8.0055  -43.2069 H         1 UNK         0.0600 
    177 H177       -1.5091   -9.0191  -41.8029 H         1 UNK         0.0600 
    178 H178       -0.2845   -9.4751  -42.9799 H         1 UNK         0.0600 
    179 H179       -2.7831   -9.0705  -45.5654 H         1 UNK         0.3000 
    180 H180       -1.5990   -8.6711  -47.3342 H         1 UNK         0.0600 
    181 H181        0.5548   -8.6195  -48.5192 H         1 UNK         0.0600 
    182 H182        0.8313   -8.3875  -46.7993 H         1 UNK         0.0600 
    183 H183        1.1771   -9.9463  -47.5402 H         1 UNK         0.0600 
    184 H184       -0.6199  -10.9692  -48.7892 H         1 UNK         0.3000 
    185 H185       -3.8332  -12.2564  -49.6314 H         1 UNK         0.0600 
    186 H186       -2.8775  -11.9103  -51.8908 H         1 UNK         0.0600 
    187 H187       -3.3757  -10.3829  -51.1792 H         1 UNK         0.0600 
    188 H188       -1.6709  -10.8015  -51.2406 H         1 UNK         0.0600 
    189 H189       -2.4827  -13.9418  -49.4551 H         1 UNK         0.3000 
    190 H190        0.0231  -22.2522  -44.6549 H         1 UNK         0.3000 
    191 H191       -2.5654  -21.5520  -45.5753 H         1 UNK         0.0600 
    192 H192       -3.0776  -21.4220  -43.1301 H         1 UNK         0.0600 
    193 H193       -1.5434  -20.6487  -43.5038 H         1 UNK         0.0600 
    194 H194       -1.5662  -22.2469  -42.7614 H         1 UNK         0.0600 
    195 H195       -1.2917  -24.6379  -44.3047 H         1 UNK         0.3000 
    196 H196       -3.8102  -25.9840  -44.1111 H         1 UNK         0.0600 
    197 H197       -2.3961  -28.0352  -43.9827 H         1 UNK         0.0600 
    198 H198       -1.7989  -26.7756  -42.9141 H         1 UNK         0.0600 
    199 H199       -0.9772  -27.1017  -44.4387 H         1 UNK         0.0600 
    200 H200       -1.3804  -25.7592  -46.7502 H         1 UNK         0.3000 
    201 H201       -2.8003  -27.4609  -48.5910 H         1 UNK         0.0600 
    202 H202       -0.3675  -27.0654  -48.7835 H         1 UNK         0.0600 
    203 H203       -0.6330  -25.3450  -49.0510 H         1 UNK         0.0600 
    204 H204       -1.1780  -26.5203  -50.2457 H         1 UNK         0.0600 
    205 H205       -2.5844  -23.9215  -48.1640 H         1 UNK         0.3000 
    206 H206       -3.7447  -22.1965  -48.7938 H         1 UNK         0.0600 
    207 H207       -5.5186  -23.2455  -47.4147 H         1 UNK         0.0600 
    208 H208       -6.2362  -22.3375  -48.7275 H         1 UNK         0.0600 
    209 H209       -6.1552  -24.1003  -48.8103 H         1 UNK         0.0600 
    210 H210       -6.2842  -23.1653  -50.6984 H         1 UNK         0.3000 
    211 H211       -5.4171  -21.8933  -53.0283 H         1 UNK         0.0600 
    212 H212       -7.6750  -23.9211  -52.6293 H         1 UNK         0.0600 
    213 H213       -7.5148  -22.8343  -54.0041 H         1 UNK         0.0600 
    214 H214       -7.7893  -22.1748  -52.4006 H         1 UNK         0.0600 
    215 H215       -4.8248  -25.2128  -52.0712 H         1 UNK         0.3000 
    216 H216       -4.2472  -26.2492  -54.7167 H         1 UNK         0.0600 
    217 H217       -3.3666  -28.1852  -53.4801 H         1 UNK         0.0600 
    218 H218       -4.9049  -27.7082  -52.7778 H         1 UNK         0.0600 
    219 H219       -3.3936  -27.2956  -51.9662 H         1 UNK         0.0600 
    220 H220       -2.4795  -24.3157  -52.3707 H         1 UNK         0.3000 
    221 H221        0.1426  -24.8145  -53.6733 H         1 UNK         0.0600 
    222 H222       -0.6619  -23.2922  -51.1543 H         1 UNK         0.0600 
    223 H223        0.2745  -24.7784  -51.2711 H         1 UNK         0.0600 
    224 H224        0.9605  -23.2703  -51.8434 H         1 UNK         0.0600 
    225 H225       -2.1359  -22.0724  -52.9190 H         1 UNK         0.3000 
    226 H226       -1.7632  -20.9200  -55.5122 H         1 UNK         0.0600 
    227 H227        0.3800  -20.0683  -54.5773 H         1 UNK         0.0600 
    228 H228       -0.7478  -18.7352  -54.7083 H         1 UNK         0.0600 
    229 H229       -0.4391  -19.4703  -53.1421 H         1 UNK         0.0600 
    230 H230       -3.2355  -19.2474  -55.9200 H         1 UNK         0.3000 
    231 H231       -5.6692  -19.2995  -54.4542 H         1 UNK         0.0600 
    232 H232       -6.3685  -17.5827  -56.1310 H         1 UNK         0.0600 
    233 H233       -5.5484  -18.9283  -56.9049 H         1 UNK         0.0600 
    234 H234       -4.7000  -17.4008  -56.6592 H         1 UNK         0.0600 
    235 H235       -2.8554  -17.3311  -54.0311 H         1 UNK         0.3000 
    236 H236       -3.9398  -14.9936  -52.8538 H         1 UNK         0.0600 
    237 H237       -1.2187  -16.3351  -52.3942 H         1 UNK         0.0600 
    238 H238       -1.5997  -15.2356  -53.7196 H         1 UNK         0.0600 
    239 H239       -1.6208  -14.6497  -52.0700 H         1 UNK         0.0600 
    240 H240       -3.8766  -18.1814  -51.6009 H         1 UNK         0.3000 
    241 H241       -4.1750  -17.3767  -48.7763 H         1 UNK         0.0600 
    242 H242       -7.7781  -17.5648  -50.5190 H         1 UNK         0.3800 
    243 H243       -6.3345  -17.3422  -51.4712 H         1 UNK         0.3800 
    244 H244       -4.1531  -20.0997  -50.1599 H         1 UNK         0.0800 
    245 H245       -4.5310  -19.8994  -48.4658 H         1 UNK         0.0800 
    246 H246       -1.6625  -20.7621  -50.7942 H         1 UNK         0.0800 
    247 H247       -1.7967  -19.0604  -51.1775 H         1 UNK         0.0800 
@<TRIPOS>BOND
     1    1    2 1    
     2    1  127 1    
     3    1  128 1    
     4    1  129 1    
     5    2    3 2    
     6    2    4 am   BACKBONE|DICT|INTERRES
     7    4    5 1    
     8    4  130 1    
     9    5    6 1    
    10    5   65 1    
    11    5  131 1    
    12    6    7 1    
    13    6  132 1    
    14    6  133 1    
    15    7    8 1    
    16    8    9 1    
    17    8  134 1    
    18    8  135 1    
    19    9   10 ar   
    20    9   14 ar   
    21   10   11 ar   
    22   10  136 1    
    23   11   12 ar   
    24   11  126 1    
    25   12   13 ar   
    26   12  137 1    
    27   13   14 ar   
    28   13   15 1    
    29   14  138 1    
    30   15   16 1    
    31   15  139 1    
    32   15  140 1    
    33   16   17 1    
    34   17   18 1    
    35   17  141 1    
    36   17  142 1    
    37   18   19 1    
    38   18   67 1    
    39   18  143 1    
    40   19   20 am   BACKBONE|DICT|INTERRES
    41   19  144 1    
    42   20   21 2    
    43   20   22 1    
    44   22   23 1    
    45   22   24 1    
    46   22  145 1    
    47   23  146 1    
    48   23  147 1    
    49   23  148 1    
    50   24   25 am   BACKBONE|DICT|INTERRES
    51   24  149 1    
    52   25   26 2    
    53   25   27 1    
    54   27   28 1    
    55   27   29 1    
    56   27  150 1    
    57   28  151 1    
    58   28  152 1    
    59   28  153 1    
    60   29   30 am   BACKBONE|DICT|INTERRES
    61   29  154 1    
    62   30   31 2    
    63   30   32 1    
    64   32   33 1    
    65   32   34 1    
    66   32  155 1    
    67   33  156 1    
    68   33  157 1    
    69   33  158 1    
    70   34   35 am   BACKBONE|DICT|INTERRES
    71   34  159 1    
    72   35   36 2    
    73   35   37 1    
    74   37   38 1    
    75   37   39 1    
    76   37  160 1    
    77   38  161 1    
    78   38  162 1    
    79   38  163 1    
    80   39   40 am   BACKBONE|DICT|INTERRES
    81   39  164 1    
    82   40   41 2    
    83   40   42 1    
    84   42   43 1    
    85   42   44 1    
    86   42  165 1    
    87   43  166 1    
    88   43  167 1    
    89   43  168 1    
    90   44   45 am   BACKBONE|DICT|INTERRES
    91   44  169 1    
    92   45   46 2    
    93   45   47 1    
    94   47   48 1    
    95   47   49 1    
    96   47  170 1    
    97   48  171 1    
    98   48  172 1    
    99   48  173 1    
   100   49   50 am   BACKBONE|DICT|INTERRES
   101   49  174 1    
   102   50   51 2    
   103   50   52 1    
   104   52   53 1    
   105   52   54 1    
   106   52  175 1    
   107   53  176 1    
   108   53  177 1    
   109   53  178 1    
   110   54   55 am   BACKBONE|DICT|INTERRES
   111   54  179 1    
   112   55   56 2    
   113   55   57 1    
   114   57   58 1    
   115   57   59 1    
   116   57  180 1    
   117   58  181 1    
   118   58  182 1    
   119   58  183 1    
   120   59   60 am   BACKBONE|DICT|INTERRES
   121   59  184 1    
   122   60   61 2    
   123   60   62 1    
   124   62   63 1    
   125   62   64 1    
   126   62  185 1    
   127   63  186 1    
   128   63  187 1    
   129   63  188 1    
   130   64   65 am   BACKBONE|DICT|INTERRES
   131   64  189 1    
   132   65   66 2    
   133   67   68 2    
   134   67   69 am   BACKBONE|DICT|INTERRES
   135   69   70 1    
   136   69  190 1    
   137   70   71 1    
   138   70   72 1    
   139   70  191 1    
   140   71  192 1    
   141   71  193 1    
   142   71  194 1    
   143   72   73 2    
   144   72   74 am   BACKBONE|DICT|INTERRES
   145   74   75 1    
   146   74  195 1    
   147   75   76 1    
   148   75   77 1    
   149   75  196 1    
   150   76  197 1    
   151   76  198 1    
   152   76  199 1    
   153   77   78 2    
   154   77   79 am   BACKBONE|DICT|INTERRES
   155   79   80 1    
   156   79  200 1    
   157   80   81 1    
   158   80   82 1    
   159   80  201 1    
   160   81  202 1    
   161   81  203 1    
   162   81  204 1    
   163   82   83 2    
   164   82   84 am   BACKBONE|DICT|INTERRES
   165   84   85 1    
   166   84  205 1    
   167   85   86 1    
   168   85   87 1    
   169   85  206 1    
   170   86  207 1    
   171   86  208 1    
   172   86  209 1    
   173   87   88 2    
   174   87   89 am   BACKBONE|DICT|INTERRES
   175   89   90 1    
   176   89  210 1    
   177   90   91 1    
   178   90   92 1    
   179   90  211 1    
   180   91  212 1    
   181   91  213 1    
   182   91  214 1    
   183   92   93 2    
   184   92   94 am   BACKBONE|DICT|INTERRES
   185   94   95 1    
   186   94  215 1    
   187   95   96 1    
   188   95   97 1    
   189   95  216 1    
   190   96  217 1    
   191   96  218 1    
   192   96  219 1    
   193   97   98 2    
   194   97   99 am   BACKBONE|DICT|INTERRES
   195   99  100 1    
   196   99  220 1    
   197  100  101 1    
   198  100  102 1    
   199  100  221 1    
   200  101  222 1    
   201  101  223 1    
   202  101  224 1    
   203  102  103 2    
   204  102  104 am   BACKBONE|DICT|INTERRES
   205  104  105 1    
   206  104  225 1    
   207  105  106 1    
   208  105  107 1    
   209  105  226 1    
   210  106  227 1    
   211  106  228 1    
   212  106  229 1    
   213  107  108 2    
   214  107  109 am   BACKBONE|DICT|INTERRES
   215  109  110 1    
   216  109  230 1    
   217  110  111 1    
   218  110  112 1    
   219  110  231 1    
   220  111  232 1    
   221  111  233 1    
   222  111  234 1    
   223  112  113 2    
   224  112  114 am   BACKBONE|DICT|INTERRES
   225  114  115 1    
   226  114  235 1    
   227  115  116 1    
   228  115  117 1    
   229  115  236 1    
   230  116  237 1    
   231  116  238 1    
   232  116  239 1    
   233  117  118 2    
   234  117  119 am   BACKBONE|DICT|INTERRES
   235  119  120 1    
   236  119  240 1    
   237  120  121 1    
   238  120  124 1    
   239  120  241 1    
   240  121  122 am   BACKBONE|DICT|INTERRES
   241  121  123 2    
   242  122  242 1    
   243  122  243 1    
   244  124  125 1    
   245  124  244 1    
   246  124  245 1    
   247  125  126 1    
   248  126  246 1    
   249  126  247 1    
@<TRIPOS>SUBSTRUCTURE
     1 UNK         1 GROUP             0       ****    0 ROOT    
