@<TRIPOS>MOLECULE
3R540
247   249    1
SMALL
USER_CHARGES


@<TRIPOS>ATOM
      1 CA         -0.9414  -15.5192  -51.5287 C.3       0 UNK        -0.1800 
      2 C          -1.0590  -15.9860  -50.0856 C.2       0 UNK         0.5000 
      3 O          -0.0791  -16.4614  -49.5152 O.2       0 UNK        -0.5000 
      4 N          -2.2515  -15.8521  -49.4935 N.am      1 UNK        -0.5000 
      5 CA         -2.6289  -16.3102  -48.1475 C.3       1 UNK         0.1400 
      6 C6         -4.1712  -16.4227  -48.0150 C.3       23 UNK        -0.0398 
      7 S7         -4.8923  -17.5549  -49.2522 S.3       23 UNK        -0.2404 
      8 C8         -5.8970  -18.6710  -48.2191 C.3       23 UNK        -0.0205 
      9 C9         -6.3993  -19.8846  -48.9929 C.ar      23 UNK        -0.0193 
     10 C10        -7.0125  -19.7362  -50.2414 C.ar      23 UNK        -0.1150 
     11 C11        -7.4267  -20.8534  -50.9716 C.ar      23 UNK        -0.0193 
     12 C12        -7.2518  -22.1287  -50.4278 C.ar      23 UNK        -0.1150 
     13 C13        -6.6633  -22.2947  -49.1703 C.ar      23 UNK        -0.0193 
     14 C14        -6.2514  -21.1666  -48.4544 C.ar      23 UNK        -0.1150 
     15 C15        -6.4928  -23.6922  -48.5875 C.3       23 UNK        -0.0205 
     16 S16        -4.7515  -24.2401  -48.5763 S.3       23 UNK        -0.2404 
     17 C17        -4.1722  -23.6509  -46.9461 C.3       23 UNK        -0.0398 
     18 CA         -3.2172  -22.4365  -47.0523 C.3       11 UNK         0.1400 
     19 N          -3.3351  -21.5476  -45.8916 N.am      11 UNK        -0.5000 
     20 C          -2.9146  -20.2757  -45.8782 C.2       10 UNK         0.5000 
     21 O          -2.3941  -19.7210  -46.8442 O.2       10 UNK        -0.5000 
     22 CA         -3.0684  -19.4997  -44.5556 C.3       10 UNK         0.1400 
     23 CB         -4.4803  -18.9035  -44.4464 C.3       10 UNK        -0.1800 
     24 N          -2.7907  -20.2718  -43.3398 N.am      10 UNK        -0.5000 
     25 C          -1.6841  -20.9865  -43.0975 C.2       9 UNK         0.5000 
     26 O          -0.7987  -21.1782  -43.9316 O.2       9 UNK        -0.5000 
     27 CA         -1.5498  -21.5523  -41.6692 C.3       9 UNK         0.1400 
     28 CB         -0.3755  -22.5422  -41.5300 C.3       9 UNK        -0.1800 
     29 N          -1.4419  -20.5006  -40.6493 N.am      9 UNK        -0.5000 
     30 C          -0.5458  -19.5012  -40.6066 C.2       8 UNK         0.5000 
     31 O           0.2669  -19.2664  -41.5023 O.2       8 UNK        -0.5000 
     32 CA         -0.5420  -18.6000  -39.3512 C.3       8 UNK         0.1400 
     33 CB         -1.3555  -19.1523  -38.1585 C.3       8 UNK        -0.1800 
     34 N           0.8310  -18.2728  -38.9523 N.am      8 UNK        -0.5000 
     35 C           1.7890  -19.1319  -38.5717 C.2       7 UNK         0.5000 
     36 O           1.5931  -20.3288  -38.3508 O.2       7 UNK        -0.5000 
     37 CA          3.2181  -18.5543  -38.4809 C.3       7 UNK         0.1400 
     38 CB          4.2296  -19.5517  -37.8870 C.3       7 UNK        -0.1800 
     39 N           3.6875  -18.1416  -39.8060 N.am      7 UNK        -0.5000 
     40 C           3.3537  -16.9935  -40.4062 C.2       6 UNK         0.5000 
     41 O           2.6841  -16.1198  -39.8505 O.2       6 UNK        -0.5000 
     42 CA          3.8123  -16.8220  -41.8689 C.3       6 UNK         0.1400 
     43 CB          3.0452  -17.7743  -42.8006 C.3       6 UNK        -0.1800 
     44 N           3.5980  -15.4583  -42.3442 N.am      6 UNK        -0.5000 
     45 C           4.3300  -14.3939  -41.9932 C.2       5 UNK         0.5000 
     46 O           5.3613  -14.4570  -41.3221 O.2       5 UNK        -0.5000 
     47 CA          3.8028  -13.0280  -42.4591 C.3       5 UNK         0.1400 
     48 CB          4.1387  -12.7917  -43.9399 C.3       5 UNK        -0.1800 
     49 N           2.3545  -12.9378  -42.2656 N.am      5 UNK        -0.5000 
     50 C           1.7671  -12.4906  -41.1459 C.2       4 UNK         0.5000 
     51 O           2.3894  -12.0535  -40.1769 O.2       4 UNK        -0.5000 
     52 CA          0.2261  -12.5099  -41.0983 C.3       4 UNK         0.1400 
     53 CB         -0.3386  -11.1425  -41.5137 C.3       4 UNK        -0.1800 
     54 N          -0.3527  -13.5406  -41.9594 N.am      4 UNK        -0.5000 
     55 C          -0.4566  -14.8356  -41.6318 C.2       3 UNK         0.5000 
     56 O          -0.1815  -15.2811  -40.5193 O.2       3 UNK        -0.5000 
     57 CA         -0.9682  -15.7996  -42.7218 C.3       3 UNK         0.1400 
     58 CB         -2.4335  -16.1685  -42.4496 C.3       3 UNK        -0.1800 
     59 N          -0.8610  -15.2806  -44.0896 N.am      3 UNK        -0.5000 
     60 C           0.2748  -14.9763  -44.7284 C.2       2 UNK         0.5000 
     61 O           1.3858  -15.0694  -44.2026 O.2       2 UNK        -0.5000 
     62 CA          0.1365  -14.4502  -46.1741 C.3       2 UNK         0.1400 
     63 CB          1.4992  -14.2384  -46.8563 C.3       2 UNK        -0.1800 
     64 N          -0.6785  -15.3077  -47.0364 N.am      2 UNK        -0.5000 
     65 C          -2.0108  -15.4291  -47.0343 C.2       1 UNK         0.5000 
     66 O          -2.7333  -14.8656  -46.2095 O.2       1 UNK        -0.5000 
     67 C          -1.7591  -22.8738  -47.3064 C.2       11 UNK         0.5000 
     68 O          -1.3586  -22.9997  -48.4634 O.2       11 UNK        -0.5000 
     69 N          -0.9779  -23.0632  -46.2326 N.am      12 UNK        -0.5000 
     70 CA          0.4481  -23.3868  -46.3039 C.3       12 UNK         0.1400 
     71 CB          0.9351  -23.9384  -44.9560 C.3       12 UNK        -0.1800 
     72 C           1.2782  -22.1668  -46.7343 C.2       12 UNK         0.5000 
     73 O           2.1882  -22.3154  -47.5495 O.2       12 UNK        -0.5000 
     74 N           0.9048  -20.9761  -46.2399 N.am      13 UNK        -0.5000 
     75 CA          1.4416  -19.6819  -46.6718 C.3       13 UNK         0.1400 
     76 CB          0.8417  -18.5587  -45.8104 C.3       13 UNK        -0.1800 
     77 C           1.1916  -19.4230  -48.1712 C.2       13 UNK         0.5000 
     78 O           2.0861  -18.9395  -48.8644 O.2       13 UNK        -0.5000 
     79 N           0.0084  -19.8332  -48.6494 N.am      14 UNK        -0.5000 
     80 CA         -0.3931  -19.8318  -50.0550 C.3       14 UNK         0.1400 
     81 CB         -1.9265  -19.8553  -50.1323 C.3       14 UNK        -0.1800 
     82 C           0.2069  -20.9807  -50.8918 C.2       14 UNK         0.5000 
     83 O          -0.1701  -21.1129  -52.0564 O.2       14 UNK        -0.5000 
     84 N           1.1018  -21.7962  -50.3139 N.am      15 UNK        -0.5000 
     85 CA          1.8039  -22.9208  -50.9416 C.3       15 UNK         0.1400 
     86 CB          2.7695  -22.4128  -52.0339 C.3       15 UNK        -0.1800 
     87 C           0.8397  -24.0129  -51.4482 C.2       15 UNK         0.5000 
     88 O           0.9601  -24.4665  -52.5862 O.2       15 UNK        -0.5000 
     89 N          -0.1265  -24.3830  -50.5955 N.am      16 UNK        -0.5000 
     90 CA         -1.2486  -25.2877  -50.8671 C.3       16 UNK         0.1400 
     91 CB         -0.7629  -26.7160  -51.1931 C.3       16 UNK        -0.1800 
     92 C          -2.2038  -24.7000  -51.9250 C.2       16 UNK         0.5000 
     93 O          -2.6409  -25.4080  -52.8334 O.2       16 UNK        -0.5000 
     94 N          -2.4824  -23.3952  -51.7794 N.am      17 UNK        -0.5000 
     95 CA         -3.3537  -22.5560  -52.6124 C.3       17 UNK         0.1400 
     96 CB         -4.7824  -23.1280  -52.6449 C.3       17 UNK        -0.1800 
     97 C          -2.8109  -22.2677  -54.0304 C.2       17 UNK         0.5000 
     98 O          -3.5365  -21.7041  -54.8544 O.2       17 UNK        -0.5000 
     99 N          -1.5505  -22.6338  -54.2988 N.am      18 UNK        -0.5000 
    100 CA        -0.8827  -22.4432  -55.5843 C.3       18 UNK         0.1400 
    101 CB         0.3189  -23.3935  -55.6834 C.3       18 UNK        -0.1800 
    102 C         -0.4366  -20.9892  -55.8072 C.2       18 UNK         0.5000 
    103 O         -0.5886  -20.4777  -56.9163 O.2       18 UNK        -0.5000 
    104 N          0.0808  -20.3377  -54.7555 N.am      19 UNK        -0.5000 
    105 CA         0.5380  -18.9452  -54.7975 C.3       19 UNK         0.1400 
    106 CB         1.5067  -18.6785  -53.6354 C.3       19 UNK        -0.1800 
    107 C         -0.6374  -17.9540  -54.7626 C.2       19 UNK         0.5000 
    108 O         -0.5393  -16.8712  -55.3397 O.2       19 UNK        -0.5000 
    109 N         -1.7384  -18.3587  -54.1139 N.am      20 UNK        -0.5000 
    110 CA        -3.0165  -17.6440  -54.1215 C.3       20 UNK         0.1400 
    111 CB        -3.8365  -18.0789  -52.8988 C.3       20 UNK        -0.1800 
    112 C         -3.8100  -17.8527  -55.4297 C.2       20 UNK         0.5000 
    113 O         -4.7480  -17.0977  -55.6874 O.2       20 UNK        -0.5000 
    114 N         -3.4070  -18.8532  -56.2298 N.am      21 UNK        -0.5000 
    115 CA        -3.9599  -19.2525  -57.5265 C.3       21 UNK         0.1400 
    116 CB        -3.7087  -18.1592  -58.5858 C.3       21 UNK        -0.1800 
    117 C         -5.4358  -19.6878  -57.4334 C.2       21 UNK         0.5000 
    118 O         -6.2604  -19.2749  -58.2521 O.2       21 UNK        -0.5000 
    119 N         -5.7380  -20.5124  -56.4259 N.am      22 UNK        -0.5000 
    120 CA        -7.0907  -20.9994  -56.1120 C.3       22 UNK         0.1400 
    121 C         -7.1541  -22.5088  -55.7426 C.2       22 UNK         0.5000 
    122 N         -6.0542  -23.2510  -55.7795 N.am      22 UNK        -0.7600 
    123 O         -8.2284  -23.0284  -55.4527 O.2       22 UNK        -0.5000 
    124 C124       -7.8150  -20.0793  -55.0932 C.3       23 UNK        -0.0398 
    125 S125       -6.9159  -19.8879  -53.5156 S.3       23 UNK        -0.2404 
    126 C126       -8.0602  -20.6830  -52.3453 C.3       23 UNK        -0.0205 
    127 H127       -0.2516  -14.6782  -51.5965 H         1 UNK         0.0600 
    128 H128       -0.5568  -16.3272  -52.1505 H         1 UNK         0.0600 
    129 H129       -1.9039  -15.2074  -51.9348 H         1 UNK         0.0600 
    130 H130       -3.0067  -15.4373  -50.0199 H         1 UNK         0.3000 
    131 H131       -2.2113  -17.3081  -48.0043 H         1 UNK         0.0600 
    132 H132       -4.6393  -15.4445  -48.1374 H         1 UNK         0.0800 
    133 H133       -4.4432  -16.7632  -47.0165 H         1 UNK         0.0800 
    134 H134       -6.7477  -18.1243  -47.8108 H         1 UNK         0.0800 
    135 H135       -5.2916  -18.9988  -47.3747 H         1 UNK         0.0800 
    136 H136       -7.1424  -18.7490  -50.6622 H         1 UNK         0.1150 
    137 H137       -7.5711  -22.9963  -50.9881 H         1 UNK         0.1150 
    138 H138       -5.8068  -21.2875  -47.4781 H         1 UNK         0.1150 
    139 H139       -6.9189  -23.7310  -47.5845 H         1 UNK         0.0800 
    140 H140       -7.0646  -24.4114  -49.1758 H         1 UNK         0.0800 
    141 H141       -5.0445  -23.3905  -46.3462 H         1 UNK         0.0800 
    142 H142       -3.7045  -24.4831  -46.4166 H         1 UNK         0.0800 
    143 H143       -3.5167  -21.8489  -47.9225 H         1 UNK         0.0600 
    144 H144       -3.7375  -21.9339  -45.0502 H         1 UNK         0.3000 
    145 H145       -2.3469  -18.6814  -44.5818 H         1 UNK         0.0600 
    146 H146       -4.6170  -18.3625  -43.5103 H         1 UNK         0.0600 
    147 H147       -4.6700  -18.1966  -45.2517 H         1 UNK         0.0600 
    148 H148       -5.2493  -19.6756  -44.4966 H         1 UNK         0.0600 
    149 H149       -3.4592  -20.1695  -42.5902 H         1 UNK         0.3000 
    150 H150       -2.4686  -22.1021  -41.4600 H         1 UNK         0.0600 
    151 H151       -0.4973  -23.3879  -42.2073 H         1 UNK         0.0600 
    152 H152       -0.3169  -22.9440  -40.5185 H         1 UNK         0.0600 
    153 H153        0.5819  -22.0713  -41.7568 H         1 UNK         0.0600 
    154 H154       -2.0742  -20.5915  -39.8668 H         1 UNK         0.3000 
    155 H155       -1.0035  -17.6600  -39.6529 H         1 UNK         0.0600 
    156 H156       -1.2728  -18.4937  -37.2938 H         1 UNK         0.0600 
    157 H157       -1.0180  -20.1429  -37.8519 H         1 UNK         0.0600 
    158 H158       -2.4161  -19.2221  -38.4021 H         1 UNK         0.0600 
    159 H159        1.1286  -17.3284  -39.1791 H         1 UNK         0.3000 
    160 H160        3.1825  -17.6864  -37.8187 H         1 UNK         0.0600 
    161 H161        4.3309  -20.4436  -38.5066 H         1 UNK         0.0600 
    162 H162        3.9207  -19.8748  -36.8921 H         1 UNK         0.0600 
    163 H163        5.2164  -19.0991  -37.7880 H         1 UNK         0.0600 
    164 H164        4.2077  -18.8322  -40.3274 H         1 UNK         0.3000 
    165 H165        4.8780  -17.0530  -41.9250 H         1 UNK         0.0600 
    166 H166        1.9747  -17.5678  -42.7831 H         1 UNK         0.0600 
    167 H167        3.3842  -17.6762  -43.8321 H         1 UNK         0.0600 
    168 H168        3.1813  -18.8170  -42.5120 H         1 UNK         0.0600 
    169 H169        2.7683  -15.3104  -42.9111 H         1 UNK         0.3000 
    170 H170        4.3018  -12.2517  -41.8750 H         1 UNK         0.0600 
    171 H171        5.2181  -12.7877  -44.0961 H         1 UNK         0.0600 
    172 H172        3.7207  -13.5698  -44.5786 H         1 UNK         0.0600 
    173 H173        3.7559  -11.8310  -44.2843 H         1 UNK         0.0600 
    174 H174        1.7792  -13.3474  -42.9894 H         1 UNK         0.3000 
    175 H175       -0.0723  -12.7002  -40.0650 H         1 UNK         0.0600 
    176 H176       -0.0769  -10.8934  -42.5429 H         1 UNK         0.0600 
    177 H177       -1.4252  -11.1221  -41.4283 H         1 UNK         0.0600 
    178 H178        0.0513  -10.3489  -40.8748 H         1 UNK         0.0600 
    179 H179       -0.6433  -13.2558  -42.8826 H         1 UNK         0.3000 
    180 H180       -0.3665  -16.7089  -42.6645 H         1 UNK         0.0600 
    181 H181       -2.5444  -16.6515  -41.4782 H         1 UNK         0.0600 
    182 H182       -3.0767  -15.2875  -42.4562 H         1 UNK         0.0600 
    183 H183       -2.8102  -16.8581  -43.2009 H         1 UNK         0.0600 
    184 H184       -1.7283  -15.1538  -44.6040 H         1 UNK         0.3000 
    185 H185       -0.3532  -13.4766  -46.1086 H         1 UNK         0.0600 
    186 H186        2.1031  -13.5140  -46.3099 H         1 UNK         0.0600 
    187 H187        2.0672  -15.1678  -46.9170 H         1 UNK         0.0600 
    188 H188        1.3782  -13.8544  -47.8694 H         1 UNK         0.0600 
    189 H189       -0.1839  -15.7952  -47.7805 H         1 UNK         0.3000 
    190 H190       -1.3403  -22.8397  -45.3159 H         1 UNK         0.3000 
    191 H191        0.5840  -24.1689  -47.0543 H         1 UNK         0.0600 
    192 H192        1.9639  -24.2919  -45.0337 H         1 UNK         0.0600 
    193 H193        0.3255  -24.7800  -44.6271 H         1 UNK         0.0600 
    194 H194        0.9135  -23.1790  -44.1752 H         1 UNK         0.0600 
    195 H195        0.1831  -20.9593  -45.5230 H         1 UNK         0.3000 
    196 H196        2.5207  -19.7012  -46.5064 H         1 UNK         0.0600 
    197 H197        1.3299  -17.6073  -46.0233 H         1 UNK         0.0600 
    198 H198        0.9702  -18.7615  -44.7470 H         1 UNK         0.0600 
    199 H199       -0.2237  -18.4270  -45.9964 H         1 UNK         0.0600 
    200 H200       -0.6858  -20.1654  -47.9899 H         1 UNK         0.3000 
    201 H201       -0.0477  -18.9031  -50.5094 H         1 UNK         0.0600 
    202 H202       -2.3606  -19.0246  -49.5805 H         1 UNK         0.0600 
    203 H203       -2.3406  -20.7776  -49.7270 H         1 UNK         0.0600 
    204 H204       -2.2665  -19.7665  -51.1623 H         1 UNK         0.0600 
    205 H205        1.3379  -21.6355  -49.3419 H         1 UNK         0.3000 
    206 H206        2.4064  -23.3838  -50.1590 H         1 UNK         0.0600 
    207 H207        3.4452  -21.6539  -51.6396 H         1 UNK         0.0600 
    208 H208        3.3847  -23.2264  -52.4195 H         1 UNK         0.0600 
    209 H209        2.2367  -21.9786  -52.8804 H         1 UNK         0.0600 
    210 H210       -0.2037  -23.8808  -49.7150 H         1 UNK         0.3000 
    211 H211       -1.8235  -25.3449  -49.9415 H         1 UNK         0.0600 
    212 H212       -0.2432  -26.7643  -52.1502 H         1 UNK         0.0600 
    213 H213       -1.6042  -27.4078  -51.2465 H         1 UNK         0.0600 
    214 H214       -0.0862  -27.0872  -50.4236 H         1 UNK         0.0600 
    215 H215       -2.0379  -22.9194  -51.0063 H         1 UNK         0.3000 
    216 H216       -3.4066  -21.5912  -52.1092 H         1 UNK         0.0600 
    217 H217       -4.8509  -24.0197  -53.2673 H         1 UNK         0.0600 
    218 H218       -5.4861  -22.3986  -53.0428 H         1 UNK         0.0600 
    219 H219       -5.1191  -23.3958  -51.6448 H         1 UNK         0.0600 
    220 H220       -1.0053  -23.0561  -53.5594 H         1 UNK         0.3000 
    221 H221       -1.5853  -22.7053  -56.3783 H         1 UNK         0.0600 
    222 H222        1.0823  -23.1562  -54.9417 H         1 UNK         0.0600 
    223 H223        0.0169  -24.4302  -55.5326 H         1 UNK         0.0600 
    224 H224        0.7867  -23.3289  -56.6665 H         1 UNK         0.0600 
    225 H225        0.1115  -20.8006  -53.8488 H         1 UNK         0.3000 
    226 H226        1.0824  -18.7877  -55.7311 H         1 UNK         0.0600 
    227 H227        2.3203  -19.4039  -53.6212 H         1 UNK         0.0600 
    228 H228        1.9542  -17.6880  -53.7252 H         1 UNK         0.0600 
    229 H229        1.0032  -18.7177  -52.6707 H         1 UNK         0.0600 
    230 H230       -1.7205  -19.2628  -53.6656 H         1 UNK         0.3000 
    231 H231       -2.8217  -16.5734  -54.0308 H         1 UNK         0.0600 
    232 H232       -4.0115  -19.1551  -52.8915 H         1 UNK         0.0600 
    233 H233       -3.3305  -17.8093  -51.9722 H         1 UNK         0.0600 
    234 H234       -4.8108  -17.5888  -52.8834 H         1 UNK         0.0600 
    235 H235       -2.6354  -19.4188  -55.9077 H         1 UNK         0.3000 
    236 H236       -3.4022  -20.1387  -57.8331 H         1 UNK         0.0600 
    237 H237       -2.6514  -17.8988  -58.6375 H         1 UNK         0.0600 
    238 H238       -4.0070  -18.5007  -59.5776 H         1 UNK         0.0600 
    239 H239       -4.2686  -17.2486  -58.3711 H         1 UNK         0.0600 
    240 H240       -5.0037  -20.7972  -55.7837 H         1 UNK         0.3000 
    241 H241       -7.6775  -20.9576  -57.0313 H         1 UNK         0.0600 
    242 H242       -5.1541  -22.8356  -55.9676 H         1 UNK         0.3800 
    243 H243       -6.1171  -24.2317  -55.5592 H         1 UNK         0.3800 
    244 H244       -8.8314  -20.4301  -54.9080 H         1 UNK         0.0800 
    245 H245       -7.9268  -19.0847  -55.5267 H         1 UNK         0.0800 
    246 H246       -8.3656  -21.6502  -52.7480 H         1 UNK         0.0800 
    247 H247       -8.9643  -20.0797  -52.2545 H         1 UNK         0.0800 
@<TRIPOS>BOND
     1    1    2 1    
     2    1  127 1    
     3    1  128 1    
     4    1  129 1    
     5    2    3 2    
     6    2    4 am   BACKBONE|DICT|INTERRES
     7    4    5 1    
     8    4  130 1    
     9    5    6 1    
    10    5   65 1    
    11    5  131 1    
    12    6    7 1    
    13    6  132 1    
    14    6  133 1    
    15    7    8 1    
    16    8    9 1    
    17    8  134 1    
    18    8  135 1    
    19    9   10 ar   
    20    9   14 ar   
    21   10   11 ar   
    22   10  136 1    
    23   11   12 ar   
    24   11  126 1    
    25   12   13 ar   
    26   12  137 1    
    27   13   14 ar   
    28   13   15 1    
    29   14  138 1    
    30   15   16 1    
    31   15  139 1    
    32   15  140 1    
    33   16   17 1    
    34   17   18 1    
    35   17  141 1    
    36   17  142 1    
    37   18   19 1    
    38   18   67 1    
    39   18  143 1    
    40   19   20 am   BACKBONE|DICT|INTERRES
    41   19  144 1    
    42   20   21 2    
    43   20   22 1    
    44   22   23 1    
    45   22   24 1    
    46   22  145 1    
    47   23  146 1    
    48   23  147 1    
    49   23  148 1    
    50   24   25 am   BACKBONE|DICT|INTERRES
    51   24  149 1    
    52   25   26 2    
    53   25   27 1    
    54   27   28 1    
    55   27   29 1    
    56   27  150 1    
    57   28  151 1    
    58   28  152 1    
    59   28  153 1    
    60   29   30 am   BACKBONE|DICT|INTERRES
    61   29  154 1    
    62   30   31 2    
    63   30   32 1    
    64   32   33 1    
    65   32   34 1    
    66   32  155 1    
    67   33  156 1    
    68   33  157 1    
    69   33  158 1    
    70   34   35 am   BACKBONE|DICT|INTERRES
    71   34  159 1    
    72   35   36 2    
    73   35   37 1    
    74   37   38 1    
    75   37   39 1    
    76   37  160 1    
    77   38  161 1    
    78   38  162 1    
    79   38  163 1    
    80   39   40 am   BACKBONE|DICT|INTERRES
    81   39  164 1    
    82   40   41 2    
    83   40   42 1    
    84   42   43 1    
    85   42   44 1    
    86   42  165 1    
    87   43  166 1    
    88   43  167 1    
    89   43  168 1    
    90   44   45 am   BACKBONE|DICT|INTERRES
    91   44  169 1    
    92   45   46 2    
    93   45   47 1    
    94   47   48 1    
    95   47   49 1    
    96   47  170 1    
    97   48  171 1    
    98   48  172 1    
    99   48  173 1    
   100   49   50 am   BACKBONE|DICT|INTERRES
   101   49  174 1    
   102   50   51 2    
   103   50   52 1    
   104   52   53 1    
   105   52   54 1    
   106   52  175 1    
   107   53  176 1    
   108   53  177 1    
   109   53  178 1    
   110   54   55 am   BACKBONE|DICT|INTERRES
   111   54  179 1    
   112   55   56 2    
   113   55   57 1    
   114   57   58 1    
   115   57   59 1    
   116   57  180 1    
   117   58  181 1    
   118   58  182 1    
   119   58  183 1    
   120   59   60 am   BACKBONE|DICT|INTERRES
   121   59  184 1    
   122   60   61 2    
   123   60   62 1    
   124   62   63 1    
   125   62   64 1    
   126   62  185 1    
   127   63  186 1    
   128   63  187 1    
   129   63  188 1    
   130   64   65 am   BACKBONE|DICT|INTERRES
   131   64  189 1    
   132   65   66 2    
   133   67   68 2    
   134   67   69 am   BACKBONE|DICT|INTERRES
   135   69   70 1    
   136   69  190 1    
   137   70   71 1    
   138   70   72 1    
   139   70  191 1    
   140   71  192 1    
   141   71  193 1    
   142   71  194 1    
   143   72   73 2    
   144   72   74 am   BACKBONE|DICT|INTERRES
   145   74   75 1    
   146   74  195 1    
   147   75   76 1    
   148   75   77 1    
   149   75  196 1    
   150   76  197 1    
   151   76  198 1    
   152   76  199 1    
   153   77   78 2    
   154   77   79 am   BACKBONE|DICT|INTERRES
   155   79   80 1    
   156   79  200 1    
   157   80   81 1    
   158   80   82 1    
   159   80  201 1    
   160   81  202 1    
   161   81  203 1    
   162   81  204 1    
   163   82   83 2    
   164   82   84 am   BACKBONE|DICT|INTERRES
   165   84   85 1    
   166   84  205 1    
   167   85   86 1    
   168   85   87 1    
   169   85  206 1    
   170   86  207 1    
   171   86  208 1    
   172   86  209 1    
   173   87   88 2    
   174   87   89 am   BACKBONE|DICT|INTERRES
   175   89   90 1    
   176   89  210 1    
   177   90   91 1    
   178   90   92 1    
   179   90  211 1    
   180   91  212 1    
   181   91  213 1    
   182   91  214 1    
   183   92   93 2    
   184   92   94 am   BACKBONE|DICT|INTERRES
   185   94   95 1    
   186   94  215 1    
   187   95   96 1    
   188   95   97 1    
   189   95  216 1    
   190   96  217 1    
   191   96  218 1    
   192   96  219 1    
   193   97   98 2    
   194   97   99 am   BACKBONE|DICT|INTERRES
   195   99  100 1    
   196   99  220 1    
   197  100  101 1    
   198  100  102 1    
   199  100  221 1    
   200  101  222 1    
   201  101  223 1    
   202  101  224 1    
   203  102  103 2    
   204  102  104 am   BACKBONE|DICT|INTERRES
   205  104  105 1    
   206  104  225 1    
   207  105  106 1    
   208  105  107 1    
   209  105  226 1    
   210  106  227 1    
   211  106  228 1    
   212  106  229 1    
   213  107  108 2    
   214  107  109 am   BACKBONE|DICT|INTERRES
   215  109  110 1    
   216  109  230 1    
   217  110  111 1    
   218  110  112 1    
   219  110  231 1    
   220  111  232 1    
   221  111  233 1    
   222  111  234 1    
   223  112  113 2    
   224  112  114 am   BACKBONE|DICT|INTERRES
   225  114  115 1    
   226  114  235 1    
   227  115  116 1    
   228  115  117 1    
   229  115  236 1    
   230  116  237 1    
   231  116  238 1    
   232  116  239 1    
   233  117  118 2    
   234  117  119 am   BACKBONE|DICT|INTERRES
   235  119  120 1    
   236  119  240 1    
   237  120  121 1    
   238  120  124 1    
   239  120  241 1    
   240  121  122 am   BACKBONE|DICT|INTERRES
   241  121  123 2    
   242  122  242 1    
   243  122  243 1    
   244  124  125 1    
   245  124  244 1    
   246  124  245 1    
   247  125  126 1    
   248  126  246 1    
   249  126  247 1    
@<TRIPOS>SUBSTRUCTURE
     1 UNK         1 GROUP             0       ****    0 ROOT    
