@<TRIPOS>MOLECULE
3R540
247   249    1
SMALL
USER_CHARGES


@<TRIPOS>ATOM
      1 CA         -2.0102  -14.8812  -49.6930 C.3       0 UNK        -0.1800 
      2 C          -0.9788  -13.7851  -49.9234 C.2       0 UNK         0.5000 
      3 O          -1.2315  -12.8682  -50.7060 O.2       0 UNK        -0.5000 
      4 N           0.1758  -13.8699  -49.2493 N.am      1 UNK        -0.5000 
      5 CA          1.2139  -12.8323  -49.2388 C.3       1 UNK         0.1400 
      6 C6          2.6125  -13.3900  -48.8585 C.3       23 UNK        -0.0398 
      7 S7          2.6647  -14.4153  -47.3465 S.3       23 UNK        -0.2404 
      8 C8          4.0420  -15.5536  -47.7170 C.3       23 UNK        -0.0205 
      9 C9          3.5811  -16.9152  -48.2279 C.ar      23 UNK        -0.0193 
     10 C10         2.8311  -17.0175  -49.4030 C.ar      23 UNK        -0.1150 
     11 C11         2.4432  -18.2645  -49.8980 C.ar      23 UNK        -0.0193 
     12 C12         2.8400  -19.4230  -49.2264 C.ar      23 UNK        -0.1150 
     13 C13         3.5950  -19.3429  -48.0520 C.ar      23 UNK        -0.0193 
     14 C14         3.9495  -18.0847  -47.5512 C.ar      23 UNK        -0.1150 
     15 C15         4.0772  -20.6139  -47.3602 C.3       23 UNK        -0.0205 
     16 S16         2.8185  -21.3600  -46.2738 S.3       23 UNK        -0.2404 
     17 C17         1.6484  -22.0480  -47.4919 C.3       23 UNK        -0.0398 
     18 CA          0.7992  -23.2303  -46.9632 C.3       11 UNK         0.1400 
     19 N           0.0537  -22.9151  -45.7378 N.am      11 UNK        -0.5000 
     20 C          -0.7029  -23.7887  -45.0545 C.2       10 UNK         0.5000 
     21 O          -0.7856  -24.9854  -45.3292 O.2       10 UNK        -0.5000 
     22 CA         -1.5632  -23.2235  -43.9125 C.3       10 UNK         0.1400 
     23 CB         -0.7704  -23.1639  -42.5980 C.3       10 UNK        -0.1800 
     24 N          -2.0902  -21.9007  -44.2483 N.am      10 UNK        -0.5000 
     25 C          -3.0967  -21.6906  -45.1092 C.2       9 UNK         0.5000 
     26 O          -3.7219  -22.5982  -45.6565 O.2       9 UNK        -0.5000 
     27 CA         -3.4373  -20.2266  -45.4509 C.3       9 UNK         0.1400 
     28 CB         -4.4453  -19.6523  -44.4455 C.3       9 UNK        -0.1800 
     29 N          -2.2551  -19.3653  -45.5020 N.am      9 UNK        -0.5000 
     30 C          -1.2948  -19.4683  -46.4306 C.2       8 UNK         0.5000 
     31 O          -1.3462  -20.2600  -47.3710 O.2       8 UNK        -0.5000 
     32 CA         -0.0482  -18.5800  -46.2560 C.3       8 UNK         0.1400 
     33 CB         -0.2261  -17.2585  -47.0116 C.3       8 UNK        -0.1800 
     34 N           0.3236  -18.2965  -44.8649 N.am      8 UNK        -0.5000 
     35 C           0.5798  -19.2178  -43.9220 C.2       7 UNK         0.5000 
     36 O           0.4084  -20.4233  -44.0964 O.2       7 UNK        -0.5000 
     37 CA          1.1360  -18.7113  -42.5790 C.3       7 UNK         0.1400 
     38 CB          1.8271  -19.8137  -41.7554 C.3       7 UNK        -0.1800 
     39 N           2.0764  -17.6299  -42.8408 N.am      7 UNK        -0.5000 
     40 C           2.1852  -16.4981  -42.1398 C.2       6 UNK         0.5000 
     41 O           1.6243  -16.2953  -41.0617 O.2       6 UNK        -0.5000 
     42 CA          3.0265  -15.3755  -42.7846 C.3       6 UNK         0.1400 
     43 CB          3.9741  -15.8714  -43.9001 C.3       6 UNK        -0.1800 
     44 N           2.1891  -14.2884  -43.3044 N.am      6 UNK        -0.5000 
     45 C           1.1110  -14.3874  -44.1015 C.2       5 UNK         0.5000 
     46 O           0.6427  -15.4568  -44.4954 O.2       5 UNK        -0.5000 
     47 CA          0.4642  -13.0647  -44.5623 C.3       5 UNK         0.1400 
     48 CB         -1.0484  -13.2054  -44.8339 C.3       5 UNK        -0.1800 
     49 N           0.7444  -11.9245  -43.6830 N.am      5 UNK        -0.5000 
     50 C           0.3422  -11.7554  -42.4133 C.2       4 UNK         0.5000 
     51 O          -0.3309  -12.5769  -41.7907 O.2       4 UNK        -0.5000 
     52 CA          0.7788  -10.4574  -41.7023 C.3       4 UNK         0.1400 
     53 CB          1.8715  -10.7572  -40.6634 C.3       4 UNK        -0.1800 
     54 N           1.2715   -9.4203  -42.6117 N.am      4 UNK        -0.5000 
     55 C           0.5140   -8.7199  -43.4658 C.2       3 UNK         0.5000 
     56 O          -0.7074   -8.8514  -43.5609 O.2       3 UNK        -0.5000 
     57 CA          1.2311   -7.7041  -44.3771 C.3       3 UNK         0.1400 
     58 CB          2.7164   -7.4611  -44.0214 C.3       3 UNK        -0.1800 
     59 N           1.0929   -8.0560  -45.7931 N.am      3 UNK        -0.5000 
     60 C           1.5160   -9.1728  -46.4043 C.2       2 UNK         0.5000 
     61 O           2.0854  -10.1047  -45.8281 O.2       2 UNK        -0.5000 
     62 CA          1.2933   -9.2030  -47.9320 C.3       2 UNK         0.1400 
     63 CB          2.1903   -8.1648  -48.6294 C.3       2 UNK        -0.1800 
     64 N           1.5455  -10.5043  -48.5531 N.am      2 UNK        -0.5000 
     65 C           0.7977  -11.6032  -48.3930 C.2       1 UNK         0.5000 
     66 O          -0.1903  -11.6501  -47.6558 O.2       1 UNK        -0.5000 
     67 C          -0.1492  -23.7250  -48.0755 C.2       11 UNK         0.5000 
     68 O           0.1102  -24.7623  -48.6858 O.2       11 UNK        -0.5000 
     69 N          -1.2537  -22.9927  -48.2796 N.am      12 UNK        -0.5000 
     70 CA         -2.3222  -23.3338  -49.2138 C.3       12 UNK         0.1400 
     71 CB         -3.3332  -22.1846  -49.2771 C.3       12 UNK        -0.1800 
     72 C          -3.0217  -24.6549  -48.8570 C.2       12 UNK         0.5000 
     73 O          -3.2162  -25.4854  -49.7423 O.2       12 UNK        -0.5000 
     74 N          -3.3424  -24.8517  -47.5695 N.am      13 UNK        -0.5000 
     75 CA         -3.9451  -26.0811  -47.0501 C.3       13 UNK         0.1400 
     76 CB         -4.3141  -25.9006  -45.5707 C.3       13 UNK        -0.1800 
     77 C          -3.0481  -27.3177  -47.2435 C.2       13 UNK         0.5000 
     78 O          -3.5476  -28.3645  -47.6560 O.2       13 UNK        -0.5000 
     79 N          -1.7387  -27.1654  -46.9972 N.am      14 UNK        -0.5000 
     80 CA         -0.7214  -28.1937  -47.2311 C.3       14 UNK         0.1400 
     81 CB          0.6147  -27.7394  -46.6244 C.3       14 UNK        -0.1800 
     82 C          -0.5527  -28.5464  -48.7223 C.2       14 UNK         0.5000 
     83 O          -0.3305  -29.7124  -49.0498 O.2       14 UNK        -0.5000 
     84 N          -0.6960  -27.5428  -49.5980 N.am      15 UNK        -0.5000 
     85 CA         -0.6962  -27.6907  -51.0553 C.3       15 UNK         0.1400 
     86 CB         -0.3621  -26.3291  -51.6871 C.3       15 UNK        -0.1800 
     87 C          -2.0253  -28.2374  -51.6217 C.2       15 UNK         0.5000 
     88 O          -2.0748  -28.5662  -52.8077 O.2       15 UNK        -0.5000 
     89 N          -3.0707  -28.3084  -50.7825 N.am      16 UNK        -0.5000 
     90 CA         -4.4592  -28.6601  -51.0999 C.3       16 UNK         0.1400 
     91 CB         -4.5707  -30.1332  -51.5452 C.3       16 UNK        -0.1800 
     92 C          -5.1068  -27.6672  -52.0904 C.2       16 UNK         0.5000 
     93 O          -5.8325  -28.0752  -52.9997 O.2       16 UNK        -0.5000 
     94 N          -4.8167  -26.3774  -51.8935 N.am      17 UNK        -0.5000 
     95 CA         -5.2736  -25.2525  -52.7017 C.3       17 UNK         0.1400 
     96 CB         -4.0318  -24.5801  -53.3095 C.3       17 UNK        -0.1800 
     97 C          -6.0619  -24.2556  -51.8344 C.2       17 UNK         0.5000 
     98 O          -6.0688  -24.3619  -50.6054 O.2       17 UNK        -0.5000 
     99 N          -6.7121  -23.2894  -52.4939 N.am      18 UNK        -0.5000 
    100 CA        -7.4062  -22.1772  -51.8465 C.3       18 UNK         0.1400 
    101 CB        -8.3570  -21.5213  -52.8597 C.3       18 UNK        -0.1800 
    102 C         -6.4027  -21.1395  -51.3174 C.2       18 UNK         0.5000 
    103 O         -5.4119  -20.8520  -51.9951 O.2       18 UNK        -0.5000 
    104 N         -6.6959  -20.5584  -50.1467 N.am      19 UNK        -0.5000 
    105 CA        -5.8778  -19.5220  -49.5070 C.3       19 UNK         0.1400 
    106 CB        -6.3818  -19.2785  -48.0768 C.3       19 UNK        -0.1800 
    107 C         -5.8301  -18.2072  -50.3064 C.2       19 UNK         0.5000 
    108 O         -4.7994  -17.5362  -50.3051 O.2       19 UNK        -0.5000 
    109 N         -6.9207  -17.8948  -51.0214 N.am      20 UNK        -0.5000 
    110 CA        -7.0243  -16.7507  -51.9316 C.3       20 UNK         0.1400 
    111 CB        -8.4932  -16.5720  -52.3445 C.3       20 UNK        -0.1800 
    112 C         -6.1264  -16.8850  -53.1783 C.2       20 UNK         0.5000 
    113 O         -5.6776  -15.8720  -53.7150 O.2       20 UNK        -0.5000 
    114 N         -5.8678  -18.1300  -53.6012 N.am      21 UNK        -0.5000 
    115 CA        -4.9473  -18.4737  -54.6867 C.3       21 UNK         0.1400 
    116 CB        -5.4689  -19.7414  -55.3837 C.3       21 UNK        -0.1800 
    117 C         -3.5055  -18.6921  -54.1840 C.2       21 UNK         0.5000 
    118 O         -2.5967  -18.8292  -55.0038 O.2       21 UNK        -0.5000 
    119 N         -3.3239  -18.7370  -52.8571 N.am      22 UNK        -0.5000 
    120 CA        -2.0859  -19.1042  -52.1560 C.3       22 UNK         0.1400 
    121 C         -1.6846  -20.5997  -52.3451 C.2       22 UNK         0.5000 
    122 N         -2.6394  -21.4990  -52.5500 N.am      22 UNK        -0.7600 
    123 O         -0.5120  -20.9601  -52.3029 O.2       22 UNK        -0.5000 
    124 C124       -0.9304  -18.0921  -52.4115 C.3       23 UNK        -0.0398 
    125 S125       -0.0572  -17.6695  -50.8707 S.3       23 UNK        -0.2404 
    126 C126        1.6003  -18.3537  -51.1606 C.3       23 UNK        -0.0205 
    127 H127       -1.6753  -15.6032  -48.9503 H         1 UNK         0.0600 
    128 H128       -2.9469  -14.4481  -49.3424 H         1 UNK         0.0600 
    129 H129       -2.2097  -15.4155  -50.6221 H         1 UNK         0.0600 
    130 H130        0.3256  -14.6309  -48.6027 H         1 UNK         0.3000 
    131 H131        1.3028  -12.4631  -50.2631 H         1 UNK         0.0600 
    132 H132        2.9826  -13.9810  -49.6953 H         1 UNK         0.0800 
    133 H133        3.3411  -12.5858  -48.7462 H         1 UNK         0.0800 
    134 H134        4.6335  -15.6734  -46.8091 H         1 UNK         0.0800 
    135 H135        4.7154  -15.1046  -48.4481 H         1 UNK         0.0800 
    136 H136        2.5337  -16.1286  -49.9373 H         1 UNK         0.1150 
    137 H137        2.5664  -20.3885  -49.6258 H         1 UNK         0.1150 
    138 H138        4.5415  -18.0185  -46.6492 H         1 UNK         0.1150 
    139 H139        4.4008  -21.3432  -48.1043 H         1 UNK         0.0800 
    140 H140        4.9602  -20.3931  -46.7587 H         1 UNK         0.0800 
    141 H141        2.2191  -22.3801  -48.3608 H         1 UNK         0.0800 
    142 H142        1.0112  -21.2359  -47.8411 H         1 UNK         0.0800 
    143 H143        1.4779  -24.0513  -46.7224 H         1 UNK         0.0600 
    144 H144        0.1177  -21.9616  -45.3966 H         1 UNK         0.3000 
    145 H145       -2.4070  -23.8987  -43.7585 H         1 UNK         0.0600 
    146 H146       -1.3667  -22.7314  -41.7946 H         1 UNK         0.0600 
    147 H147       -0.4754  -24.1651  -42.2819 H         1 UNK         0.0600 
    148 H148        0.1415  -22.5758  -42.6956 H         1 UNK         0.0600 
    149 H149       -1.5472  -21.1103  -43.9237 H         1 UNK         0.3000 
    150 H150       -3.9025  -20.2194  -46.4388 H         1 UNK         0.0600 
    151 H151       -5.3467  -20.2652  -44.4048 H         1 UNK         0.0600 
    152 H152       -4.7518  -18.6446  -44.7269 H         1 UNK         0.0600 
    153 H153       -4.0304  -19.6096  -43.4377 H         1 UNK         0.0600 
    154 H154       -2.1373  -18.6932  -44.7582 H         1 UNK         0.3000 
    155 H155        0.7906  -19.1092  -46.7099 H         1 UNK         0.0600 
    156 H156       -0.5180  -17.4435  -48.0438 H         1 UNK         0.0600 
    157 H157       -0.9928  -16.6309  -46.5560 H         1 UNK         0.0600 
    158 H158        0.7048  -16.6931  -47.0348 H         1 UNK         0.0600 
    159 H159        0.4611  -17.3121  -44.6402 H         1 UNK         0.3000 
    160 H160        0.2832  -18.3326  -42.0120 H         1 UNK         0.0600 
    161 H161        2.2254  -19.4174  -40.8214 H         1 UNK         0.0600 
    162 H162        1.1255  -20.6073  -41.4965 H         1 UNK         0.0600 
    163 H163        2.6514  -20.2674  -42.3069 H         1 UNK         0.0600 
    164 H164        2.5564  -17.6845  -43.7284 H         1 UNK         0.3000 
    165 H165        3.6400  -14.9513  -41.9885 H         1 UNK         0.0600 
    166 H166        4.6133  -15.0620  -44.2528 H         1 UNK         0.0600 
    167 H167        4.6308  -16.6641  -43.5394 H         1 UNK         0.0600 
    168 H168        3.4269  -16.2536  -44.7627 H         1 UNK         0.0600 
    169 H169        2.4632  -13.3586  -43.0243 H         1 UNK         0.3000 
    170 H170        0.9421  -12.8198  -45.5101 H         1 UNK         0.0600 
    171 H171       -1.4817  -12.2553  -45.1464 H         1 UNK         0.0600 
    172 H172       -1.5904  -13.5519  -43.9539 H         1 UNK         0.0600 
    173 H173       -1.2334  -13.9215  -45.6356 H         1 UNK         0.0600 
    174 H174        1.2881  -11.1842  -44.1132 H         1 UNK         0.3000 
    175 H175       -0.0946  -10.0650  -41.1771 H         1 UNK         0.0600 
    176 H176        2.7786  -11.1407  -41.1320 H         1 UNK         0.0600 
    177 H177        2.1364   -9.8625  -40.0996 H         1 UNK         0.0600 
    178 H178        1.5336  -11.5037  -39.9432 H         1 UNK         0.0600 
    179 H179        2.2676   -9.2546  -42.6097 H         1 UNK         0.3000 
    180 H180        0.7060   -6.7573  -44.2419 H         1 UNK         0.0600 
    181 H181        3.3273   -8.3555  -44.1481 H         1 UNK         0.0600 
    182 H182        2.8248   -7.1245  -42.9895 H         1 UNK         0.0600 
    183 H183        3.1427   -6.6831  -44.6549 H         1 UNK         0.0600 
    184 H184        0.6118   -7.3667  -46.3536 H         1 UNK         0.3000 
    185 H185        0.2496   -8.9418  -48.1196 H         1 UNK         0.0600 
    186 H186        3.2481   -8.3763  -48.4673 H         1 UNK         0.0600 
    187 H187        2.0126   -8.1481  -49.7050 H         1 UNK         0.0600 
    188 H188        1.9986   -7.1567  -48.2602 H         1 UNK         0.0600 
    189 H189        2.3508  -10.5472  -49.1596 H         1 UNK         0.3000 
    190 H190       -1.3615  -22.1173  -47.7738 H         1 UNK         0.3000 
    191 H191       -1.8739  -23.4465  -50.2029 H         1 UNK         0.0600 
    192 H192       -3.8256  -22.0201  -48.3189 H         1 UNK         0.0600 
    193 H193       -4.1076  -22.3990  -50.0124 H         1 UNK         0.0600 
    194 H194       -2.8507  -21.2528  -49.5709 H         1 UNK         0.0600 
    195 H195       -3.1984  -24.0987  -46.9049 H         1 UNK         0.3000 
    196 H196       -4.8676  -26.2521  -47.6091 H         1 UNK         0.0600 
    197 H197       -4.8047  -26.7930  -45.1800 H         1 UNK         0.0600 
    198 H198       -5.0016  -25.0659  -45.4338 H         1 UNK         0.0600 
    199 H199       -3.4337  -25.7159  -44.9558 H         1 UNK         0.0600 
    200 H200       -1.4115  -26.2825  -46.6132 H         1 UNK         0.3000 
    201 H201       -1.0386  -29.1004  -46.7118 H         1 UNK         0.0600 
    202 H202        0.5212  -27.5664  -45.5521 H         1 UNK         0.0600 
    203 H203        0.9712  -26.8158  -47.0811 H         1 UNK         0.0600 
    204 H204        1.3867  -28.4966  -46.7662 H         1 UNK         0.0600 
    205 H205       -0.8227  -26.6021  -49.2408 H         1 UNK         0.3000 
    206 H206        0.0903  -28.3950  -51.3334 H         1 UNK         0.0600 
    207 H207        0.5958  -25.9518  -51.3286 H         1 UNK         0.0600 
    208 H208       -0.2953  -26.4055  -52.7730 H         1 UNK         0.0600 
    209 H209       -1.1219  -25.5817  -51.4584 H         1 UNK         0.0600 
    210 H210       -2.9195  -27.9885  -49.8345 H         1 UNK         0.3000 
    211 H211       -5.0147  -28.5583  -50.1667 H         1 UNK         0.0600 
    212 H212       -4.0904  -30.3055  -52.5085 H         1 UNK         0.0600 
    213 H213       -5.6148  -30.4322  -51.6436 H         1 UNK         0.0600 
    214 H214       -4.1104  -30.8001  -50.8161 H         1 UNK         0.0600 
    215 H215       -4.2571  -26.1190  -51.0811 H         1 UNK         0.3000 
    216 H216       -5.9286  -25.5919  -53.5064 H         1 UNK         0.0600 
    217 H217       -4.2987  -23.7108  -53.9116 H         1 UNK         0.0600 
    218 H218       -3.4919  -25.2705  -53.9580 H         1 UNK         0.0600 
    219 H219       -3.3427  -24.2507  -52.5314 H         1 UNK         0.0600 
    220 H220       -6.6353  -23.2434  -53.4992 H         1 UNK         0.3000 
    221 H221       -7.9964  -22.5648  -51.0132 H         1 UNK         0.0600 
    222 H222       -7.8191  -21.1204  -53.7197 H         1 UNK         0.0600 
    223 H223       -9.0923  -22.2364  -53.2291 H         1 UNK         0.0600 
    224 H224       -8.9082  -20.6974  -52.4044 H         1 UNK         0.0600 
    225 H225       -7.5277  -20.8446  -49.6504 H         1 UNK         0.3000 
    226 H226       -4.8536  -19.8902  -49.4432 H         1 UNK         0.0600 
    227 H227       -6.3340  -20.1908  -47.4817 H         1 UNK         0.0600 
    228 H228       -5.7713  -18.5298  -47.5700 H         1 UNK         0.0600 
    229 H229       -7.4130  -18.9235  -48.0673 H         1 UNK         0.0600 
    230 H230       -7.7261  -18.4996  -50.9577 H         1 UNK         0.3000 
    231 H231       -6.7080  -15.8561  -51.3909 H         1 UNK         0.0600 
    232 H232       -8.6112  -15.7120  -53.0052 H         1 UNK         0.0600 
    233 H233       -9.1296  -16.4021  -51.4759 H         1 UNK         0.0600 
    234 H234       -8.8724  -17.4471  -52.8740 H         1 UNK         0.0600 
    235 H235       -6.2514  -18.9080  -53.0837 H         1 UNK         0.3000 
    236 H236       -4.9242  -17.6656  -55.4207 H         1 UNK         0.0600 
    237 H237       -6.4848  -19.6002  -55.7527 H         1 UNK         0.0600 
    238 H238       -4.8458  -20.0000  -56.2407 H         1 UNK         0.0600 
    239 H239       -5.4711  -20.6002  -54.7117 H         1 UNK         0.0600 
    240 H240       -4.1302  -18.6038  -52.2640 H         1 UNK         0.3000 
    241 H241       -2.3645  -19.0387  -51.1034 H         1 UNK         0.0600 
    242 H242       -3.6192  -21.2297  -52.5186 H         1 UNK         0.3800 
    243 H243       -2.3790  -22.4576  -52.7006 H         1 UNK         0.3800 
    244 H244       -0.2347  -18.4494  -53.1725 H         1 UNK         0.0800 
    245 H245       -1.3264  -17.1529  -52.7997 H         1 UNK         0.0800 
    246 H246        1.5135  -19.3891  -51.4925 H         1 UNK         0.0800 
    247 H247        2.0872  -17.8035  -51.9668 H         1 UNK         0.0800 
@<TRIPOS>BOND
     1    1    2 1    
     2    1  127 1    
     3    1  128 1    
     4    1  129 1    
     5    2    3 2    
     6    2    4 am   BACKBONE|DICT|INTERRES
     7    4    5 1    
     8    4  130 1    
     9    5    6 1    
    10    5   65 1    
    11    5  131 1    
    12    6    7 1    
    13    6  132 1    
    14    6  133 1    
    15    7    8 1    
    16    8    9 1    
    17    8  134 1    
    18    8  135 1    
    19    9   10 ar   
    20    9   14 ar   
    21   10   11 ar   
    22   10  136 1    
    23   11   12 ar   
    24   11  126 1    
    25   12   13 ar   
    26   12  137 1    
    27   13   14 ar   
    28   13   15 1    
    29   14  138 1    
    30   15   16 1    
    31   15  139 1    
    32   15  140 1    
    33   16   17 1    
    34   17   18 1    
    35   17  141 1    
    36   17  142 1    
    37   18   19 1    
    38   18   67 1    
    39   18  143 1    
    40   19   20 am   BACKBONE|DICT|INTERRES
    41   19  144 1    
    42   20   21 2    
    43   20   22 1    
    44   22   23 1    
    45   22   24 1    
    46   22  145 1    
    47   23  146 1    
    48   23  147 1    
    49   23  148 1    
    50   24   25 am   BACKBONE|DICT|INTERRES
    51   24  149 1    
    52   25   26 2    
    53   25   27 1    
    54   27   28 1    
    55   27   29 1    
    56   27  150 1    
    57   28  151 1    
    58   28  152 1    
    59   28  153 1    
    60   29   30 am   BACKBONE|DICT|INTERRES
    61   29  154 1    
    62   30   31 2    
    63   30   32 1    
    64   32   33 1    
    65   32   34 1    
    66   32  155 1    
    67   33  156 1    
    68   33  157 1    
    69   33  158 1    
    70   34   35 am   BACKBONE|DICT|INTERRES
    71   34  159 1    
    72   35   36 2    
    73   35   37 1    
    74   37   38 1    
    75   37   39 1    
    76   37  160 1    
    77   38  161 1    
    78   38  162 1    
    79   38  163 1    
    80   39   40 am   BACKBONE|DICT|INTERRES
    81   39  164 1    
    82   40   41 2    
    83   40   42 1    
    84   42   43 1    
    85   42   44 1    
    86   42  165 1    
    87   43  166 1    
    88   43  167 1    
    89   43  168 1    
    90   44   45 am   BACKBONE|DICT|INTERRES
    91   44  169 1    
    92   45   46 2    
    93   45   47 1    
    94   47   48 1    
    95   47   49 1    
    96   47  170 1    
    97   48  171 1    
    98   48  172 1    
    99   48  173 1    
   100   49   50 am   BACKBONE|DICT|INTERRES
   101   49  174 1    
   102   50   51 2    
   103   50   52 1    
   104   52   53 1    
   105   52   54 1    
   106   52  175 1    
   107   53  176 1    
   108   53  177 1    
   109   53  178 1    
   110   54   55 am   BACKBONE|DICT|INTERRES
   111   54  179 1    
   112   55   56 2    
   113   55   57 1    
   114   57   58 1    
   115   57   59 1    
   116   57  180 1    
   117   58  181 1    
   118   58  182 1    
   119   58  183 1    
   120   59   60 am   BACKBONE|DICT|INTERRES
   121   59  184 1    
   122   60   61 2    
   123   60   62 1    
   124   62   63 1    
   125   62   64 1    
   126   62  185 1    
   127   63  186 1    
   128   63  187 1    
   129   63  188 1    
   130   64   65 am   BACKBONE|DICT|INTERRES
   131   64  189 1    
   132   65   66 2    
   133   67   68 2    
   134   67   69 am   BACKBONE|DICT|INTERRES
   135   69   70 1    
   136   69  190 1    
   137   70   71 1    
   138   70   72 1    
   139   70  191 1    
   140   71  192 1    
   141   71  193 1    
   142   71  194 1    
   143   72   73 2    
   144   72   74 am   BACKBONE|DICT|INTERRES
   145   74   75 1    
   146   74  195 1    
   147   75   76 1    
   148   75   77 1    
   149   75  196 1    
   150   76  197 1    
   151   76  198 1    
   152   76  199 1    
   153   77   78 2    
   154   77   79 am   BACKBONE|DICT|INTERRES
   155   79   80 1    
   156   79  200 1    
   157   80   81 1    
   158   80   82 1    
   159   80  201 1    
   160   81  202 1    
   161   81  203 1    
   162   81  204 1    
   163   82   83 2    
   164   82   84 am   BACKBONE|DICT|INTERRES
   165   84   85 1    
   166   84  205 1    
   167   85   86 1    
   168   85   87 1    
   169   85  206 1    
   170   86  207 1    
   171   86  208 1    
   172   86  209 1    
   173   87   88 2    
   174   87   89 am   BACKBONE|DICT|INTERRES
   175   89   90 1    
   176   89  210 1    
   177   90   91 1    
   178   90   92 1    
   179   90  211 1    
   180   91  212 1    
   181   91  213 1    
   182   91  214 1    
   183   92   93 2    
   184   92   94 am   BACKBONE|DICT|INTERRES
   185   94   95 1    
   186   94  215 1    
   187   95   96 1    
   188   95   97 1    
   189   95  216 1    
   190   96  217 1    
   191   96  218 1    
   192   96  219 1    
   193   97   98 2    
   194   97   99 am   BACKBONE|DICT|INTERRES
   195   99  100 1    
   196   99  220 1    
   197  100  101 1    
   198  100  102 1    
   199  100  221 1    
   200  101  222 1    
   201  101  223 1    
   202  101  224 1    
   203  102  103 2    
   204  102  104 am   BACKBONE|DICT|INTERRES
   205  104  105 1    
   206  104  225 1    
   207  105  106 1    
   208  105  107 1    
   209  105  226 1    
   210  106  227 1    
   211  106  228 1    
   212  106  229 1    
   213  107  108 2    
   214  107  109 am   BACKBONE|DICT|INTERRES
   215  109  110 1    
   216  109  230 1    
   217  110  111 1    
   218  110  112 1    
   219  110  231 1    
   220  111  232 1    
   221  111  233 1    
   222  111  234 1    
   223  112  113 2    
   224  112  114 am   BACKBONE|DICT|INTERRES
   225  114  115 1    
   226  114  235 1    
   227  115  116 1    
   228  115  117 1    
   229  115  236 1    
   230  116  237 1    
   231  116  238 1    
   232  116  239 1    
   233  117  118 2    
   234  117  119 am   BACKBONE|DICT|INTERRES
   235  119  120 1    
   236  119  240 1    
   237  120  121 1    
   238  120  124 1    
   239  120  241 1    
   240  121  122 am   BACKBONE|DICT|INTERRES
   241  121  123 2    
   242  122  242 1    
   243  122  243 1    
   244  124  125 1    
   245  124  244 1    
   246  124  245 1    
   247  125  126 1    
   248  126  246 1    
   249  126  247 1    
@<TRIPOS>SUBSTRUCTURE
     1 UNK         1 GROUP             0       ****    0 ROOT    
