@<TRIPOS>MOLECULE
3R540
247   249    1
SMALL
USER_CHARGES


@<TRIPOS>ATOM
      1 CA          3.4781  -13.0770  -53.0142 C.3       0 UNK        -0.1800 
      2 C           3.0860  -12.9464  -51.5490 C.2       0 UNK         0.5000 
      3 O           3.0229  -11.8328  -51.0273 O.2       0 UNK        -0.5000 
      4 N           2.8302  -14.0787  -50.8843 N.am      1 UNK        -0.5000 
      5 CA          2.3809  -14.1472  -49.4916 C.3       1 UNK         0.1400 
      6 C6          2.5622  -15.5629  -48.8886 C.3       23 UNK        -0.0398 
      7 S7          4.3153  -16.0410  -48.7103 S.3       23 UNK        -0.2404 
      8 C8          4.6335  -17.0126  -50.2203 C.3       23 UNK        -0.0205 
      9 C9          3.8694  -18.3283  -50.2433 C.ar      23 UNK        -0.0193 
     10 C10         2.7008  -18.4527  -51.0021 C.ar      23 UNK        -0.1150 
     11 C11         1.9975  -19.6591  -51.0235 C.ar      23 UNK        -0.0193 
     12 C12         2.4871  -20.7540  -50.3104 C.ar      23 UNK        -0.1150 
     13 C13         3.6436  -20.6401  -49.5348 C.ar      23 UNK        -0.0193 
     14 C14         4.3344  -19.4247  -49.5092 C.ar      23 UNK        -0.1150 
     15 C15         4.1332  -21.8262  -48.7151 C.3       23 UNK        -0.0205 
     16 S16         3.5966  -21.7196  -46.9758 S.3       23 UNK        -0.2404 
     17 C17         1.7814  -21.8439  -47.1248 C.3       23 UNK        -0.0398 
     18 CA          1.1692  -22.9713  -46.2664 C.3       11 UNK         0.1400 
     19 N           1.4137  -22.7707  -44.8373 N.am      11 UNK        -0.5000 
     20 C           1.2274  -23.6758  -43.8692 C.2       10 UNK         0.5000 
     21 O           0.8715  -24.8341  -44.0898 O.2       10 UNK        -0.5000 
     22 CA          1.4041  -23.1828  -42.4157 C.3       10 UNK         0.1400 
     23 CB          1.9947  -24.2628  -41.4865 C.3       10 UNK        -0.1800 
     24 N           2.1366  -21.9137  -42.3083 N.am      10 UNK        -0.5000 
     25 C           3.4298  -21.6803  -42.5834 C.2       9 UNK         0.5000 
     26 O           4.2300  -22.5581  -42.9076 O.2       9 UNK        -0.5000 
     27 CA          3.9156  -20.2165  -42.5175 C.3       9 UNK         0.1400 
     28 CB          4.2544  -19.7033  -43.9259 C.3       9 UNK        -0.1800 
     29 N           2.9487  -19.2990  -41.9115 N.am      9 UNK        -0.5000 
     30 C           2.6982  -19.1982  -40.5999 C.2       8 UNK         0.5000 
     31 O           3.2922  -19.8471  -39.7382 O.2       8 UNK        -0.5000 
     32 CA          1.5688  -18.2347  -40.1855 C.3       8 UNK         0.1400 
     33 CB          2.0998  -16.7993  -40.0547 C.3       8 UNK        -0.1800 
     34 N           0.4269  -18.2517  -41.1048 N.am      8 UNK        -0.5000 
     35 C          -0.3574  -19.3167  -41.3262 C.2       7 UNK         0.5000 
     36 O          -0.2045  -20.4057  -40.7729 O.2       7 UNK        -0.5000 
     37 CA         -1.4686  -19.1596  -42.3785 C.3       7 UNK         0.1400 
     38 CB         -2.6665  -18.3822  -41.8145 C.3       7 UNK        -0.1800 
     39 N          -0.9902  -18.5249  -43.6068 N.am      7 UNK        -0.5000 
     40 C          -0.0928  -19.0742  -44.4370 C.2       6 UNK         0.5000 
     41 O           0.3572  -20.2097  -44.2925 O.2       6 UNK        -0.5000 
     42 CA          0.4201  -18.2071  -45.6006 C.3       6 UNK         0.1400 
     43 CB         -0.5264  -18.2908  -46.8069 C.3       6 UNK        -0.1800 
     44 N           0.6119  -16.8096  -45.2175 N.am      6 UNK        -0.5000 
     45 C           1.4854  -16.3876  -44.2925 C.2       5 UNK         0.5000 
     46 O           2.2646  -17.1295  -43.6966 O.2       5 UNK        -0.5000 
     47 CA          1.4333  -14.8960  -43.9258 C.3       5 UNK         0.1400 
     48 CB          2.1797  -14.0424  -44.9623 C.3       5 UNK        -0.1800 
     49 N           0.0556  -14.4232  -43.7861 N.am      5 UNK        -0.5000 
     50 C          -0.7679  -14.7866  -42.7924 C.2       4 UNK         0.5000 
     51 O          -0.4367  -15.5311  -41.8699 O.2       4 UNK        -0.5000 
     52 CA         -2.2122  -14.2571  -42.8594 C.3       4 UNK         0.1400 
     53 CB         -2.3012  -12.8523  -42.2451 C.3       4 UNK        -0.1800 
     54 N          -2.7390  -14.2228  -44.2247 N.am      4 UNK        -0.5000 
     55 C          -3.0136  -15.3109  -44.9586 C.2       3 UNK         0.5000 
     56 O          -2.8780  -16.4632  -44.5499 O.2       3 UNK        -0.5000 
     57 CA         -3.4582  -15.0644  -46.4143 C.3       3 UNK         0.1400 
     58 CB         -4.9642  -14.7706  -46.4764 C.3       3 UNK        -0.1800 
     59 N          -2.7229  -13.9747  -47.0671 N.am      3 UNK        -0.5000 
     60 C          -1.3944  -13.9582  -47.2347 C.2       2 UNK         0.5000 
     61 O          -0.6512  -14.8588  -46.8372 O.2       2 UNK        -0.5000 
     62 CA         -0.7901  -12.7042  -47.8951 C.3       2 UNK         0.1400 
     63 CB         -0.7682  -11.5353  -46.8967 C.3       2 UNK        -0.1800 
     64 N           0.5805  -12.9612  -48.3368 N.am      2 UNK        -0.5000 
     65 C           0.9033  -13.7232  -49.3880 C.2       1 UNK         0.5000 
     66 O           0.0878  -14.1287  -50.2201 O.2       1 UNK        -0.5000 
     67 C          -0.3378  -23.0874  -46.5714 C.2       11 UNK         0.5000 
     68 O          -0.7042  -23.7435  -47.5454 O.2       11 UNK        -0.5000 
     69 N          -1.1833  -22.4902  -45.7170 N.am      12 UNK        -0.5000 
     70 CA         -2.6482  -22.5330  -45.7876 C.3       12 UNK         0.1400 
     71 CB         -3.2237  -21.6372  -44.6815 C.3       12 UNK        -0.1800 
     72 C          -3.2547  -23.9529  -45.7034 C.2       12 UNK         0.5000 
     73 O          -4.4071  -24.1448  -46.0920 O.2       12 UNK        -0.5000 
     74 N          -2.4782  -24.9220  -45.1989 N.am      13 UNK        -0.5000 
     75 CA         -2.8294  -26.3410  -45.1829 C.3       13 UNK         0.1400 
     76 CB         -2.0783  -27.0175  -44.0255 C.3       13 UNK        -0.1800 
     77 C          -2.5104  -27.0518  -46.5151 C.2       13 UNK         0.5000 
     78 O          -3.0757  -28.1157  -46.7715 O.2       13 UNK        -0.5000 
     79 N          -1.6054  -26.4820  -47.3238 N.am      14 UNK        -0.5000 
     80 CA         -1.1197  -27.0629  -48.5762 C.3       14 UNK         0.1400 
     81 CB          0.3998  -26.8481  -48.6705 C.3       14 UNK        -0.1800 
     82 C          -1.8207  -26.4648  -49.8075 C.2       14 UNK         0.5000 
     83 O          -2.0512  -27.1889  -50.7771 O.2       14 UNK        -0.5000 
     84 N          -2.1497  -25.1695  -49.7565 N.am      15 UNK        -0.5000 
     85 CA         -2.8380  -24.4308  -50.8120 C.3       15 UNK         0.1400 
     86 CB         -1.8016  -23.7785  -51.7404 C.3       15 UNK        -0.1800 
     87 C          -3.7551  -23.3767  -50.1787 C.2       15 UNK         0.5000 
     88 O          -3.5793  -23.0401  -49.0081 O.2       15 UNK        -0.5000 
     89 N          -4.7202  -22.8737  -50.9581 N.am      16 UNK        -0.5000 
     90 CA         -5.7098  -21.8920  -50.5091 C.3       16 UNK         0.1400 
     91 CB         -6.8108  -21.7608  -51.5698 C.3       16 UNK        -0.1800 
     92 C          -5.0958  -20.5163  -50.1972 C.2       16 UNK         0.5000 
     93 O          -5.4548  -19.9077  -49.1886 O.2       16 UNK        -0.5000 
     94 N          -4.1894  -20.0602  -51.0736 N.am      17 UNK        -0.5000 
     95 CA         -3.3796  -18.8358  -51.0264 C.3       17 UNK         0.1400 
     96 CB         -2.4590  -18.8324  -49.7902 C.3       17 UNK        -0.1800 
     97 C          -4.1641  -17.5104  -51.1291 C.2       17 UNK         0.5000 
     98 O          -3.7132  -16.5971  -51.8196 O.2       17 UNK        -0.5000 
     99 N          -5.2974  -17.4125  -50.4255 N.am      18 UNK        -0.5000 
    100 CA        -6.0764  -16.1919  -50.2330 C.3       18 UNK         0.1400 
    101 CB        -7.1167  -16.4298  -49.1265 C.3       18 UNK        -0.1800 
    102 C         -6.7502  -15.6634  -51.5113 C.2       18 UNK         0.5000 
    103 O         -6.6069  -14.4795  -51.8204 O.2       18 UNK        -0.5000 
    104 N         -7.4932  -16.5310  -52.2118 N.am      19 UNK        -0.5000 
    105 CA        -8.3407  -16.1489  -53.3468 C.3       19 UNK         0.1400 
    106 CB        -9.6220  -15.4527  -52.8375 C.3       19 UNK        -0.1800 
    107 C         -8.6500  -17.3402  -54.2733 C.2       19 UNK         0.5000 
    108 O         -9.7135  -17.3709  -54.8955 O.2       19 UNK        -0.5000 
    109 N         -7.7264  -18.3037  -54.3578 N.am      20 UNK        -0.5000 
    110 CA        -7.8202  -19.4727  -55.2303 C.3       20 UNK         0.1400 
    111 CB        -8.7658  -20.5356  -54.6272 C.3       20 UNK        -0.1800 
    112 C         -6.3978  -19.9664  -55.5416 C.2       20 UNK         0.5000 
    113 O         -5.5406  -19.1401  -55.8636 O.2       20 UNK        -0.5000 
    114 N         -6.1607  -21.2827  -55.4477 N.am      21 UNK        -0.5000 
    115 CA        -4.8743  -21.9427  -55.6870 C.3       21 UNK         0.1400 
    116 CB        -5.0207  -23.4445  -55.3972 C.3       21 UNK        -0.1800 
    117 C         -3.7423  -21.3406  -54.8356 C.2       21 UNK         0.5000 
    118 O         -3.8816  -21.2758  -53.6121 O.2       21 UNK        -0.5000 
    119 N         -2.6684  -20.8970  -55.5020 N.am      22 UNK        -0.5000 
    120 CA        -1.5291  -20.1609  -54.9226 C.3       22 UNK         0.1400 
    121 C         -1.8366  -18.6681  -54.5741 C.2       22 UNK         0.5000 
    122 N         -3.0291  -18.1425  -54.8271 N.am      22 UNK        -0.7600 
    123 O         -0.9669  -17.9467  -54.0983 O.2       22 UNK        -0.5000 
    124 C124       -0.8633  -20.9529  -53.7601 C.3       23 UNK        -0.0398 
    125 S125        0.8779  -20.5382  -53.4053 S.3       23 UNK        -0.2404 
    126 C126        0.6789  -19.7772  -51.7652 C.3       23 UNK        -0.0205 
    127 H127        4.4645  -12.6434  -53.1788 H         1 UNK         0.0600 
    128 H128        2.7622  -12.5472  -53.6426 H         1 UNK         0.0600 
    129 H129        3.5070  -14.1185  -53.3355 H         1 UNK         0.0600 
    130 H130        2.8561  -14.9568  -51.3789 H         1 UNK         0.3000 
    131 H131        2.9824  -13.4482  -48.9056 H         1 UNK         0.0600 
    132 H132        2.0195  -16.3069  -49.4709 H         1 UNK         0.0800 
    133 H133        2.1270  -15.6069  -47.8883 H         1 UNK         0.0800 
    134 H134        5.7028  -17.2212  -50.2777 H         1 UNK         0.0800 
    135 H135        4.4005  -16.4153  -51.1019 H         1 UNK         0.0800 
    136 H136        2.3269  -17.6078  -51.5630 H         1 UNK         0.1150 
    137 H137        1.9481  -21.6901  -50.3447 H         1 UNK         0.1150 
    138 H138        5.2290  -19.3288  -48.9098 H         1 UNK         0.1150 
    139 H139        3.7827  -22.7648  -49.1475 H         1 UNK         0.0800 
    140 H140        5.2230  -21.8653  -48.7461 H         1 UNK         0.0800 
    141 H141        1.5192  -22.0147  -48.1668 H         1 UNK         0.0800 
    142 H142        1.3538  -20.8765  -46.8607 H         1 UNK         0.0800 
    143 H143        1.6324  -23.9164  -46.5581 H         1 UNK         0.0600 
    144 H144        1.6089  -21.8177  -44.5543 H         1 UNK         0.3000 
    145 H145        0.3968  -22.9656  -42.0576 H         1 UNK         0.0600 
    146 H146        2.1111  -23.8872  -40.4698 H         1 UNK         0.0600 
    147 H147        1.3404  -25.1338  -41.4366 H         1 UNK         0.0600 
    148 H148        2.9687  -24.6098  -41.8316 H         1 UNK         0.0600 
    149 H149        1.5674  -21.1168  -42.0517 H         1 UNK         0.3000 
    150 H150        4.8297  -20.2028  -41.9206 H         1 UNK         0.0600 
    151 H151        4.9964  -20.3390  -44.4106 H         1 UNK         0.0600 
    152 H152        4.6660  -18.6945  -43.8905 H         1 UNK         0.0600 
    153 H153        3.3717  -19.6812  -44.5663 H         1 UNK         0.0600 
    154 H154        2.4678  -18.6675  -42.5471 H         1 UNK         0.3000 
    155 H155        1.2084  -18.5527  -39.2051 H         1 UNK         0.0600 
    156 H156        2.9370  -16.7537  -39.3571 H         1 UNK         0.0600 
    157 H157        1.3280  -16.1262  -39.6810 H         1 UNK         0.0600 
    158 H158        2.4475  -16.4100  -41.0119 H         1 UNK         0.0600 
    159 H159        0.2119  -17.3778  -41.5758 H         1 UNK         0.3000 
    160 H160       -1.8136  -20.1625  -42.6315 H         1 UNK         0.0600 
    161 H161       -2.4019  -17.3556  -41.5627 H         1 UNK         0.0600 
    162 H162       -3.0469  -18.8550  -40.9084 H         1 UNK         0.0600 
    163 H163       -3.4860  -18.3496  -42.5326 H         1 UNK         0.0600 
    164 H164       -1.3787  -17.6155  -43.8337 H         1 UNK         0.3000 
    165 H165        1.3922  -18.6016  -45.9030 H         1 UNK         0.0600 
    166 H166       -0.1227  -17.7470  -47.6614 H         1 UNK         0.0600 
    167 H167       -0.6758  -19.3252  -47.1191 H         1 UNK         0.0600 
    168 H168       -1.5070  -17.8724  -46.5786 H         1 UNK         0.0600 
    169 H169        0.0323  -16.1210  -45.6929 H         1 UNK         0.3000 
    170 H170        1.9349  -14.7712  -42.9638 H         1 UNK         0.0600 
    171 H171        3.2191  -14.3611  -45.0514 H         1 UNK         0.0600 
    172 H172        1.7304  -14.1201  -45.9507 H         1 UNK         0.0600 
    173 H173        2.1851  -12.9904  -44.6769 H         1 UNK         0.0600 
    174 H174       -0.3112  -13.8593  -44.5371 H         1 UNK         0.3000 
    175 H175       -2.8401  -14.9276  -42.2688 H         1 UNK         0.0600 
    176 H176       -1.9304  -12.8514  -41.2191 H         1 UNK         0.0600 
    177 H177       -1.7124  -12.1267  -42.8077 H         1 UNK         0.0600 
    178 H178       -3.3322  -12.4991  -42.2168 H         1 UNK         0.0600 
    179 H179       -2.8784  -13.3135  -44.6393 H         1 UNK         0.3000 
    180 H180       -3.2647  -15.9790  -46.9790 H         1 UNK         0.0600 
    181 H181       -5.2228  -13.8670  -45.9231 H         1 UNK         0.0600 
    182 H182       -5.5396  -15.5932  -46.0496 H         1 UNK         0.0600 
    183 H183       -5.2989  -14.6385  -47.5047 H         1 UNK         0.0600 
    184 H184       -3.2721  -13.1972  -47.4040 H         1 UNK         0.3000 
    185 H185       -1.4008  -12.4300  -48.7578 H         1 UNK         0.0600 
    186 H186       -1.7750  -11.2790  -46.5650 H         1 UNK         0.0600 
    187 H187       -0.1800  -11.7719  -46.0089 H         1 UNK         0.0600 
    188 H188       -0.3425  -10.6398  -47.3499 H         1 UNK         0.0600 
    189 H189        1.3096  -12.6736  -47.7017 H         1 UNK         0.3000 
    190 H190       -0.7808  -21.9403  -44.9679 H         1 UNK         0.3000 
    191 H191       -2.9403  -22.1045  -46.7463 H         1 UNK         0.0600 
    192 H192       -2.9347  -21.9897  -43.6910 H         1 UNK         0.0600 
    193 H193       -4.3137  -21.6209  -44.7188 H         1 UNK         0.0600 
    194 H194       -2.8846  -20.6073  -44.7933 H         1 UNK         0.0600 
    195 H195       -1.5483  -24.6840  -44.8831 H         1 UNK         0.3000 
    196 H196       -3.9006  -26.4461  -44.9982 H         1 UNK         0.0600 
    197 H197       -2.3411  -28.0736  -43.9528 H         1 UNK         0.0600 
    198 H198       -2.3263  -26.5551  -43.0699 H         1 UNK         0.0600 
    199 H199       -0.9971  -26.9566  -44.1570 H         1 UNK         0.0600 
    200 H200       -1.2405  -25.5653  -47.0903 H         1 UNK         0.3000 
    201 H201       -1.3015  -28.1397  -48.5821 H         1 UNK         0.0600 
    202 H202        0.9147  -27.3001  -47.8226 H         1 UNK         0.0600 
    203 H203        0.6602  -25.7894  -48.6946 H         1 UNK         0.0600 
    204 H204        0.8020  -27.3042  -49.5760 H         1 UNK         0.0600 
    205 H205       -1.9440  -24.6274  -48.9218 H         1 UNK         0.3000 
    206 H206       -3.4649  -25.1126  -51.3906 H         1 UNK         0.0600 
    207 H207       -1.1292  -24.5213  -52.1698 H         1 UNK         0.0600 
    208 H208       -2.2955  -23.2731  -52.5695 H         1 UNK         0.0600 
    209 H209       -1.1949  -23.0413  -51.2124 H         1 UNK         0.0600 
    210 H210       -4.7693  -23.1514  -51.9273 H         1 UNK         0.3000 
    211 H211       -6.1658  -22.2676  -49.5905 H         1 UNK         0.0600 
    212 H212       -7.5727  -21.0462  -51.2556 H         1 UNK         0.0600 
    213 H213       -7.3101  -22.7141  -51.7428 H         1 UNK         0.0600 
    214 H214       -6.4062  -21.4154  -52.5210 H         1 UNK         0.0600 
    215 H215       -4.0425  -20.6230  -51.9106 H         1 UNK         0.3000 
    216 H216       -2.7363  -18.8845  -51.9032 H         1 UNK         0.0600 
    217 H217       -1.7518  -18.0031  -49.8347 H         1 UNK         0.0600 
    218 H218       -1.8798  -19.7531  -49.7248 H         1 UNK         0.0600 
    219 H219       -3.0229  -18.7292  -48.8626 H         1 UNK         0.0600 
    220 H220       -5.5632  -18.2242  -49.8722 H         1 UNK         0.3000 
    221 H221       -5.3884  -15.4190  -49.8840 H         1 UNK         0.0600 
    222 H222       -7.8245  -17.2139  -49.3978 H         1 UNK         0.0600 
    223 H223       -6.6385  -16.7252  -48.1925 H         1 UNK         0.0600 
    224 H224       -7.6895  -15.5234  -48.9265 H         1 UNK         0.0600 
    225 H225       -7.5663  -17.4875  -51.8945 H         1 UNK         0.3000 
    226 H226       -7.7909  -15.4362  -53.9651 H         1 UNK         0.0600 
    227 H227       -9.3902  -14.5700  -52.2417 H         1 UNK         0.0600 
    228 H228      -10.2480  -15.1178  -53.6655 H         1 UNK         0.0600 
    229 H229      -10.2207  -16.1239  -52.2209 H         1 UNK         0.0600 
    230 H230       -6.8350  -18.1745  -53.8990 H         1 UNK         0.3000 
    231 H231       -8.2359  -19.1583  -56.1898 H         1 UNK         0.0600 
    232 H232       -9.7706  -20.1349  -54.4938 H         1 UNK         0.0600 
    233 H233       -8.4233  -20.8802  -53.6537 H         1 UNK         0.0600 
    234 H234       -8.8626  -21.4035  -55.2803 H         1 UNK         0.0600 
    235 H235       -6.9197  -21.8828  -55.1618 H         1 UNK         0.3000 
    236 H236       -4.6309  -21.8172  -56.7439 H         1 UNK         0.0600 
    237 H237       -4.0799  -23.9694  -55.5685 H         1 UNK         0.0600 
    238 H238       -5.3155  -23.6283  -54.3633 H         1 UNK         0.0600 
    239 H239       -5.7688  -23.9009  -56.0456 H         1 UNK         0.0600 
    240 H240       -2.6587  -20.9758  -56.5090 H         1 UNK         0.3000 
    241 H241       -0.8008  -20.1086  -55.7324 H         1 UNK         0.0600 
    242 H242       -3.7829  -18.6789  -55.2453 H         1 UNK         0.3800 
    243 H243       -3.1868  -17.1773  -54.5857 H         1 UNK         0.3800 
    244 H244       -1.4604  -20.8683  -52.8522 H         1 UNK         0.0800 
    245 H245       -0.8617  -22.0142  -54.0102 H         1 UNK         0.0800 
    246 H246        0.2113  -18.7973  -51.8692 H         1 UNK         0.0800 
    247 H247       -0.0026  -20.3790  -51.1626 H         1 UNK         0.0800 
@<TRIPOS>BOND
     1    1    2 1    
     2    1  127 1    
     3    1  128 1    
     4    1  129 1    
     5    2    3 2    
     6    2    4 am   BACKBONE|DICT|INTERRES
     7    4    5 1    
     8    4  130 1    
     9    5    6 1    
    10    5   65 1    
    11    5  131 1    
    12    6    7 1    
    13    6  132 1    
    14    6  133 1    
    15    7    8 1    
    16    8    9 1    
    17    8  134 1    
    18    8  135 1    
    19    9   10 ar   
    20    9   14 ar   
    21   10   11 ar   
    22   10  136 1    
    23   11   12 ar   
    24   11  126 1    
    25   12   13 ar   
    26   12  137 1    
    27   13   14 ar   
    28   13   15 1    
    29   14  138 1    
    30   15   16 1    
    31   15  139 1    
    32   15  140 1    
    33   16   17 1    
    34   17   18 1    
    35   17  141 1    
    36   17  142 1    
    37   18   19 1    
    38   18   67 1    
    39   18  143 1    
    40   19   20 am   BACKBONE|DICT|INTERRES
    41   19  144 1    
    42   20   21 2    
    43   20   22 1    
    44   22   23 1    
    45   22   24 1    
    46   22  145 1    
    47   23  146 1    
    48   23  147 1    
    49   23  148 1    
    50   24   25 am   BACKBONE|DICT|INTERRES
    51   24  149 1    
    52   25   26 2    
    53   25   27 1    
    54   27   28 1    
    55   27   29 1    
    56   27  150 1    
    57   28  151 1    
    58   28  152 1    
    59   28  153 1    
    60   29   30 am   BACKBONE|DICT|INTERRES
    61   29  154 1    
    62   30   31 2    
    63   30   32 1    
    64   32   33 1    
    65   32   34 1    
    66   32  155 1    
    67   33  156 1    
    68   33  157 1    
    69   33  158 1    
    70   34   35 am   BACKBONE|DICT|INTERRES
    71   34  159 1    
    72   35   36 2    
    73   35   37 1    
    74   37   38 1    
    75   37   39 1    
    76   37  160 1    
    77   38  161 1    
    78   38  162 1    
    79   38  163 1    
    80   39   40 am   BACKBONE|DICT|INTERRES
    81   39  164 1    
    82   40   41 2    
    83   40   42 1    
    84   42   43 1    
    85   42   44 1    
    86   42  165 1    
    87   43  166 1    
    88   43  167 1    
    89   43  168 1    
    90   44   45 am   BACKBONE|DICT|INTERRES
    91   44  169 1    
    92   45   46 2    
    93   45   47 1    
    94   47   48 1    
    95   47   49 1    
    96   47  170 1    
    97   48  171 1    
    98   48  172 1    
    99   48  173 1    
   100   49   50 am   BACKBONE|DICT|INTERRES
   101   49  174 1    
   102   50   51 2    
   103   50   52 1    
   104   52   53 1    
   105   52   54 1    
   106   52  175 1    
   107   53  176 1    
   108   53  177 1    
   109   53  178 1    
   110   54   55 am   BACKBONE|DICT|INTERRES
   111   54  179 1    
   112   55   56 2    
   113   55   57 1    
   114   57   58 1    
   115   57   59 1    
   116   57  180 1    
   117   58  181 1    
   118   58  182 1    
   119   58  183 1    
   120   59   60 am   BACKBONE|DICT|INTERRES
   121   59  184 1    
   122   60   61 2    
   123   60   62 1    
   124   62   63 1    
   125   62   64 1    
   126   62  185 1    
   127   63  186 1    
   128   63  187 1    
   129   63  188 1    
   130   64   65 am   BACKBONE|DICT|INTERRES
   131   64  189 1    
   132   65   66 2    
   133   67   68 2    
   134   67   69 am   BACKBONE|DICT|INTERRES
   135   69   70 1    
   136   69  190 1    
   137   70   71 1    
   138   70   72 1    
   139   70  191 1    
   140   71  192 1    
   141   71  193 1    
   142   71  194 1    
   143   72   73 2    
   144   72   74 am   BACKBONE|DICT|INTERRES
   145   74   75 1    
   146   74  195 1    
   147   75   76 1    
   148   75   77 1    
   149   75  196 1    
   150   76  197 1    
   151   76  198 1    
   152   76  199 1    
   153   77   78 2    
   154   77   79 am   BACKBONE|DICT|INTERRES
   155   79   80 1    
   156   79  200 1    
   157   80   81 1    
   158   80   82 1    
   159   80  201 1    
   160   81  202 1    
   161   81  203 1    
   162   81  204 1    
   163   82   83 2    
   164   82   84 am   BACKBONE|DICT|INTERRES
   165   84   85 1    
   166   84  205 1    
   167   85   86 1    
   168   85   87 1    
   169   85  206 1    
   170   86  207 1    
   171   86  208 1    
   172   86  209 1    
   173   87   88 2    
   174   87   89 am   BACKBONE|DICT|INTERRES
   175   89   90 1    
   176   89  210 1    
   177   90   91 1    
   178   90   92 1    
   179   90  211 1    
   180   91  212 1    
   181   91  213 1    
   182   91  214 1    
   183   92   93 2    
   184   92   94 am   BACKBONE|DICT|INTERRES
   185   94   95 1    
   186   94  215 1    
   187   95   96 1    
   188   95   97 1    
   189   95  216 1    
   190   96  217 1    
   191   96  218 1    
   192   96  219 1    
   193   97   98 2    
   194   97   99 am   BACKBONE|DICT|INTERRES
   195   99  100 1    
   196   99  220 1    
   197  100  101 1    
   198  100  102 1    
   199  100  221 1    
   200  101  222 1    
   201  101  223 1    
   202  101  224 1    
   203  102  103 2    
   204  102  104 am   BACKBONE|DICT|INTERRES
   205  104  105 1    
   206  104  225 1    
   207  105  106 1    
   208  105  107 1    
   209  105  226 1    
   210  106  227 1    
   211  106  228 1    
   212  106  229 1    
   213  107  108 2    
   214  107  109 am   BACKBONE|DICT|INTERRES
   215  109  110 1    
   216  109  230 1    
   217  110  111 1    
   218  110  112 1    
   219  110  231 1    
   220  111  232 1    
   221  111  233 1    
   222  111  234 1    
   223  112  113 2    
   224  112  114 am   BACKBONE|DICT|INTERRES
   225  114  115 1    
   226  114  235 1    
   227  115  116 1    
   228  115  117 1    
   229  115  236 1    
   230  116  237 1    
   231  116  238 1    
   232  116  239 1    
   233  117  118 2    
   234  117  119 am   BACKBONE|DICT|INTERRES
   235  119  120 1    
   236  119  240 1    
   237  120  121 1    
   238  120  124 1    
   239  120  241 1    
   240  121  122 am   BACKBONE|DICT|INTERRES
   241  121  123 2    
   242  122  242 1    
   243  122  243 1    
   244  124  125 1    
   245  124  244 1    
   246  124  245 1    
   247  125  126 1    
   248  126  246 1    
   249  126  247 1    
@<TRIPOS>SUBSTRUCTURE
     1 UNK         1 GROUP             0       ****    0 ROOT    
