@<TRIPOS>MOLECULE
3R540
247   249    1
SMALL
USER_CHARGES


@<TRIPOS>ATOM
      1 CA         -2.2762  -15.7000  -42.0960 C.3       0 UNK        -0.1800 
      2 C          -2.6486  -14.8199  -43.2788 C.2       0 UNK         0.5000 
      3 O          -3.4167  -13.8707  -43.1217 O.2       0 UNK        -0.5000 
      4 N          -2.1023  -15.1291  -44.4616 N.am      1 UNK        -0.5000 
      5 CA         -2.2721  -14.3783  -45.7085 C.3       1 UNK         0.1400 
      6 C6         -1.8592  -15.2390  -46.9305 C.3       23 UNK        -0.0398 
      7 S7         -2.4205  -14.5271  -48.5165 S.3       23 UNK        -0.2404 
      8 C8         -0.8388  -14.1373  -49.3341 C.3       23 UNK        -0.0205 
      9 C9         -0.2682  -15.3526  -50.0475 C.ar      23 UNK        -0.0193 
     10 C10        -0.6597  -15.6344  -51.3587 C.ar      23 UNK        -0.1150 
     11 C11        -0.1737  -16.7659  -52.0191 C.ar      23 UNK        -0.0193 
     12 C12         0.7289  -17.6082  -51.3633 C.ar      23 UNK        -0.1150 
     13 C13         1.1322  -17.3359  -50.0523 C.ar      23 UNK        -0.0193 
     14 C14         0.6368  -16.2010  -49.4024 C.ar      23 UNK        -0.1150 
     15 C15         2.0799  -18.2839  -49.3277 C.3       23 UNK        -0.0205 
     16 S16         1.3548  -19.9403  -49.0916 S.3       23 UNK        -0.2404 
     17 C17        -0.2274  -19.5182  -48.2918 C.3       23 UNK        -0.0398 
     18 CA         -0.8443  -20.7155  -47.5363 C.3       11 UNK         0.1400 
     19 N          -0.1073  -21.0599  -46.3158 N.am      11 UNK        -0.5000 
     20 C          -0.3653  -22.1296  -45.5490 C.2       10 UNK         0.5000 
     21 O          -1.2241  -22.9692  -45.8135 O.2       10 UNK        -0.5000 
     22 CA          0.4151  -22.2511  -44.2289 C.3       10 UNK         0.1400 
     23 CB          1.8340  -22.7870  -44.4695 C.3       10 UNK        -0.1800 
     24 N           0.4676  -20.9858  -43.4956 N.am      10 UNK        -0.5000 
     25 C          -0.6110  -20.3427  -43.0241 C.2       9 UNK         0.5000 
     26 O          -1.7589  -20.7764  -43.1142 O.2       9 UNK        -0.5000 
     27 CA         -0.3812  -18.9603  -42.3939 C.3       9 UNK         0.1400 
     28 CB          0.1057  -19.0835  -40.9432 C.3       9 UNK        -0.1800 
     29 N           0.5661  -18.1568  -43.1621 N.am      9 UNK        -0.5000 
     30 C           0.3462  -17.6730  -44.3904 C.2       8 UNK         0.5000 
     31 O          -0.7330  -17.7553  -44.9771 O.2       8 UNK        -0.5000 
     32 CA          1.5356  -16.9918  -45.0876 C.3       8 UNK         0.1400 
     33 CB          1.6357  -15.5139  -44.6857 C.3       8 UNK        -0.1800 
     34 N           2.8053  -17.6608  -44.8055 N.am      8 UNK        -0.5000 
     35 C           3.1202  -18.8920  -45.2297 C.2       7 UNK         0.5000 
     36 O           2.3719  -19.5864  -45.9145 O.2       7 UNK        -0.5000 
     37 CA          4.4801  -19.4521  -44.7767 C.3       7 UNK         0.1400 
     38 CB          5.6099  -18.9148  -45.6677 C.3       7 UNK        -0.1800 
     39 N           4.7720  -19.1413  -43.3761 N.am      7 UNK        -0.5000 
     40 C           4.1030  -19.6577  -42.3353 C.2       6 UNK         0.5000 
     41 O           3.1940  -20.4798  -42.4474 O.2       6 UNK        -0.5000 
     42 CA          4.4732  -19.1190  -40.9390 C.3       6 UNK         0.1400 
     43 CB          5.7030  -19.8526  -40.3834 C.3       6 UNK        -0.1800 
     44 N           4.7130  -17.6708  -40.9117 N.am      6 UNK        -0.5000 
     45 C           3.8134  -16.7492  -41.2797 C.2       5 UNK         0.5000 
     46 O           2.6973  -17.0331  -41.7183 O.2       5 UNK        -0.5000 
     47 CA          4.2504  -15.2746  -41.2008 C.3       5 UNK         0.1400 
     48 CB          5.2217  -14.9432  -42.3457 C.3       5 UNK        -0.1800 
     49 N           3.1007  -14.3771  -41.3048 N.am      5 UNK        -0.5000 
     50 C           2.1743  -14.1821  -40.3571 C.2       4 UNK         0.5000 
     51 O           2.2631  -14.6447  -39.2183 O.2       4 UNK        -0.5000 
     52 CA          0.9258  -13.3616  -40.7590 C.3       4 UNK         0.1400 
     53 CB          0.4099  -12.4689  -39.6119 C.3       4 UNK        -0.1800 
     54 N           1.0758  -12.5850  -41.9993 N.am      4 UNK        -0.5000 
     55 C           1.9215  -11.5683  -42.2314 C.2       3 UNK         0.5000 
     56 O           2.7264  -11.1357  -41.4066 O.2       3 UNK        -0.5000 
     57 CA          1.8764  -10.9443  -43.6382 C.3       3 UNK         0.1400 
     58 CB          2.9476  -11.5804  -44.5375 C.3       3 UNK        -0.1800 
     59 N           0.5722  -11.0769  -44.2898 N.am      3 UNK        -0.5000 
     60 C          -0.5233  -10.3792  -43.9702 C.2       2 UNK         0.5000 
     61 O          -0.5615   -9.5567  -43.0544 O.2       2 UNK        -0.5000 
     62 CA         -1.7896  -10.6284  -44.8132 C.3       2 UNK         0.1400 
     63 CB         -1.6977   -9.9115  -46.1740 C.3       2 UNK        -0.1800 
     64 N          -2.1643  -12.0390  -44.9820 N.am      2 UNK        -0.5000 
     65 C          -1.5330  -13.0198  -45.6414 C.2       1 UNK         0.5000 
     66 O          -0.4163  -12.8962  -46.1470 O.2       1 UNK        -0.5000 
     67 C          -2.3382  -20.4558  -47.2600 C.2       11 UNK         0.5000 
     68 O          -3.1788  -20.9652  -48.0001 O.2       11 UNK        -0.5000 
     69 N          -2.6485  -19.7019  -46.1947 N.am      12 UNK        -0.5000 
     70 CA         -4.0202  -19.4162  -45.7678 C.3       12 UNK         0.1400 
     71 CB         -4.0069  -18.3633  -44.6500 C.3       12 UNK        -0.1800 
     72 C          -4.7933  -20.6749  -45.3295 C.2       12 UNK         0.5000 
     73 O          -5.9741  -20.8021  -45.6552 O.2       12 UNK        -0.5000 
     74 N          -4.1130  -21.5855  -44.6200 N.am      13 UNK        -0.5000 
     75 CA         -4.6543  -22.8735  -44.1888 C.3       13 UNK         0.1400 
     76 CB         -3.7251  -23.4905  -43.1319 C.3       13 UNK        -0.1800 
     77 C          -4.8729  -23.8485  -45.3605 C.2       13 UNK         0.5000 
     78 O          -5.9134  -24.5054  -45.4153 O.2       13 UNK        -0.5000 
     79 N          -3.8916  -23.9288  -46.2695 N.am      14 UNK        -0.5000 
     80 CA         -3.9195  -24.7924  -47.4500 C.3       14 UNK         0.1400 
     81 CB         -2.5063  -24.8763  -48.0461 C.3       14 UNK        -0.1800 
     82 C          -4.9260  -24.3282  -48.5166 C.2       14 UNK         0.5000 
     83 O          -5.5730  -25.1697  -49.1423 O.2       14 UNK        -0.5000 
     84 N          -5.0310  -23.0062  -48.7151 N.am      15 UNK        -0.5000 
     85 CA         -5.8489  -22.3345  -49.7263 C.3       15 UNK         0.1400 
     86 CB         -7.3479  -22.4421  -49.3685 C.3       15 UNK        -0.1800 
     87 C          -5.4876  -22.8362  -51.1395 C.2       15 UNK         0.5000 
     88 O          -4.3242  -22.7282  -51.5309 O.2       15 UNK        -0.5000 
     89 N          -6.4520  -23.4221  -51.8603 N.am      16 UNK        -0.5000 
     90 CA         -6.2817  -23.9861  -53.2030 C.3       16 UNK         0.1400 
     91 CB         -7.6613  -24.3842  -53.7496 C.3       16 UNK        -0.1800 
     92 C          -5.3016  -25.1769  -53.2852 C.2       16 UNK         0.5000 
     93 O          -4.8755  -25.5252  -54.3865 O.2       16 UNK        -0.5000 
     94 N          -4.9460  -25.7820  -52.1414 N.am      17 UNK        -0.5000 
     95 CA         -3.9203  -26.8227  -52.0623 C.3       17 UNK         0.1400 
     96 CB         -4.1190  -27.6525  -50.7846 C.3       17 UNK        -0.1800 
     97 C          -2.4849  -26.2624  -52.1411 C.2       17 UNK         0.5000 
     98 O          -1.5677  -27.0349  -52.4226 O.2       17 UNK        -0.5000 
     99 N          -2.2969  -24.9525  -51.9031 N.am      18 UNK        -0.5000 
    100 CA        -0.9996  -24.2832  -52.0427 C.3       18 UNK         0.1400 
    101 CB        -1.0191  -22.9278  -51.3174 C.3       18 UNK        -0.1800 
    102 C         -0.6057  -24.1072  -53.5210 C.2       18 UNK         0.5000 
    103 O          0.5483  -24.3488  -53.8770 O.2       18 UNK        -0.5000 
    104 N         -1.5807  -23.7237  -54.3527 N.am      19 UNK        -0.5000 
    105 CA        -1.4826  -23.5837  -55.8009 C.3       19 UNK         0.1400 
    106 CB        -0.6331  -22.3543  -56.1758 C.3       19 UNK        -0.1800 
    107 C         -2.9047  -23.4311  -56.3508 C.2       19 UNK         0.5000 
    108 O         -3.7527  -22.8490  -55.6742 O.2       19 UNK        -0.5000 
    109 N         -3.1407  -23.8984  -57.5824 N.am      20 UNK        -0.5000 
    110 CA        -4.4458  -23.8189  -58.2515 C.3       20 UNK         0.1400 
    111 CB        -4.3992  -24.6511  -59.5421 C.3       20 UNK        -0.1800 
    112 C         -4.9033  -22.3762  -58.5554 C.2       20 UNK         0.5000 
    113 O         -6.1057  -22.1210  -58.6291 O.2       20 UNK        -0.5000 
    114 N         -3.9360  -21.4638  -58.7140 N.am      21 UNK        -0.5000 
    115 CA        -4.1478  -20.0370  -58.9609 C.3       21 UNK         0.1400 
    116 CB        -3.0310  -19.5427  -59.8963 C.3       21 UNK        -0.1800 
    117 C         -4.1828  -19.1950  -57.6672 C.2       21 UNK         0.5000 
    118 O         -4.3590  -17.9787  -57.7540 O.2       21 UNK        -0.5000 
    119 N         -3.9913  -19.8228  -56.5008 N.am      22 UNK        -0.5000 
    120 CA        -3.9091  -19.1651  -55.1936 C.3       22 UNK         0.1400 
    121 C         -4.3985  -20.1556  -54.1029 C.2       22 UNK         0.5000 
    122 N         -3.5243  -20.6734  -53.2507 N.am      22 UNK        -0.7600 
    123 O         -5.5902  -20.4420  -54.0194 O.2       22 UNK        -0.5000 
    124 C124       -2.5102  -18.5222  -54.9657 C.3       23 UNK        -0.0398 
    125 S125       -2.4106  -17.5178  -53.4478 S.3       23 UNK        -0.2404 
    126 C126       -0.6419  -17.0889  -53.4296 C.3       23 UNK        -0.0205 
    127 H127       -2.9310  -16.5700  -42.0529 H         1 UNK         0.0600 
    128 H128       -2.3793  -15.1477  -41.1618 H         1 UNK         0.0600 
    129 H129       -1.2432  -16.0386  -42.1702 H         1 UNK         0.0600 
    130 H130       -1.5362  -15.9669  -44.5374 H         1 UNK         0.3000 
    131 H131       -3.3384  -14.1647  -45.8126 H         1 UNK         0.0600 
    132 H132       -2.3113  -16.2290  -46.8539 H         1 UNK         0.0800 
    133 H133       -0.7831  -15.4102  -46.9418 H         1 UNK         0.0800 
    134 H134       -1.0081  -13.3367  -50.0557 H         1 UNK         0.0800 
    135 H135       -0.1212  -13.7433  -48.6138 H         1 UNK         0.0800 
    136 H136       -1.3661  -14.9867  -51.8592 H         1 UNK         0.1150 
    137 H137        1.1028  -18.4917  -51.8615 H         1 UNK         0.1150 
    138 H138        0.9453  -15.9845  -48.3902 H         1 UNK         0.1150 
    139 H139        3.0022  -18.3787  -49.9021 H         1 UNK         0.0800 
    140 H140        2.3645  -17.8830  -48.3538 H         1 UNK         0.0800 
    141 H141       -0.0825  -18.6742  -47.6155 H         1 UNK         0.0800 
    142 H142       -0.8970  -19.1694  -49.0812 H         1 UNK         0.0800 
    143 H143       -0.7986  -21.5869  -48.1931 H         1 UNK         0.0600 
    144 H144        0.6651  -20.4486  -46.0636 H         1 UNK         0.3000 
    145 H145       -0.1120  -22.9722  -43.6007 H         1 UNK         0.0600 
    146 H146        2.3607  -22.9433  -43.5280 H         1 UNK         0.0600 
    147 H147        1.8046  -23.7457  -44.9886 H         1 UNK         0.0600 
    148 H148        2.4289  -22.1051  -45.0761 H         1 UNK         0.0600 
    149 H149        1.3880  -20.5892  -43.3364 H         1 UNK         0.3000 
    150 H150       -1.3413  -18.4433  -42.3862 H         1 UNK         0.0600 
    151 H151       -0.5993  -19.6587  -40.3419 H         1 UNK         0.0600 
    152 H152        0.2072  -18.1023  -40.4787 H         1 UNK         0.0600 
    153 H153        1.0736  -19.5817  -40.8834 H         1 UNK         0.0600 
    154 H154        1.4583  -17.9560  -42.7155 H         1 UNK         0.3000 
    155 H155        1.3596  -17.0411  -46.1637 H         1 UNK         0.0600 
    156 H156        2.4601  -15.0220  -45.2016 H         1 UNK         0.0600 
    157 H157        1.7865  -15.3940  -43.6139 H         1 UNK         0.0600 
    158 H158        0.7262  -14.9766  -44.9465 H         1 UNK         0.0600 
    159 H159        3.4487  -17.1801  -44.1960 H         1 UNK         0.3000 
    160 H160        4.4470  -20.5381  -44.8866 H         1 UNK         0.0600 
    161 H161        5.7139  -17.8324  -45.5820 H         1 UNK         0.0600 
    162 H162        5.4204  -19.1444  -46.7173 H         1 UNK         0.0600 
    163 H163        6.5668  -19.3661  -45.4051 H         1 UNK         0.0600 
    164 H164        5.5042  -18.4707  -43.1957 H         1 UNK         0.3000 
    165 H165        3.6289  -19.3235  -40.2774 H         1 UNK         0.0600 
    166 H166        6.5947  -19.6551  -40.9795 H         1 UNK         0.0600 
    167 H167        5.9114  -19.5514  -39.3566 H         1 UNK         0.0600 
    168 H168        5.5440  -20.9318  -40.3777 H         1 UNK         0.0600 
    169 H169        5.6155  -17.3697  -40.5729 H         1 UNK         0.3000 
    170 H170        4.7480  -15.1058  -40.2436 H         1 UNK         0.0600 
    171 H171        6.1220  -15.5564  -42.2919 H         1 UNK         0.0600 
    172 H172        4.7672  -15.1112  -43.3232 H         1 UNK         0.0600 
    173 H173        5.5401  -13.9014  -42.3011 H         1 UNK         0.0600 
    174 H174        2.9363  -13.9639  -42.2087 H         1 UNK         0.3000 
    175 H175        0.1502  -14.0999  -40.9664 H         1 UNK         0.0600 
    176 H176       -0.4810  -11.9173  -39.9125 H         1 UNK         0.0600 
    177 H177        0.1404  -13.0662  -38.7402 H         1 UNK         0.0600 
    178 H178        1.1604  -11.7459  -39.2916 H         1 UNK         0.0600 
    179 H179        0.4596  -12.8453  -42.7555 H         1 UNK         0.3000 
    180 H180        2.1038   -9.8811  -43.5351 H         1 UNK         0.0600 
    181 H181        2.9857  -11.0899  -45.5103 H         1 UNK         0.0600 
    182 H182        3.9389  -11.4923  -44.0908 H         1 UNK         0.0600 
    183 H183        2.7549  -12.6400  -44.7055 H         1 UNK         0.0600 
    184 H184        0.4931  -11.7407  -45.0577 H         1 UNK         0.3000 
    185 H185       -2.6173  -10.1744  -44.2660 H         1 UNK         0.0600 
    186 H186       -2.6276  -10.0096  -46.7341 H         1 UNK         0.0600 
    187 H187       -1.5103   -8.8454  -46.0399 H         1 UNK         0.0600 
    188 H188       -0.8915  -10.3075  -46.7922 H         1 UNK         0.0600 
    189 H189       -3.0076  -12.3113  -44.4883 H         1 UNK         0.3000 
    190 H190       -1.9045  -19.2849  -45.6456 H         1 UNK         0.3000 
    191 H191       -4.5496  -18.9898  -46.6225 H         1 UNK         0.0600 
    192 H192       -5.0183  -18.1418  -44.3074 H         1 UNK         0.0600 
    193 H193       -3.5738  -17.4287  -45.0019 H         1 UNK         0.0600 
    194 H194       -3.4325  -18.6970  -43.7860 H         1 UNK         0.0600 
    195 H195       -3.1609  -21.3729  -44.3360 H         1 UNK         0.3000 
    196 H196       -5.6240  -22.6934  -43.7200 H         1 UNK         0.0600 
    197 H197       -4.1111  -24.4491  -42.7829 H         1 UNK         0.0600 
    198 H198       -3.6327  -22.8400  -42.2619 H         1 UNK         0.0600 
    199 H199       -2.7232  -23.6624  -43.5267 H         1 UNK         0.0600 
    200 H200       -3.0391  -23.3941  -46.1217 H         1 UNK         0.3000 
    201 H201       -4.2136  -25.7953  -47.1336 H         1 UNK         0.0600 
    202 H202       -1.8105  -25.3349  -47.3434 H         1 UNK         0.0600 
    203 H203       -2.1232  -23.8866  -48.2933 H         1 UNK         0.0600 
    204 H204       -2.4883  -25.4729  -48.9576 H         1 UNK         0.0600 
    205 H205       -4.3939  -22.3922  -48.2136 H         1 UNK         0.3000 
    206 H206       -5.5728  -21.2796  -49.6965 H         1 UNK         0.0600 
    207 H207       -7.5364  -22.0292  -48.3771 H         1 UNK         0.0600 
    208 H208       -7.9626  -21.8781  -50.0710 H         1 UNK         0.0600 
    209 H209       -7.7013  -23.4737  -49.3647 H         1 UNK         0.0600 
    210 H210       -7.3712  -23.5046  -51.4520 H         1 UNK         0.3000 
    211 H211       -5.8764  -23.1993  -53.8423 H         1 UNK         0.0600 
    212 H212       -8.1285  -25.1563  -53.1371 H         1 UNK         0.0600 
    213 H213       -7.5822  -24.7731  -54.7657 H         1 UNK         0.0600 
    214 H214       -8.3340  -23.5271  -53.7846 H         1 UNK         0.0600 
    215 H215       -5.3352  -25.4565  -51.2633 H         1 UNK         0.3000 
    216 H216       -4.0493  -27.4980  -52.9109 H         1 UNK         0.0600 
    217 H217       -3.4350  -28.5017  -50.7637 H         1 UNK         0.0600 
    218 H218       -5.1321  -28.0503  -50.7243 H         1 UNK         0.0600 
    219 H219       -3.9344  -27.0679  -49.8852 H         1 UNK         0.0600 
    220 H220       -3.0951  -24.3599  -51.7006 H         1 UNK         0.3000 
    221 H221       -0.2399  -24.9042  -51.5632 H         1 UNK         0.0600 
    222 H222       -1.7215  -22.2324  -51.7738 H         1 UNK         0.0600 
    223 H223       -1.2962  -23.0401  -50.2709 H         1 UNK         0.0600 
    224 H224       -0.0349  -22.4585  -51.3434 H         1 UNK         0.0600 
    225 H225       -2.5105  -23.5502  -53.9896 H         1 UNK         0.3000 
    226 H226       -1.0339  -24.4886  -56.2152 H         1 UNK         0.0600 
    227 H227        0.3946  -22.4538  -55.8273 H         1 UNK         0.0600 
    228 H228       -0.5926  -22.2203  -57.2574 H         1 UNK         0.0600 
    229 H229       -1.0439  -21.4405  -55.7466 H         1 UNK         0.0600 
    230 H230       -2.3978  -24.3554  -58.0917 H         1 UNK         0.3000 
    231 H231       -5.1897  -24.2627  -57.5859 H         1 UNK         0.0600 
    232 H232       -5.3635  -24.6360  -60.0519 H         1 UNK         0.0600 
    233 H233       -4.1616  -25.6939  -59.3312 H         1 UNK         0.0600 
    234 H234       -3.6529  -24.2697  -60.2403 H         1 UNK         0.0600 
    235 H235       -2.9773  -21.7694  -58.6362 H         1 UNK         0.3000 
    236 H236       -5.1032  -19.8900  -59.4686 H         1 UNK         0.0600 
    237 H237       -2.0476  -19.6372  -59.4341 H         1 UNK         0.0600 
    238 H238       -3.0196  -20.1072  -60.8289 H         1 UNK         0.0600 
    239 H239       -3.1716  -18.4931  -60.1578 H         1 UNK         0.0600 
    240 H240       -3.9313  -20.8346  -56.4760 H         1 UNK         0.3000 
    241 H241       -4.6410  -18.3548  -55.1834 H         1 UNK         0.0600 
    242 H242       -3.8470  -21.3548  -52.5679 H         1 UNK         0.3800 
    243 H243       -2.5572  -20.3996  -53.2641 H         1 UNK         0.3800 
    244 H244       -2.2621  -17.8693  -55.8035 H         1 UNK         0.0800 
    245 H245       -1.7364  -19.2897  -54.9445 H         1 UNK         0.0800 
    246 H246       -0.0575  -17.9133  -53.8410 H         1 UNK         0.0800 
    247 H247       -0.4699  -16.2307  -54.0807 H         1 UNK         0.0800 
@<TRIPOS>BOND
     1    1    2 1    
     2    1  127 1    
     3    1  128 1    
     4    1  129 1    
     5    2    3 2    
     6    2    4 am   BACKBONE|DICT|INTERRES
     7    4    5 1    
     8    4  130 1    
     9    5    6 1    
    10    5   65 1    
    11    5  131 1    
    12    6    7 1    
    13    6  132 1    
    14    6  133 1    
    15    7    8 1    
    16    8    9 1    
    17    8  134 1    
    18    8  135 1    
    19    9   10 ar   
    20    9   14 ar   
    21   10   11 ar   
    22   10  136 1    
    23   11   12 ar   
    24   11  126 1    
    25   12   13 ar   
    26   12  137 1    
    27   13   14 ar   
    28   13   15 1    
    29   14  138 1    
    30   15   16 1    
    31   15  139 1    
    32   15  140 1    
    33   16   17 1    
    34   17   18 1    
    35   17  141 1    
    36   17  142 1    
    37   18   19 1    
    38   18   67 1    
    39   18  143 1    
    40   19   20 am   BACKBONE|DICT|INTERRES
    41   19  144 1    
    42   20   21 2    
    43   20   22 1    
    44   22   23 1    
    45   22   24 1    
    46   22  145 1    
    47   23  146 1    
    48   23  147 1    
    49   23  148 1    
    50   24   25 am   BACKBONE|DICT|INTERRES
    51   24  149 1    
    52   25   26 2    
    53   25   27 1    
    54   27   28 1    
    55   27   29 1    
    56   27  150 1    
    57   28  151 1    
    58   28  152 1    
    59   28  153 1    
    60   29   30 am   BACKBONE|DICT|INTERRES
    61   29  154 1    
    62   30   31 2    
    63   30   32 1    
    64   32   33 1    
    65   32   34 1    
    66   32  155 1    
    67   33  156 1    
    68   33  157 1    
    69   33  158 1    
    70   34   35 am   BACKBONE|DICT|INTERRES
    71   34  159 1    
    72   35   36 2    
    73   35   37 1    
    74   37   38 1    
    75   37   39 1    
    76   37  160 1    
    77   38  161 1    
    78   38  162 1    
    79   38  163 1    
    80   39   40 am   BACKBONE|DICT|INTERRES
    81   39  164 1    
    82   40   41 2    
    83   40   42 1    
    84   42   43 1    
    85   42   44 1    
    86   42  165 1    
    87   43  166 1    
    88   43  167 1    
    89   43  168 1    
    90   44   45 am   BACKBONE|DICT|INTERRES
    91   44  169 1    
    92   45   46 2    
    93   45   47 1    
    94   47   48 1    
    95   47   49 1    
    96   47  170 1    
    97   48  171 1    
    98   48  172 1    
    99   48  173 1    
   100   49   50 am   BACKBONE|DICT|INTERRES
   101   49  174 1    
   102   50   51 2    
   103   50   52 1    
   104   52   53 1    
   105   52   54 1    
   106   52  175 1    
   107   53  176 1    
   108   53  177 1    
   109   53  178 1    
   110   54   55 am   BACKBONE|DICT|INTERRES
   111   54  179 1    
   112   55   56 2    
   113   55   57 1    
   114   57   58 1    
   115   57   59 1    
   116   57  180 1    
   117   58  181 1    
   118   58  182 1    
   119   58  183 1    
   120   59   60 am   BACKBONE|DICT|INTERRES
   121   59  184 1    
   122   60   61 2    
   123   60   62 1    
   124   62   63 1    
   125   62   64 1    
   126   62  185 1    
   127   63  186 1    
   128   63  187 1    
   129   63  188 1    
   130   64   65 am   BACKBONE|DICT|INTERRES
   131   64  189 1    
   132   65   66 2    
   133   67   68 2    
   134   67   69 am   BACKBONE|DICT|INTERRES
   135   69   70 1    
   136   69  190 1    
   137   70   71 1    
   138   70   72 1    
   139   70  191 1    
   140   71  192 1    
   141   71  193 1    
   142   71  194 1    
   143   72   73 2    
   144   72   74 am   BACKBONE|DICT|INTERRES
   145   74   75 1    
   146   74  195 1    
   147   75   76 1    
   148   75   77 1    
   149   75  196 1    
   150   76  197 1    
   151   76  198 1    
   152   76  199 1    
   153   77   78 2    
   154   77   79 am   BACKBONE|DICT|INTERRES
   155   79   80 1    
   156   79  200 1    
   157   80   81 1    
   158   80   82 1    
   159   80  201 1    
   160   81  202 1    
   161   81  203 1    
   162   81  204 1    
   163   82   83 2    
   164   82   84 am   BACKBONE|DICT|INTERRES
   165   84   85 1    
   166   84  205 1    
   167   85   86 1    
   168   85   87 1    
   169   85  206 1    
   170   86  207 1    
   171   86  208 1    
   172   86  209 1    
   173   87   88 2    
   174   87   89 am   BACKBONE|DICT|INTERRES
   175   89   90 1    
   176   89  210 1    
   177   90   91 1    
   178   90   92 1    
   179   90  211 1    
   180   91  212 1    
   181   91  213 1    
   182   91  214 1    
   183   92   93 2    
   184   92   94 am   BACKBONE|DICT|INTERRES
   185   94   95 1    
   186   94  215 1    
   187   95   96 1    
   188   95   97 1    
   189   95  216 1    
   190   96  217 1    
   191   96  218 1    
   192   96  219 1    
   193   97   98 2    
   194   97   99 am   BACKBONE|DICT|INTERRES
   195   99  100 1    
   196   99  220 1    
   197  100  101 1    
   198  100  102 1    
   199  100  221 1    
   200  101  222 1    
   201  101  223 1    
   202  101  224 1    
   203  102  103 2    
   204  102  104 am   BACKBONE|DICT|INTERRES
   205  104  105 1    
   206  104  225 1    
   207  105  106 1    
   208  105  107 1    
   209  105  226 1    
   210  106  227 1    
   211  106  228 1    
   212  106  229 1    
   213  107  108 2    
   214  107  109 am   BACKBONE|DICT|INTERRES
   215  109  110 1    
   216  109  230 1    
   217  110  111 1    
   218  110  112 1    
   219  110  231 1    
   220  111  232 1    
   221  111  233 1    
   222  111  234 1    
   223  112  113 2    
   224  112  114 am   BACKBONE|DICT|INTERRES
   225  114  115 1    
   226  114  235 1    
   227  115  116 1    
   228  115  117 1    
   229  115  236 1    
   230  116  237 1    
   231  116  238 1    
   232  116  239 1    
   233  117  118 2    
   234  117  119 am   BACKBONE|DICT|INTERRES
   235  119  120 1    
   236  119  240 1    
   237  120  121 1    
   238  120  124 1    
   239  120  241 1    
   240  121  122 am   BACKBONE|DICT|INTERRES
   241  121  123 2    
   242  122  242 1    
   243  122  243 1    
   244  124  125 1    
   245  124  244 1    
   246  124  245 1    
   247  125  126 1    
   248  126  246 1    
   249  126  247 1    
@<TRIPOS>SUBSTRUCTURE
     1 UNK         1 GROUP             0       ****    0 ROOT    
