@<TRIPOS>MOLECULE
3R540
247   249    1
SMALL
USER_CHARGES


@<TRIPOS>ATOM
      1 CA         -4.4729  -15.9747  -50.6952 C.3       0 UNK        -0.1800 
      2 C          -3.2949  -15.0875  -50.3149 C.2       0 UNK         0.5000 
      3 O          -2.6234  -15.3614  -49.3221 O.2       0 UNK        -0.5000 
      4 N          -3.0669  -14.0290  -51.1079 N.am      1 UNK        -0.5000 
      5 CA         -2.0297  -12.9952  -50.9773 C.3       1 UNK         0.1400 
      6 C6         -0.6907  -13.3517  -51.6917 C.3       23 UNK        -0.0398 
      7 S7          0.3432  -14.6786  -50.9697 S.3       23 UNK        -0.2404 
      8 C8         -0.1214  -16.1173  -51.9815 C.3       23 UNK        -0.0205 
      9 C9          0.9185  -17.2232  -51.8885 C.ar      23 UNK        -0.0193 
     10 C10         1.8042  -17.4502  -52.9464 C.ar      23 UNK        -0.1150 
     11 C11         2.7554  -18.4721  -52.8711 C.ar      23 UNK        -0.0193 
     12 C12         2.8191  -19.2669  -51.7209 C.ar      23 UNK        -0.1150 
     13 C13         1.9524  -19.0356  -50.6475 C.ar      23 UNK        -0.0193 
     14 C14         0.9968  -18.0202  -50.7435 C.ar      23 UNK        -0.1150 
     15 C15         2.1042  -19.8114  -49.3476 C.3       23 UNK        -0.0205 
     16 S16         0.8202  -21.0815  -49.0966 S.3       23 UNK        -0.2404 
     17 C17         0.9960  -21.2473  -47.2896 C.3       23 UNK        -0.0398 
     18 CA          0.3214  -22.4678  -46.6212 C.3       11 UNK         0.1400 
     19 N           0.7365  -22.5410  -45.2190 N.am      11 UNK        -0.5000 
     20 C           0.4884  -23.5265  -44.3491 C.2       10 UNK         0.5000 
     21 O          -0.0861  -24.5703  -44.6580 O.2       10 UNK        -0.5000 
     22 CA          0.8770  -23.2598  -42.8771 C.3       10 UNK         0.1400 
     23 CB          1.3982  -24.5236  -42.1641 C.3       10 UNK        -0.1800 
     24 N           1.7885  -22.1178  -42.7055 N.am      10 UNK        -0.5000 
     25 C           3.0659  -22.0189  -43.1078 C.2       9 UNK         0.5000 
     26 O           3.6961  -22.9463  -43.6162 O.2       9 UNK        -0.5000 
     27 CA          3.7500  -20.6418  -42.9763 C.3       9 UNK         0.1400 
     28 CB          3.9872  -20.0386  -44.3709 C.3       9 UNK        -0.1800 
     29 N           2.9944  -19.6742  -42.1784 N.am      9 UNK        -0.5000 
     30 C           2.9138  -19.6688  -40.8417 C.2       8 UNK         0.5000 
     31 O           3.4965  -20.4769  -40.1182 O.2       8 UNK        -0.5000 
     32 CA          2.0009  -18.5982  -40.2103 C.3       8 UNK         0.1400 
     33 CB          2.7608  -17.2769  -40.0199 C.3       8 UNK        -0.1800 
     34 N           0.7791  -18.3507  -40.9819 N.am      8 UNK        -0.5000 
     35 C          -0.1802  -19.2624  -41.1979 C.2       7 UNK         0.5000 
     36 O          -0.1410  -20.4147  -40.7661 O.2       7 UNK        -0.5000 
     37 CA         -1.3566  -18.8352  -42.0910 C.3       7 UNK         0.1400 
     38 CB         -2.3514  -17.9548  -41.3210 C.3       7 UNK        -0.1800 
     39 N          -0.9141  -18.1487  -43.3038 N.am      7 UNK        -0.5000 
     40 C          -0.2003  -18.7239  -44.2805 C.2       6 UNK         0.5000 
     41 O           0.0778  -19.9228  -44.3002 O.2       6 UNK        -0.5000 
     42 CA          0.3231  -17.8111  -45.4051 C.3       6 UNK         0.1400 
     43 CB         -0.7341  -17.6341  -46.5044 C.3       6 UNK        -0.1800 
     44 N           0.7596  -16.5050  -44.9143 N.am      6 UNK        -0.5000 
     45 C           1.7726  -16.3191  -44.0557 C.2       5 UNK         0.5000 
     46 O           2.4760  -17.2299  -43.6215 O.2       5 UNK        -0.5000 
     47 CA          1.9989  -14.8854  -43.5515 C.3       5 UNK         0.1400 
     48 CB          2.8363  -14.0725  -44.5501 C.3       5 UNK        -0.1800 
     49 N           0.7302  -14.2062  -43.2926 N.am      5 UNK        -0.5000 
     50 C          -0.0783  -14.4948  -42.2632 C.2       4 UNK         0.5000 
     51 O           0.1901  -15.3294  -41.3979 O.2       4 UNK        -0.5000 
     52 CA         -1.4290  -13.7552  -42.2192 C.3       4 UNK         0.1400 
     53 CB         -1.2656  -12.3648  -41.5876 C.3       4 UNK        -0.1800 
     54 N          -2.0414  -13.6188  -43.5430 N.am      4 UNK        -0.5000 
     55 C          -2.5125  -14.6464  -44.2634 C.2       3 UNK         0.5000 
     56 O          -2.5123  -15.8101  -43.8660 O.2       3 UNK        -0.5000 
     57 CA         -3.0344  -14.3338  -45.6791 C.3       3 UNK         0.1400 
     58 CB         -4.5284  -13.9820  -45.6391 C.3       3 UNK        -0.1800 
     59 N          -2.3076  -13.2706  -46.3780 N.am      3 UNK        -0.5000 
     60 C          -0.9919  -13.2608  -46.6270 C.2       2 UNK         0.5000 
     61 O          -0.2085  -14.1091  -46.1983 O.2       2 UNK        -0.5000 
     62 CA         -0.4820  -12.1287  -47.5381 C.3       2 UNK         0.1400 
     63 CB          1.0226  -11.8637  -47.3544 C.3       2 UNK        -0.1800 
     64 N          -0.7321  -12.4717  -48.9349 N.am      2 UNK        -0.5000 
     65 C          -1.9213  -12.4140  -49.5457 C.2       1 UNK         0.5000 
     66 O          -2.9230  -11.9163  -49.0243 O.2       1 UNK        -0.5000 
     67 C          -1.2182  -22.4262  -46.7254 C.2       11 UNK         0.5000 
     68 O          -1.7887  -23.0763  -47.6003 O.2       11 UNK        -0.5000 
     69 N          -1.8645  -21.7291  -45.7763 N.am      12 UNK        -0.5000 
     70 CA         -3.3190  -21.6827  -45.6099 C.3       12 UNK         0.1400 
     71 CB         -3.6793  -20.6946  -44.4931 C.3       12 UNK        -0.1800 
     72 C          -3.9483  -23.0601  -45.3392 C.2       12 UNK         0.5000 
     73 O          -5.0226  -23.3444  -45.8651 O.2       12 UNK        -0.5000 
     74 N          -3.2600  -23.8952  -44.5505 N.am      13 UNK        -0.5000 
     75 CA         -3.6749  -25.2649  -44.2563 C.3       13 UNK         0.1400 
     76 CB         -2.9908  -25.7439  -42.9659 C.3       13 UNK        -0.1800 
     77 C          -3.3711  -26.2139  -45.4278 C.2       13 UNK         0.5000 
     78 O          -4.2261  -27.0221  -45.7899 O.2       13 UNK        -0.5000 
     79 N          -2.1637  -26.0942  -45.9976 N.am      14 UNK        -0.5000 
     80 CA         -1.6596  -26.9482  -47.0722 C.3       14 UNK         0.1400 
     81 CB         -0.1580  -26.6879  -47.2674 C.3       14 UNK        -0.1800 
     82 C          -2.4160  -26.7776  -48.4012 C.2       14 UNK         0.5000 
     83 O          -2.7844  -27.7776  -49.0190 O.2       14 UNK        -0.5000 
     84 N          -2.6284  -25.5232  -48.8203 N.am      15 UNK        -0.5000 
     85 CA         -3.2707  -25.1858  -50.0921 C.3       15 UNK         0.1400 
     86 CB         -2.6368  -23.8990  -50.6431 C.3       15 UNK        -0.1800 
     87 C          -4.7957  -25.0192  -49.9723 C.2       15 UNK         0.5000 
     88 O          -5.4621  -24.9146  -51.0026 O.2       15 UNK        -0.5000 
     89 N          -5.3192  -24.9475  -48.7382 N.am      16 UNK        -0.5000 
     90 CA         -6.7187  -24.7348  -48.3301 C.3       16 UNK         0.1400 
     91 CB         -7.6423  -25.8415  -48.8735 C.3       16 UNK        -0.1800 
     92 C          -7.2696  -23.3315  -48.6631 C.2       16 UNK         0.5000 
     93 O          -7.8980  -22.7036  -47.8112 O.2       16 UNK        -0.5000 
     94 N          -7.0009  -22.8538  -49.8827 N.am      17 UNK        -0.5000 
     95 CA         -7.3261  -21.5169  -50.3835 C.3       17 UNK         0.1400 
     96 CB         -7.6421  -21.6313  -51.8845 C.3       17 UNK        -0.1800 
     97 C          -6.1884  -20.5016  -50.1409 C.2       17 UNK         0.5000 
     98 O          -6.2909  -19.3641  -50.6001 O.2       17 UNK        -0.5000 
     99 N          -5.1131  -20.9365  -49.4637 N.am      18 UNK        -0.5000 
    100 CA        -3.8889  -20.1861  -49.1497 C.3       18 UNK         0.1400 
    101 CB        -4.1916  -18.9891  -48.2221 C.3       18 UNK        -0.1800 
    102 C         -3.0499  -19.7984  -50.3830 C.2       18 UNK         0.5000 
    103 O         -2.2389  -18.8790  -50.2953 O.2       18 UNK        -0.5000 
    104 N         -3.2416  -20.5374  -51.4878 N.am      19 UNK        -0.5000 
    105 CA        -2.5276  -20.4365  -52.7618 C.3       19 UNK         0.1400 
    106 CB        -1.0708  -20.9190  -52.5996 C.3       19 UNK        -0.1800 
    107 C         -2.6281  -19.0283  -53.3770 C.2       19 UNK         0.5000 
    108 O         -1.6146  -18.3541  -53.5507 O.2       19 UNK        -0.5000 
    109 N         -3.8579  -18.5982  -53.6931 N.am      20 UNK        -0.5000 
    110 CA        -4.1499  -17.3241  -54.3572 C.3       20 UNK         0.1400 
    111 CB        -5.6636  -17.2078  -54.5879 C.3       20 UNK        -0.1800 
    112 C         -3.3687  -17.1772  -55.6800 C.2       20 UNK         0.5000 
    113 O         -3.4804  -18.0434  -56.5512 O.2       20 UNK        -0.5000 
    114 N         -2.5301  -16.1327  -55.7581 N.am      21 UNK        -0.5000 
    115 CA        -1.5520  -15.8584  -56.8230 C.3       21 UNK         0.1400 
    116 CB        -2.2723  -15.4970  -58.1388 C.3       21 UNK        -0.1800 
    117 C         -0.4979  -16.9779  -57.0114 C.2       21 UNK         0.5000 
    118 O          0.0705  -17.1103  -58.0964 O.2       21 UNK        -0.5000 
    119 N         -0.2647  -17.7693  -55.9557 N.am      22 UNK        -0.5000 
    120 CA         0.5298  -19.0056  -55.9388 C.3       22 UNK         0.1400 
    121 C         -0.1178  -20.1940  -56.7186 C.2       22 UNK         0.5000 
    122 N         -1.4043  -20.1511  -57.0511 N.am      22 UNK        -0.7600 
    123 O          0.5408  -21.1879  -57.0110 O.2       22 UNK        -0.5000 
    124 C124        2.0308  -18.7680  -56.2677 C.3       23 UNK        -0.0398 
    125 S125        3.1427  -19.8304  -55.2782 S.3       23 UNK        -0.2404 
    126 C126        3.7529  -18.6801  -54.0038 C.3       23 UNK        -0.0205 
    127 H127       -4.1216  -16.9694  -50.9681 H         1 UNK         0.0600 
    128 H128       -5.1568  -16.0726  -49.8524 H         1 UNK         0.0600 
    129 H129       -5.0336  -15.5714  -51.5385 H         1 UNK         0.0600 
    130 H130       -3.7079  -13.8705  -51.8716 H         1 UNK         0.3000 
    131 H131       -2.4355  -12.1599  -51.5504 H         1 UNK         0.0600 
    132 H132       -0.0677  -12.4574  -51.7457 H         1 UNK         0.0800 
    133 H133       -0.9001  -13.5997  -52.7326 H         1 UNK         0.0800 
    134 H134       -0.2545  -15.8198  -53.0221 H         1 UNK         0.0800 
    135 H135       -1.0848  -16.5009  -51.6432 H         1 UNK         0.0800 
    136 H136        1.7551  -16.8277  -53.8282 H         1 UNK         0.1150 
    137 H137        3.5675  -20.0435  -51.6483 H         1 UNK         0.1150 
    138 H138        0.3201  -17.8374  -49.9199 H         1 UNK         0.1150 
    139 H139        3.0851  -20.2867  -49.2993 H         1 UNK         0.0800 
    140 H140        2.0745  -19.0971  -48.5230 H         1 UNK         0.0800 
    141 H141        0.6297  -20.3264  -46.8425 H         1 UNK         0.0800 
    142 H142        2.0651  -21.2786  -47.0721 H         1 UNK         0.0800 
    143 H143        0.6697  -23.3737  -47.1199 H         1 UNK         0.0600 
    144 H144        1.1020  -21.6818  -44.8281 H         1 UNK         0.3000 
    145 H145       -0.0485  -22.9676  -42.3791 H         1 UNK         0.0600 
    146 H146        1.6687  -24.3097  -41.1301 H         1 UNK         0.0600 
    147 H147        0.6346  -25.3020  -42.1444 H         1 UNK         0.0600 
    148 H148        2.2726  -24.9425  -42.6622 H         1 UNK         0.0600 
    149 H149        1.3659  -21.2929  -42.2979 H         1 UNK         0.3000 
    150 H150        4.7204  -20.8024  -42.5024 H         1 UNK         0.0600 
    151 H151        4.5752  -20.7098  -44.9982 H         1 UNK         0.0600 
    152 H152        4.5334  -19.0974  -44.3049 H         1 UNK         0.0600 
    153 H153        3.0472  -19.8431  -44.8883 H         1 UNK         0.0600 
    154 H154        2.5491  -18.9174  -42.6908 H         1 UNK         0.3000 
    155 H155        1.7013  -18.9610  -39.2250 H         1 UNK         0.0600 
    156 H156        3.0789  -16.8536  -40.9728 H         1 UNK         0.0600 
    157 H157        3.6540  -17.4243  -39.4117 H         1 UNK         0.0600 
    158 H158        2.1416  -16.5350  -39.5152 H         1 UNK         0.0600 
    159 H159        0.6589  -17.4162  -41.3567 H         1 UNK         0.3000 
    160 H160       -1.8775  -19.7441  -42.3900 H         1 UNK         0.0600 
    161 H161       -3.2313  -17.7367  -41.9264 H         1 UNK         0.0600 
    162 H162       -1.9070  -17.0049  -41.0241 H         1 UNK         0.0600 
    163 H163       -2.6961  -18.4546  -40.4150 H         1 UNK         0.0600 
    164 H164       -1.1880  -17.1760  -43.4031 H         1 UNK         0.3000 
    165 H165        1.1964  -18.2937  -45.8471 H         1 UNK         0.0600 
    166 H166       -0.3723  -16.9899  -47.3066 H         1 UNK         0.0600 
    167 H167       -0.9986  -18.5920  -46.9530 H         1 UNK         0.0600 
    168 H168       -1.6512  -17.1966  -46.1125 H         1 UNK         0.0600 
    169 H169        0.2662  -15.6883  -45.2664 H         1 UNK         0.3000 
    170 H170        2.5557  -14.9425  -42.6138 H         1 UNK         0.0600 
    171 H171        3.8132  -14.5336  -44.7005 H         1 UNK         0.0600 
    172 H172        2.3553  -14.0056  -45.5257 H         1 UNK         0.0600 
    173 H173        3.0072  -13.0582  -44.1894 H         1 UNK         0.0600 
    174 H174        0.4023  -13.5735  -44.0085 H         1 UNK         0.3000 
    175 H175       -2.1054  -14.3377  -41.5899 H         1 UNK         0.0600 
    176 H176       -2.2286  -11.8653  -41.4799 H         1 UNK         0.0600 
    177 H177       -0.8258  -12.4384  -40.5920 H         1 UNK         0.0600 
    178 H178       -0.6185  -11.7222  -42.1858 H         1 UNK         0.0600 
    179 H179       -2.0769  -12.6927  -43.9427 H         1 UNK         0.3000 
    180 H180       -2.9211  -15.2399  -46.2766 H         1 UNK         0.0600 
    181 H181       -4.7090  -13.0534  -45.0964 H         1 UNK         0.0600 
    182 H182       -5.1022  -14.7686  -45.1468 H         1 UNK         0.0600 
    183 H183       -4.9326  -13.8684  -46.6453 H         1 UNK         0.0600 
    184 H184       -2.8740  -12.5709  -46.8403 H         1 UNK         0.3000 
    185 H185       -1.0195  -11.2124  -47.2850 H         1 UNK         0.0600 
    186 H186        1.6241  -12.7281  -47.6393 H         1 UNK         0.0600 
    187 H187        1.3489  -11.0172  -47.9588 H         1 UNK         0.0600 
    188 H188        1.2541  -11.6295  -46.3147 H         1 UNK         0.0600 
    189 H189        0.0113  -12.9679  -49.4089 H         1 UNK         0.3000 
    190 H190       -1.3076  -21.2193  -45.0994 H         1 UNK         0.3000 
    191 H191       -3.7550  -21.3123  -46.5336 H         1 UNK         0.0600 
    192 H192       -3.2439  -19.7113  -44.6733 H         1 UNK         0.0600 
    193 H193       -3.3364  -21.0506  -43.5220 H         1 UNK         0.0600 
    194 H194       -4.7600  -20.5627  -44.4270 H         1 UNK         0.0600 
    195 H195       -2.3623  -23.6039  -44.1953 H         1 UNK         0.3000 
    196 H196       -4.7538  -25.2764  -44.0857 H         1 UNK         0.0600 
    197 H197       -3.3101  -26.7548  -42.7096 H         1 UNK         0.0600 
    198 H198       -3.2447  -25.1003  -42.1235 H         1 UNK         0.0600 
    199 H199       -1.9048  -25.7589  -43.0601 H         1 UNK         0.0600 
    200 H200       -1.5023  -25.4306  -45.6035 H         1 UNK         0.3000 
    201 H201       -1.7808  -27.9858  -46.7542 H         1 UNK         0.0600 
    202 H202        0.3986  -26.8831  -46.3505 H         1 UNK         0.0600 
    203 H203        0.0361  -25.6566  -47.5624 H         1 UNK         0.0600 
    204 H204        0.2541  -27.3350  -48.0426 H         1 UNK         0.0600 
    205 H205       -2.2896  -24.7402  -48.2642 H         1 UNK         0.3000 
    206 H206       -3.0869  -25.9810  -50.8177 H         1 UNK         0.0600 
    207 H207       -1.5546  -23.9980  -50.7297 H         1 UNK         0.0600 
    208 H208       -3.0215  -23.6665  -51.6368 H         1 UNK         0.0600 
    209 H209       -2.8415  -23.0421  -50.0026 H         1 UNK         0.0600 
    210 H210       -4.6682  -25.0187  -47.9683 H         1 UNK         0.3000 
    211 H211       -6.7240  -24.8232  -47.2430 H         1 UNK         0.0600 
    212 H212       -7.7272  -25.8108  -49.9599 H         1 UNK         0.0600 
    213 H213       -8.6493  -25.7383  -48.4676 H         1 UNK         0.0600 
    214 H214       -7.2785  -26.8299  -48.5927 H         1 UNK         0.0600 
    215 H215       -6.4954  -23.4708  -50.5150 H         1 UNK         0.3000 
    216 H216       -8.2146  -21.1397  -49.8734 H         1 UNK         0.0600 
    217 H217       -7.9398  -20.6679  -52.3005 H         1 UNK         0.0600 
    218 H218       -8.4639  -22.3255  -52.0610 H         1 UNK         0.0600 
    219 H219       -6.7794  -21.9831  -52.4517 H         1 UNK         0.0600 
    220 H220       -5.1428  -21.8880  -49.1277 H         1 UNK         0.3000 
    221 H221       -3.2466  -20.8760  -48.6053 H         1 UNK         0.0600 
    222 H222       -4.7651  -18.2175  -48.7338 H         1 UNK         0.0600 
    223 H223       -4.7595  -19.2966  -47.3446 H         1 UNK         0.0600 
    224 H224       -3.2723  -18.5235  -47.8670 H         1 UNK         0.0600 
    225 H225       -3.9558  -21.2479  -51.4444 H         1 UNK         0.3000 
    226 H226       -3.0228  -21.1182  -53.4547 H         1 UNK         0.0600 
    227 H227       -1.0276  -21.9151  -52.1611 H         1 UNK         0.0600 
    228 H228       -0.5667  -20.9691  -53.5643 H         1 UNK         0.0600 
    229 H229       -0.4913  -20.2512  -51.9617 H         1 UNK         0.0600 
    230 H230       -4.6464  -19.1999  -53.5080 H         1 UNK         0.3000 
    231 H231       -3.8465  -16.5257  -53.6773 H         1 UNK         0.0600 
    232 H232       -6.2108  -17.2544  -53.6458 H         1 UNK         0.0600 
    233 H233       -6.0348  -18.0059  -55.2322 H         1 UNK         0.0600 
    234 H234       -5.9140  -16.2585  -55.0630 H         1 UNK         0.0600 
    235 H235       -2.4947  -15.4952  -54.9755 H         1 UNK         0.3000 
    236 H236       -0.9943  -14.9776  -56.5019 H         1 UNK         0.0600 
    237 H237       -1.5647  -15.1436  -58.8896 H         1 UNK         0.0600 
    238 H238       -2.7961  -16.3543  -58.5625 H         1 UNK         0.0600 
    239 H239       -3.0011  -14.7015  -57.9838 H         1 UNK         0.0600 
    240 H240       -0.8043  -17.6254  -55.1060 H         1 UNK         0.3000 
    241 H241        0.4797  -19.3176  -54.8963 H         1 UNK         0.0600 
    242 H242       -1.8057  -20.9282  -57.5510 H         1 UNK         0.3800 
    243 H243       -1.9835  -19.3462  -56.8364 H         1 UNK         0.3800 
    244 H244        2.2280  -18.9337  -57.3280 H         1 UNK         0.0800 
    245 H245        2.3013  -17.7277  -56.0856 H         1 UNK         0.0800 
    246 H246        4.0178  -17.7240  -54.4578 H         1 UNK         0.0800 
    247 H247        4.6830  -19.0810  -53.5982 H         1 UNK         0.0800 
@<TRIPOS>BOND
     1    1    2 1    
     2    1  127 1    
     3    1  128 1    
     4    1  129 1    
     5    2    3 2    
     6    2    4 am   BACKBONE|DICT|INTERRES
     7    4    5 1    
     8    4  130 1    
     9    5    6 1    
    10    5   65 1    
    11    5  131 1    
    12    6    7 1    
    13    6  132 1    
    14    6  133 1    
    15    7    8 1    
    16    8    9 1    
    17    8  134 1    
    18    8  135 1    
    19    9   10 ar   
    20    9   14 ar   
    21   10   11 ar   
    22   10  136 1    
    23   11   12 ar   
    24   11  126 1    
    25   12   13 ar   
    26   12  137 1    
    27   13   14 ar   
    28   13   15 1    
    29   14  138 1    
    30   15   16 1    
    31   15  139 1    
    32   15  140 1    
    33   16   17 1    
    34   17   18 1    
    35   17  141 1    
    36   17  142 1    
    37   18   19 1    
    38   18   67 1    
    39   18  143 1    
    40   19   20 am   BACKBONE|DICT|INTERRES
    41   19  144 1    
    42   20   21 2    
    43   20   22 1    
    44   22   23 1    
    45   22   24 1    
    46   22  145 1    
    47   23  146 1    
    48   23  147 1    
    49   23  148 1    
    50   24   25 am   BACKBONE|DICT|INTERRES
    51   24  149 1    
    52   25   26 2    
    53   25   27 1    
    54   27   28 1    
    55   27   29 1    
    56   27  150 1    
    57   28  151 1    
    58   28  152 1    
    59   28  153 1    
    60   29   30 am   BACKBONE|DICT|INTERRES
    61   29  154 1    
    62   30   31 2    
    63   30   32 1    
    64   32   33 1    
    65   32   34 1    
    66   32  155 1    
    67   33  156 1    
    68   33  157 1    
    69   33  158 1    
    70   34   35 am   BACKBONE|DICT|INTERRES
    71   34  159 1    
    72   35   36 2    
    73   35   37 1    
    74   37   38 1    
    75   37   39 1    
    76   37  160 1    
    77   38  161 1    
    78   38  162 1    
    79   38  163 1    
    80   39   40 am   BACKBONE|DICT|INTERRES
    81   39  164 1    
    82   40   41 2    
    83   40   42 1    
    84   42   43 1    
    85   42   44 1    
    86   42  165 1    
    87   43  166 1    
    88   43  167 1    
    89   43  168 1    
    90   44   45 am   BACKBONE|DICT|INTERRES
    91   44  169 1    
    92   45   46 2    
    93   45   47 1    
    94   47   48 1    
    95   47   49 1    
    96   47  170 1    
    97   48  171 1    
    98   48  172 1    
    99   48  173 1    
   100   49   50 am   BACKBONE|DICT|INTERRES
   101   49  174 1    
   102   50   51 2    
   103   50   52 1    
   104   52   53 1    
   105   52   54 1    
   106   52  175 1    
   107   53  176 1    
   108   53  177 1    
   109   53  178 1    
   110   54   55 am   BACKBONE|DICT|INTERRES
   111   54  179 1    
   112   55   56 2    
   113   55   57 1    
   114   57   58 1    
   115   57   59 1    
   116   57  180 1    
   117   58  181 1    
   118   58  182 1    
   119   58  183 1    
   120   59   60 am   BACKBONE|DICT|INTERRES
   121   59  184 1    
   122   60   61 2    
   123   60   62 1    
   124   62   63 1    
   125   62   64 1    
   126   62  185 1    
   127   63  186 1    
   128   63  187 1    
   129   63  188 1    
   130   64   65 am   BACKBONE|DICT|INTERRES
   131   64  189 1    
   132   65   66 2    
   133   67   68 2    
   134   67   69 am   BACKBONE|DICT|INTERRES
   135   69   70 1    
   136   69  190 1    
   137   70   71 1    
   138   70   72 1    
   139   70  191 1    
   140   71  192 1    
   141   71  193 1    
   142   71  194 1    
   143   72   73 2    
   144   72   74 am   BACKBONE|DICT|INTERRES
   145   74   75 1    
   146   74  195 1    
   147   75   76 1    
   148   75   77 1    
   149   75  196 1    
   150   76  197 1    
   151   76  198 1    
   152   76  199 1    
   153   77   78 2    
   154   77   79 am   BACKBONE|DICT|INTERRES
   155   79   80 1    
   156   79  200 1    
   157   80   81 1    
   158   80   82 1    
   159   80  201 1    
   160   81  202 1    
   161   81  203 1    
   162   81  204 1    
   163   82   83 2    
   164   82   84 am   BACKBONE|DICT|INTERRES
   165   84   85 1    
   166   84  205 1    
   167   85   86 1    
   168   85   87 1    
   169   85  206 1    
   170   86  207 1    
   171   86  208 1    
   172   86  209 1    
   173   87   88 2    
   174   87   89 am   BACKBONE|DICT|INTERRES
   175   89   90 1    
   176   89  210 1    
   177   90   91 1    
   178   90   92 1    
   179   90  211 1    
   180   91  212 1    
   181   91  213 1    
   182   91  214 1    
   183   92   93 2    
   184   92   94 am   BACKBONE|DICT|INTERRES
   185   94   95 1    
   186   94  215 1    
   187   95   96 1    
   188   95   97 1    
   189   95  216 1    
   190   96  217 1    
   191   96  218 1    
   192   96  219 1    
   193   97   98 2    
   194   97   99 am   BACKBONE|DICT|INTERRES
   195   99  100 1    
   196   99  220 1    
   197  100  101 1    
   198  100  102 1    
   199  100  221 1    
   200  101  222 1    
   201  101  223 1    
   202  101  224 1    
   203  102  103 2    
   204  102  104 am   BACKBONE|DICT|INTERRES
   205  104  105 1    
   206  104  225 1    
   207  105  106 1    
   208  105  107 1    
   209  105  226 1    
   210  106  227 1    
   211  106  228 1    
   212  106  229 1    
   213  107  108 2    
   214  107  109 am   BACKBONE|DICT|INTERRES
   215  109  110 1    
   216  109  230 1    
   217  110  111 1    
   218  110  112 1    
   219  110  231 1    
   220  111  232 1    
   221  111  233 1    
   222  111  234 1    
   223  112  113 2    
   224  112  114 am   BACKBONE|DICT|INTERRES
   225  114  115 1    
   226  114  235 1    
   227  115  116 1    
   228  115  117 1    
   229  115  236 1    
   230  116  237 1    
   231  116  238 1    
   232  116  239 1    
   233  117  118 2    
   234  117  119 am   BACKBONE|DICT|INTERRES
   235  119  120 1    
   236  119  240 1    
   237  120  121 1    
   238  120  124 1    
   239  120  241 1    
   240  121  122 am   BACKBONE|DICT|INTERRES
   241  121  123 2    
   242  122  242 1    
   243  122  243 1    
   244  124  125 1    
   245  124  244 1    
   246  124  245 1    
   247  125  126 1    
   248  126  246 1    
   249  126  247 1    
@<TRIPOS>SUBSTRUCTURE
     1 UNK         1 GROUP             0       ****    0 ROOT    
