@<TRIPOS>MOLECULE
3R540
247   249    1
SMALL
USER_CHARGES


@<TRIPOS>ATOM
      1 CA         -3.6512  -13.7710  -51.0044 C.3       0 UNK        -0.1800 
      2 C          -2.6522  -13.5600  -49.8796 C.2       0 UNK         0.5000 
      3 O          -2.7966  -12.6205  -49.0966 O.2       0 UNK        -0.5000 
      4 N          -1.6422  -14.4338  -49.7892 N.am      1 UNK        -0.5000 
      5 CA         -0.5949  -14.3877  -48.7644 C.3       1 UNK         0.1400 
      6 C6          0.6851  -15.1421  -49.1947 C.3       23 UNK        -0.0398 
      7 S7          0.4473  -16.9351  -49.4113 S.3       23 UNK        -0.2404 
      8 C8          0.8371  -17.1823  -51.1704 C.3       23 UNK        -0.0205 
      9 C9          0.8462  -18.6692  -51.4771 C.ar      23 UNK        -0.0193 
     10 C10        -0.1729  -19.2566  -52.2321 C.ar      23 UNK        -0.1150 
     11 C11        -0.2025  -20.6423  -52.4171 C.ar      23 UNK        -0.0193 
     12 C12         0.7876  -21.4386  -51.8322 C.ar      23 UNK        -0.1150 
     13 C13         1.8142  -20.8600  -51.0806 C.ar      23 UNK        -0.0193 
     14 C14         1.8540  -19.4714  -50.9373 C.ar      23 UNK        -0.1150 
     15 C15         2.8345  -21.7406  -50.3663 C.3       23 UNK        -0.0205 
     16 S16         3.0243  -21.3366  -48.5900 S.3       23 UNK        -0.2404 
     17 C17         1.2954  -21.3277  -48.0008 C.3       23 UNK        -0.0398 
     18 CA          0.9042  -22.6503  -47.3104 C.3       11 UNK         0.1400 
     19 N           1.5796  -22.8314  -46.0248 N.am      11 UNK        -0.5000 
     20 C           1.6061  -23.9776  -45.3332 C.2       10 UNK         0.5000 
     21 O           1.0939  -25.0262  -45.7238 O.2       10 UNK        -0.5000 
     22 CA          2.2691  -23.9191  -43.9457 C.3       10 UNK         0.1400 
     23 CB          3.7999  -23.9500  -44.0687 C.3       10 UNK        -0.1800 
     24 N           1.8621  -22.7332  -43.1889 N.am      10 UNK        -0.5000 
     25 C           0.6123  -22.5085  -42.7601 C.2       9 UNK         0.5000 
     26 O          -0.3189  -23.2968  -42.9269 O.2       9 UNK        -0.5000 
     27 CA          0.3472  -21.1624  -42.0603 C.3       9 UNK         0.1400 
     28 CB          0.6483  -21.2714  -40.5594 C.3       9 UNK        -0.1800 
     29 N           1.0760  -20.0210  -42.6256 N.am      9 UNK        -0.5000 
     30 C           0.9901  -19.6002  -43.8976 C.2       8 UNK         0.5000 
     31 O           0.3802  -20.2182  -44.7690 O.2       8 UNK        -0.5000 
     32 CA          1.6881  -18.2800  -44.2755 C.3       8 UNK         0.1400 
     33 CB          0.7255  -17.3436  -45.0264 C.3       8 UNK        -0.1800 
     34 N           2.2037  -17.5741  -43.1019 N.am      8 UNK        -0.5000 
     35 C           3.4992  -17.3762  -42.8223 C.2       7 UNK         0.5000 
     36 O           4.4191  -17.7746  -43.5374 O.2       7 UNK        -0.5000 
     37 CA          3.8396  -16.6101  -41.5261 C.3       7 UNK         0.1400 
     38 CB          4.2610  -15.1685  -41.8429 C.3       7 UNK        -0.1800 
     39 N           2.7436  -16.5787  -40.5560 N.am      7 UNK        -0.5000 
     40 C           2.3374  -17.6356  -39.8398 C.2       6 UNK         0.5000 
     41 O           2.8670  -18.7448  -39.9053 O.2       6 UNK        -0.5000 
     42 CA          1.1085  -17.4371  -38.9313 C.3       6 UNK         0.1400 
     43 CB          1.5508  -17.0593  -37.5098 C.3       6 UNK        -0.1800 
     44 N           0.1478  -16.4399  -39.4123 N.am      6 UNK        -0.5000 
     45 C          -0.4669  -16.4421  -40.6039 C.2       5 UNK         0.5000 
     46 O          -0.2478  -17.2756  -41.4837 O.2       5 UNK        -0.5000 
     47 CA         -1.4874  -15.3205  -40.8759 C.3       5 UNK         0.1400 
     48 CB         -1.8667  -14.4874  -39.6307 C.3       5 UNK        -0.1800 
     49 N          -1.0568  -14.4408  -41.9631 N.am      5 UNK        -0.5000 
     50 C           0.0639  -13.7031  -42.0281 C.2       4 UNK         0.5000 
     51 O           0.9483  -13.7314  -41.1703 O.2       4 UNK        -0.5000 
     52 CA          0.2337  -12.7669  -43.2463 C.3       4 UNK         0.1400 
     53 CB          1.4488  -13.1798  -44.0910 C.3       4 UNK        -0.1800 
     54 N          -0.9496  -12.7159  -44.1090 N.am      4 UNK        -0.5000 
     55 C          -2.0717  -12.0320  -43.8345 C.2       3 UNK         0.5000 
     56 O          -2.1897  -11.2903  -42.8586 O.2       3 UNK        -0.5000 
     57 CA         -3.2787  -12.2241  -44.7803 C.3       3 UNK         0.1400 
     58 CB         -3.3968  -11.0360  -45.7467 C.3       3 UNK        -0.1800 
     59 N          -3.2390  -13.4613  -45.5632 N.am      3 UNK        -0.5000 
     60 C          -3.2128  -14.7066  -45.0650 C.2       2 UNK         0.5000 
     61 O          -3.3127  -14.9595  -43.8642 O.2       2 UNK        -0.5000 
     62 CA         -2.9773  -15.8585  -46.0652 C.3       2 UNK         0.1400 
     63 CB         -4.3216  -16.5051  -46.4346 C.3       2 UNK        -0.1800 
     64 N          -2.2728  -15.4687  -47.2946 N.am      2 UNK        -0.5000 
     65 C          -1.0982  -14.8175  -47.3673 C.2       1 UNK         0.5000 
     66 O          -0.4396  -14.4997  -46.3775 O.2       1 UNK        -0.5000 
     67 C          -0.6243  -22.7419  -47.1619 C.2       11 UNK         0.5000 
     68 O          -1.2727  -23.3394  -48.0190 O.2       11 UNK        -0.5000 
     69 N          -1.1687  -22.1741  -46.0766 N.am      12 UNK        -0.5000 
     70 CA         -2.5923  -22.2091  -45.7485 C.3       12 UNK         0.1400 
     71 CB         -2.8785  -21.3052  -44.5415 C.3       12 UNK        -0.1800 
     72 C          -3.1118  -23.6376  -45.5173 C.2       12 UNK         0.5000 
     73 O          -4.1915  -23.9769  -46.0018 O.2       12 UNK        -0.5000 
     74 N          -2.3124  -24.4594  -44.8252 N.am      13 UNK        -0.5000 
     75 CA         -2.5696  -25.8844  -44.6324 C.3       13 UNK         0.1400 
     76 CB         -1.6177  -26.4297  -43.5568 C.3       13 UNK        -0.1800 
     77 C          -2.4390  -26.6929  -45.9378 C.2       13 UNK         0.5000 
     78 O          -3.2528  -27.5851  -46.1798 O.2       13 UNK        -0.5000 
     79 N          -1.4168  -26.3779  -46.7450 N.am      14 UNK        -0.5000 
     80 CA         -1.0915  -27.0936  -47.9773 C.3       14 UNK         0.1400 
     81 CB          0.3589  -26.7856  -48.3813 C.3       14 UNK        -0.1800 
     82 C          -2.0447  -26.7932  -49.1474 C.2       14 UNK         0.5000 
     83 O          -2.4704  -27.7291  -49.8266 O.2       14 UNK        -0.5000 
     84 N          -2.3263  -25.5079  -49.3978 N.am      15 UNK        -0.5000 
     85 CA         -2.9660  -25.0378  -50.6277 C.3       15 UNK         0.1400 
     86 CB         -1.9156  -24.9563  -51.7548 C.3       15 UNK        -0.1800 
     87 C          -3.7297  -23.7162  -50.4241 C.2       15 UNK         0.5000 
     88 O          -3.7329  -22.8658  -51.3155 O.2       15 UNK        -0.5000 
     89 N          -4.3769  -23.5637  -49.2606 N.am      16 UNK        -0.5000 
     90 CA         -5.3069  -22.4946  -48.8598 C.3       16 UNK         0.1400 
     91 CB         -6.5284  -22.4404  -49.7983 C.3       16 UNK        -0.1800 
     92 C          -4.7021  -21.0863  -48.6803 C.2       16 UNK         0.5000 
     93 O          -5.1783  -20.3533  -47.8141 O.2       16 UNK        -0.5000 
     94 N          -3.6837  -20.7263  -49.4764 N.am      17 UNK        -0.5000 
     95 CA         -2.9423  -19.4528  -49.4758 C.3       17 UNK         0.1400 
     96 CB         -2.1729  -19.2753  -48.1485 C.3       17 UNK        -0.1800 
     97 C          -3.7933  -18.2105  -49.8356 C.2       17 UNK         0.5000 
     98 O          -3.3513  -17.0781  -49.6300 O.2       17 UNK        -0.5000 
     99 N          -5.0026  -18.4393  -50.3637 N.am      18 UNK        -0.5000 
    100 CA        -6.0221  -17.4215  -50.6172 C.3       18 UNK         0.1400 
    101 CB        -7.3913  -18.1152  -50.6928 C.3       18 UNK        -0.1800 
    102 C         -5.7720  -16.5832  -51.8838 C.2       18 UNK         0.5000 
    103 O         -6.3592  -15.5086  -52.0135 O.2       18 UNK        -0.5000 
    104 N         -4.9211  -17.0748  -52.7906 N.am      19 UNK        -0.5000 
    105 CA        -4.5345  -16.4263  -54.0384 C.3       19 UNK         0.1400 
    106 CB        -5.6909  -16.4904  -55.0559 C.3       19 UNK        -0.1800 
    107 C         -3.2905  -17.1284  -54.5976 C.2       19 UNK         0.5000 
    108 O         -3.0355  -18.2860  -54.2557 O.2       19 UNK        -0.5000 
    109 N         -2.5634  -16.4253  -55.4733 N.am      20 UNK        -0.5000 
    110 CA        -1.5168  -16.9936  -56.3246 C.3       20 UNK         0.1400 
    111 CB        -0.6203  -15.8519  -56.8302 C.3       20 UNK        -0.1800 
    112 C         -2.1367  -17.7691  -57.5057 C.2       20 UNK         0.5000 
    113 O         -3.3178  -17.5772  -57.8075 O.2       20 UNK        -0.5000 
    114 N         -1.3237  -18.6170  -58.1555 N.am      21 UNK        -0.5000 
    115 CA        -1.7143  -19.5841  -59.1934 C.3       21 UNK         0.1400 
    116 CB        -2.2350  -18.8804  -60.4650 C.3       21 UNK        -0.1800 
    117 C         -2.6999  -20.6159  -58.6092 C.2       21 UNK         0.5000 
    118 O         -3.8739  -20.6564  -58.9809 O.2       21 UNK        -0.5000 
    119 N         -2.1858  -21.3720  -57.6332 N.am      22 UNK        -0.5000 
    120 CA        -2.9231  -22.2126  -56.6754 C.3       22 UNK         0.1400 
    121 C         -3.7691  -23.3755  -57.2749 C.2       22 UNK         0.5000 
    122 N         -3.5570  -23.7824  -58.5201 N.am      22 UNK        -0.7600 
    123 O         -4.6309  -23.9220  -56.5922 O.2       22 UNK        -0.5000 
    124 C124       -1.9807  -22.7631  -55.5689 C.3       23 UNK        -0.0398 
    125 S125       -0.7583  -21.5524  -54.9435 S.3       23 UNK        -0.2404 
    126 C126       -1.3075  -21.2910  -53.2333 C.3       23 UNK        -0.0205 
    127 H127       -4.6549  -13.8781  -50.5940 H         1 UNK         0.0600 
    128 H128       -3.6460  -12.9163  -51.6805 H         1 UNK         0.0600 
    129 H129       -3.4198  -14.6659  -51.5818 H         1 UNK         0.0600 
    130 H130       -1.6148  -15.2330  -50.4069 H         1 UNK         0.3000 
    131 H131       -0.3050  -13.3401  -48.6566 H         1 UNK         0.0600 
    132 H132        1.0690  -14.7108  -50.1200 H         1 UNK         0.0800 
    133 H133        1.4739  -14.9939  -48.4550 H         1 UNK         0.0800 
    134 H134        1.8156  -16.7569  -51.3983 H         1 UNK         0.0800 
    135 H135        0.1066  -16.6575  -51.7880 H         1 UNK         0.0800 
    136 H136       -0.9525  -18.6413  -52.6580 H         1 UNK         0.1150 
    137 H137        0.7488  -22.5118  -51.9549 H         1 UNK         0.1150 
    138 H138        2.6327  -19.0168  -50.3409 H         1 UNK         0.1150 
    139 H139        2.5586  -22.7928  -50.4515 H         1 UNK         0.0800 
    140 H140        3.8012  -21.6331  -50.8596 H         1 UNK         0.0800 
    141 H141        0.6236  -21.1203  -48.8332 H         1 UNK         0.0800 
    142 H142        1.1729  -20.4853  -47.3185 H         1 UNK         0.0800 
    143 H143        1.2064  -23.4717  -47.9634 H         1 UNK         0.0600 
    144 H144        1.9790  -22.0035  -45.6087 H         1 UNK         0.3000 
    145 H145        1.9531  -24.8034  -43.3880 H         1 UNK         0.0600 
    146 H146        4.2732  -23.9866  -43.0873 H         1 UNK         0.0600 
    147 H147        4.1284  -24.8321  -44.6200 H         1 UNK         0.0600 
    148 H148        4.1823  -23.0736  -44.5936 H         1 UNK         0.0600 
    149 H149        2.5664  -22.0319  -43.0129 H         1 UNK         0.3000 
    150 H150       -0.7165  -20.9460  -42.1698 H         1 UNK         0.0600 
    151 H151        0.1387  -22.1285  -40.1169 H         1 UNK         0.0600 
    152 H152        0.3048  -20.3853  -40.0283 H         1 UNK         0.0600 
    153 H153        1.7159  -21.3874  -40.3690 H         1 UNK         0.0600 
    154 H154        1.6092  -19.4615  -41.9752 H         1 UNK         0.3000 
    155 H155        2.4991  -18.5434  -44.9568 H         1 UNK         0.0600 
    156 H156       -0.1069  -17.0302  -44.3949 H         1 UNK         0.0600 
    157 H157        0.3061  -17.8238  -45.9118 H         1 UNK         0.0600 
    158 H158        1.2426  -16.4473  -45.3672 H         1 UNK         0.0600 
    159 H159        1.4984  -17.2524  -42.4455 H         1 UNK         0.3000 
    160 H160        4.6902  -17.1165  -41.0649 H         1 UNK         0.0600 
    161 H161        4.5914  -14.6470  -40.9445 H         1 UNK         0.0600 
    162 H162        3.4379  -14.6019  -42.2751 H         1 UNK         0.0600 
    163 H163        5.0873  -15.1463  -42.5547 H         1 UNK         0.0600 
    164 H164        2.2353  -15.7076  -40.4687 H         1 UNK         0.3000 
    165 H165        0.5832  -18.3914  -38.8783 H         1 UNK         0.0600 
    166 H166        0.7002  -17.0157  -36.8293 H         1 UNK         0.0600 
    167 H167        2.2481  -17.7959  -37.1082 H         1 UNK         0.0600 
    168 H168        2.0493  -16.0893  -37.4887 H         1 UNK         0.0600 
    169 H169       -0.0758  -15.6932  -38.7706 H         1 UNK         0.3000 
    170 H170       -2.3933  -15.8174  -41.2259 H         1 UNK         0.0600 
    171 H171       -2.2545  -15.1228  -38.8334 H         1 UNK         0.0600 
    172 H172       -1.0206  -13.9266  -39.2320 H         1 UNK         0.0600 
    173 H173       -2.6493  -13.7680  -39.8726 H         1 UNK         0.0600 
    174 H174       -1.7044  -14.3917  -42.7420 H         1 UNK         0.3000 
    175 H175        0.4197  -11.7624  -42.8610 H         1 UNK         0.0600 
    176 H176        1.4089  -14.2338  -44.3670 H         1 UNK         0.0600 
    177 H177        1.5134  -12.5949  -45.0087 H         1 UNK         0.0600 
    178 H178        2.3752  -13.0150  -43.5418 H         1 UNK         0.0600 
    179 H179       -0.9193  -13.3086  -44.9347 H         1 UNK         0.3000 
    180 H180       -4.1762  -12.2545  -44.1594 H         1 UNK         0.0600 
    181 H181       -2.5371  -10.9767  -46.4156 H         1 UNK         0.0600 
    182 H182       -3.4575  -10.0921  -45.2033 H         1 UNK         0.0600 
    183 H183       -4.2938  -11.1144  -46.3614 H         1 UNK         0.0600 
    184 H184       -3.1401  -13.3524  -46.5634 H         1 UNK         0.3000 
    185 H185       -2.3622  -16.6055  -45.5602 H         1 UNK         0.0600 
    186 H186       -4.8900  -16.7702  -45.5421 H         1 UNK         0.0600 
    187 H187       -4.9395  -15.8335  -47.0318 H         1 UNK         0.0600 
    188 H188       -4.1807  -17.4223  -47.0026 H         1 UNK         0.0600 
    189 H189       -2.7144  -15.7404  -48.1672 H         1 UNK         0.3000 
    190 H190       -0.5696  -21.6326  -45.4572 H         1 UNK         0.3000 
    191 H191       -3.1241  -21.7994  -46.6027 H         1 UNK         0.0600 
    192 H192       -2.4119  -21.6860  -43.6341 H         1 UNK         0.0600 
    193 H193       -3.9508  -21.2385  -44.3547 H         1 UNK         0.0600 
    194 H194       -2.5136  -20.2917  -44.7102 H         1 UNK         0.0600 
    195 H195       -1.4646  -24.0853  -44.4109 H         1 UNK         0.3000 
    196 H196       -3.5931  -25.9992  -44.2691 H         1 UNK         0.0600 
    197 H197       -1.7956  -27.4908  -43.3780 H         1 UNK         0.0600 
    198 H198       -1.7580  -25.9111  -42.6082 H         1 UNK         0.0600 
    199 H199       -0.5728  -26.3146  -43.8473 H         1 UNK         0.0600 
    200 H200       -0.7623  -25.6621  -46.4498 H         1 UNK         0.3000 
    201 H201       -1.1535  -28.1643  -47.7708 H         1 UNK         0.0600 
    202 H202        0.5081  -25.7217  -48.5660 H         1 UNK         0.0600 
    203 H203        1.0583  -27.0921  -47.6033 H         1 UNK         0.0600 
    204 H204        0.6336  -27.3186  -49.2924 H         1 UNK         0.0600 
    205 H205       -1.9408  -24.7796  -48.7950 H         1 UNK         0.3000 
    206 H206       -3.7262  -25.7611  -50.9293 H         1 UNK         0.0600 
    207 H207       -1.1209  -24.2530  -51.5044 H         1 UNK         0.0600 
    208 H208       -1.4546  -25.9264  -51.9402 H         1 UNK         0.0600 
    209 H209       -2.3651  -24.6350  -52.6948 H         1 UNK         0.0600 
    210 H210       -4.2519  -24.2894  -48.5672 H         1 UNK         0.3000 
    211 H211       -5.6761  -22.7898  -47.8769 H         1 UNK         0.0600 
    212 H212       -6.2557  -22.1360  -50.8091 H         1 UNK         0.0600 
    213 H213       -7.2676  -21.7258  -49.4339 H         1 UNK         0.0600 
    214 H214       -7.0203  -23.4110  -49.8612 H         1 UNK         0.0600 
    215 H215       -3.4180  -21.3981  -50.1924 H         1 UNK         0.3000 
    216 H216       -2.2012  -19.5333  -50.2707 H         1 UNK         0.0600 
    217 H217       -2.8258  -19.3226  -47.2783 H         1 UNK         0.0600 
    218 H218       -1.6570  -18.3182  -48.1022 H         1 UNK         0.0600 
    219 H219       -1.4161  -20.0477  -48.0350 H         1 UNK         0.0600 
    220 H220       -5.2782  -19.3992  -50.5052 H         1 UNK         0.3000 
    221 H221       -6.0360  -16.7325  -49.7698 H         1 UNK         0.0600 
    222 H222       -7.4364  -18.8274  -51.5177 H         1 UNK         0.0600 
    223 H223       -7.6114  -18.6540  -49.7707 H         1 UNK         0.0600 
    224 H224       -8.1911  -17.3886  -50.8418 H         1 UNK         0.0600 
    225 H225       -4.4538  -17.9556  -52.6165 H         1 UNK         0.3000 
    226 H226       -4.2822  -15.3839  -53.8338 H         1 UNK         0.0600 
    227 H227       -6.5681  -15.9481  -54.7035 H         1 UNK         0.0600 
    228 H228       -5.4017  -16.0461  -56.0091 H         1 UNK         0.0600 
    229 H229       -5.9908  -17.5202  -55.2537 H         1 UNK         0.0600 
    230 H230       -2.8738  -15.4978  -55.7227 H         1 UNK         0.3000 
    231 H231       -0.9112  -17.6843  -55.7331 H         1 UNK         0.0600 
    232 H232       -0.1771  -15.3020  -55.9997 H         1 UNK         0.0600 
    233 H233       -1.1784  -15.1427  -57.4429 H         1 UNK         0.0600 
    234 H234        0.2004  -16.2349  -57.4378 H         1 UNK         0.0600 
    235 H235       -0.3661  -18.6883  -57.8408 H         1 UNK         0.3000 
    236 H236       -0.8108  -20.1287  -59.4724 H         1 UNK         0.0600 
    237 H237       -2.4191  -19.6061  -61.2580 H         1 UNK         0.0600 
    238 H238       -3.1704  -18.3482  -60.2924 H         1 UNK         0.0600 
    239 H239       -1.5069  -18.1630  -60.8432 H         1 UNK         0.0600 
    240 H240       -1.2115  -21.2445  -57.4003 H         1 UNK         0.3000 
    241 H241       -3.6375  -21.5459  -56.1889 H         1 UNK         0.0600 
    242 H242       -2.8662  -23.3272  -59.0952 H         1 UNK         0.3800 
    243 H243       -4.1109  -24.5339  -58.9001 H         1 UNK         0.3800 
    244 H244       -1.4111  -23.6124  -55.9506 H         1 UNK         0.0800 
    245 H245       -2.5710  -23.1507  -54.7370 H         1 UNK         0.0800 
    246 H246       -2.2102  -20.6785  -53.2253 H         1 UNK         0.0800 
    247 H247       -1.5760  -22.2448  -52.7818 H         1 UNK         0.0800 
@<TRIPOS>BOND
     1    1    2 1    
     2    1  127 1    
     3    1  128 1    
     4    1  129 1    
     5    2    3 2    
     6    2    4 am   BACKBONE|DICT|INTERRES
     7    4    5 1    
     8    4  130 1    
     9    5    6 1    
    10    5   65 1    
    11    5  131 1    
    12    6    7 1    
    13    6  132 1    
    14    6  133 1    
    15    7    8 1    
    16    8    9 1    
    17    8  134 1    
    18    8  135 1    
    19    9   10 ar   
    20    9   14 ar   
    21   10   11 ar   
    22   10  136 1    
    23   11   12 ar   
    24   11  126 1    
    25   12   13 ar   
    26   12  137 1    
    27   13   14 ar   
    28   13   15 1    
    29   14  138 1    
    30   15   16 1    
    31   15  139 1    
    32   15  140 1    
    33   16   17 1    
    34   17   18 1    
    35   17  141 1    
    36   17  142 1    
    37   18   19 1    
    38   18   67 1    
    39   18  143 1    
    40   19   20 am   BACKBONE|DICT|INTERRES
    41   19  144 1    
    42   20   21 2    
    43   20   22 1    
    44   22   23 1    
    45   22   24 1    
    46   22  145 1    
    47   23  146 1    
    48   23  147 1    
    49   23  148 1    
    50   24   25 am   BACKBONE|DICT|INTERRES
    51   24  149 1    
    52   25   26 2    
    53   25   27 1    
    54   27   28 1    
    55   27   29 1    
    56   27  150 1    
    57   28  151 1    
    58   28  152 1    
    59   28  153 1    
    60   29   30 am   BACKBONE|DICT|INTERRES
    61   29  154 1    
    62   30   31 2    
    63   30   32 1    
    64   32   33 1    
    65   32   34 1    
    66   32  155 1    
    67   33  156 1    
    68   33  157 1    
    69   33  158 1    
    70   34   35 am   BACKBONE|DICT|INTERRES
    71   34  159 1    
    72   35   36 2    
    73   35   37 1    
    74   37   38 1    
    75   37   39 1    
    76   37  160 1    
    77   38  161 1    
    78   38  162 1    
    79   38  163 1    
    80   39   40 am   BACKBONE|DICT|INTERRES
    81   39  164 1    
    82   40   41 2    
    83   40   42 1    
    84   42   43 1    
    85   42   44 1    
    86   42  165 1    
    87   43  166 1    
    88   43  167 1    
    89   43  168 1    
    90   44   45 am   BACKBONE|DICT|INTERRES
    91   44  169 1    
    92   45   46 2    
    93   45   47 1    
    94   47   48 1    
    95   47   49 1    
    96   47  170 1    
    97   48  171 1    
    98   48  172 1    
    99   48  173 1    
   100   49   50 am   BACKBONE|DICT|INTERRES
   101   49  174 1    
   102   50   51 2    
   103   50   52 1    
   104   52   53 1    
   105   52   54 1    
   106   52  175 1    
   107   53  176 1    
   108   53  177 1    
   109   53  178 1    
   110   54   55 am   BACKBONE|DICT|INTERRES
   111   54  179 1    
   112   55   56 2    
   113   55   57 1    
   114   57   58 1    
   115   57   59 1    
   116   57  180 1    
   117   58  181 1    
   118   58  182 1    
   119   58  183 1    
   120   59   60 am   BACKBONE|DICT|INTERRES
   121   59  184 1    
   122   60   61 2    
   123   60   62 1    
   124   62   63 1    
   125   62   64 1    
   126   62  185 1    
   127   63  186 1    
   128   63  187 1    
   129   63  188 1    
   130   64   65 am   BACKBONE|DICT|INTERRES
   131   64  189 1    
   132   65   66 2    
   133   67   68 2    
   134   67   69 am   BACKBONE|DICT|INTERRES
   135   69   70 1    
   136   69  190 1    
   137   70   71 1    
   138   70   72 1    
   139   70  191 1    
   140   71  192 1    
   141   71  193 1    
   142   71  194 1    
   143   72   73 2    
   144   72   74 am   BACKBONE|DICT|INTERRES
   145   74   75 1    
   146   74  195 1    
   147   75   76 1    
   148   75   77 1    
   149   75  196 1    
   150   76  197 1    
   151   76  198 1    
   152   76  199 1    
   153   77   78 2    
   154   77   79 am   BACKBONE|DICT|INTERRES
   155   79   80 1    
   156   79  200 1    
   157   80   81 1    
   158   80   82 1    
   159   80  201 1    
   160   81  202 1    
   161   81  203 1    
   162   81  204 1    
   163   82   83 2    
   164   82   84 am   BACKBONE|DICT|INTERRES
   165   84   85 1    
   166   84  205 1    
   167   85   86 1    
   168   85   87 1    
   169   85  206 1    
   170   86  207 1    
   171   86  208 1    
   172   86  209 1    
   173   87   88 2    
   174   87   89 am   BACKBONE|DICT|INTERRES
   175   89   90 1    
   176   89  210 1    
   177   90   91 1    
   178   90   92 1    
   179   90  211 1    
   180   91  212 1    
   181   91  213 1    
   182   91  214 1    
   183   92   93 2    
   184   92   94 am   BACKBONE|DICT|INTERRES
   185   94   95 1    
   186   94  215 1    
   187   95   96 1    
   188   95   97 1    
   189   95  216 1    
   190   96  217 1    
   191   96  218 1    
   192   96  219 1    
   193   97   98 2    
   194   97   99 am   BACKBONE|DICT|INTERRES
   195   99  100 1    
   196   99  220 1    
   197  100  101 1    
   198  100  102 1    
   199  100  221 1    
   200  101  222 1    
   201  101  223 1    
   202  101  224 1    
   203  102  103 2    
   204  102  104 am   BACKBONE|DICT|INTERRES
   205  104  105 1    
   206  104  225 1    
   207  105  106 1    
   208  105  107 1    
   209  105  226 1    
   210  106  227 1    
   211  106  228 1    
   212  106  229 1    
   213  107  108 2    
   214  107  109 am   BACKBONE|DICT|INTERRES
   215  109  110 1    
   216  109  230 1    
   217  110  111 1    
   218  110  112 1    
   219  110  231 1    
   220  111  232 1    
   221  111  233 1    
   222  111  234 1    
   223  112  113 2    
   224  112  114 am   BACKBONE|DICT|INTERRES
   225  114  115 1    
   226  114  235 1    
   227  115  116 1    
   228  115  117 1    
   229  115  236 1    
   230  116  237 1    
   231  116  238 1    
   232  116  239 1    
   233  117  118 2    
   234  117  119 am   BACKBONE|DICT|INTERRES
   235  119  120 1    
   236  119  240 1    
   237  120  121 1    
   238  120  124 1    
   239  120  241 1    
   240  121  122 am   BACKBONE|DICT|INTERRES
   241  121  123 2    
   242  122  242 1    
   243  122  243 1    
   244  124  125 1    
   245  124  244 1    
   246  124  245 1    
   247  125  126 1    
   248  126  246 1    
   249  126  247 1    
@<TRIPOS>SUBSTRUCTURE
     1 UNK         1 GROUP             0       ****    0 ROOT    
