@<TRIPOS>MOLECULE
3R540
247   249    1
SMALL
USER_CHARGES


@<TRIPOS>ATOM
      1 CA          6.5929  -11.5213  -47.2968 C.3       0 UNK        -0.1800 
      2 C           5.5826  -12.6363  -47.0715 C.2       0 UNK         0.5000 
      3 O           4.7362  -12.5251  -46.1850 O.2       0 UNK        -0.5000 
      4 N           5.6522  -13.6982  -47.8842 N.am      1 UNK        -0.5000 
      5 CA          4.7930  -14.8896  -47.8180 C.3       1 UNK         0.1400 
      6 C6          5.2888  -16.0091  -48.7706 C.3       23 UNK        -0.0398 
      7 S7          5.4072  -15.4872  -50.5230 S.3       23 UNK        -0.2404 
      8 C8          4.9948  -17.0213  -51.4264 C.3       23 UNK        -0.0205 
      9 C9          3.6138  -17.5930  -51.1135 C.ar      23 UNK        -0.0193 
     10 C10         2.5027  -16.7625  -50.9345 C.ar      23 UNK        -0.1150 
     11 C11         1.2510  -17.2939  -50.6128 C.ar      23 UNK        -0.0193 
     12 C12         1.1115  -18.6819  -50.4920 C.ar      23 UNK        -0.1150 
     13 C13         2.2046  -19.5272  -50.6984 C.ar      23 UNK        -0.0193 
     14 C14         3.4508  -18.9769  -51.0086 C.ar      23 UNK        -0.1150 
     15 C15         2.0433  -21.0358  -50.5850 C.3       23 UNK        -0.0205 
     16 S16         2.7902  -21.6881  -49.0586 S.3       23 UNK        -0.2404 
     17 C17         1.6666  -21.0265  -47.7820 C.3       23 UNK        -0.0398 
     18 CA          0.7226  -22.0999  -47.1944 C.3       11 UNK         0.1400 
     19 N           0.1827  -21.6914  -45.8978 N.am      11 UNK        -0.5000 
     20 C          -0.4744  -22.4999  -45.0568 C.2       10 UNK         0.5000 
     21 O          -0.6889  -23.6899  -45.2826 O.2       10 UNK        -0.5000 
     22 CA         -1.0240  -21.8643  -43.7686 C.3       10 UNK         0.1400 
     23 CB          0.0937  -21.6754  -42.7325 C.3       10 UNK        -0.1800 
     24 N          -1.6974  -20.5887  -44.0148 N.am      10 UNK        -0.5000 
     25 C          -2.8023  -20.4535  -44.7634 C.2       9 UNK         0.5000 
     26 O          -3.3847  -21.3960  -45.3000 O.2       9 UNK        -0.5000 
     27 CA         -3.3267  -19.0240  -44.9818 C.3       9 UNK         0.1400 
     28 CB         -4.1040  -18.5357  -43.7504 C.3       9 UNK        -0.1800 
     29 N          -2.2675  -18.0686  -45.3031 N.am      9 UNK        -0.5000 
     30 C          -1.4708  -18.1421  -46.3801 C.2       8 UNK         0.5000 
     31 O          -1.5362  -19.0309  -47.2283 O.2       8 UNK        -0.5000 
     32 CA         -0.3709  -17.0740  -46.4876 C.3       8 UNK         0.1400 
     33 CB         -0.9779  -15.6985  -46.8118 C.3       8 UNK        -0.1800 
     34 N           0.4262  -16.9834  -45.2656 N.am      8 UNK        -0.5000 
     35 C           1.1101  -17.9932  -44.7091 C.2       7 UNK         0.5000 
     36 O           1.1858  -19.1239  -45.1869 O.2       7 UNK        -0.5000 
     37 CA          1.7752  -17.7080  -43.3542 C.3       7 UNK         0.1400 
     38 CB          3.1173  -16.9864  -43.5457 C.3       7 UNK        -0.1800 
     39 N           0.9021  -16.9253  -42.4793 N.am      7 UNK        -0.5000 
     40 C          -0.2322  -17.3896  -41.9344 C.2       6 UNK         0.5000 
     41 O          -0.6459  -18.5392  -42.0856 O.2       6 UNK        -0.5000 
     42 CA         -1.0637  -16.3860  -41.1157 C.3       6 UNK         0.1400 
     43 CB         -0.4912  -16.2313  -39.6988 C.3       6 UNK        -0.1800 
     44 N          -1.1409  -15.0729  -41.7567 N.am      6 UNK        -0.5000 
     45 C          -1.7794  -14.8361  -42.9109 C.2       5 UNK         0.5000 
     46 O          -2.4072  -15.6935  -43.5324 O.2       5 UNK        -0.5000 
     47 CA         -1.6660  -13.4117  -43.4871 C.3       5 UNK         0.1400 
     48 CB         -2.7716  -12.5115  -42.9162 C.3       5 UNK        -0.1800 
     49 N          -0.3630  -12.7740  -43.2700 N.am      5 UNK        -0.5000 
     50 C           0.8123  -13.2588  -43.6919 C.2       4 UNK         0.5000 
     51 O           0.9406  -14.3472  -44.2523 O.2       4 UNK        -0.5000 
     52 CA          2.0444  -12.3647  -43.4776 C.3       4 UNK         0.1400 
     53 CB          3.2763  -13.1771  -43.0462 C.3       4 UNK        -0.1800 
     54 N           2.3526  -11.6606  -44.7166 N.am      4 UNK        -0.5000 
     55 C           1.6767  -10.6030  -45.1828 C.2       3 UNK         0.5000 
     56 O           0.7821  -10.0309  -44.5585 O.2       3 UNK        -0.5000 
     57 CA          2.0516  -10.1196  -46.5926 C.3       3 UNK         0.1400 
     58 CB          3.3240   -9.2586  -46.5570 C.3       3 UNK        -0.1800 
     59 N           2.2412  -11.2402  -47.5149 N.am      3 UNK        -0.5000 
     60 C           1.2418  -11.9201  -48.0951 C.2       2 UNK         0.5000 
     61 O           0.0516  -11.6604  -47.9171 O.2       2 UNK        -0.5000 
     62 CA          1.6225  -13.0651  -49.0525 C.3       2 UNK         0.1400 
     63 CB          1.5025  -12.6038  -50.5136 C.3       2 UNK        -0.1800 
     64 N           2.9799  -13.5619  -48.8251 N.am      2 UNK        -0.5000 
     65 C           3.2903  -14.5853  -48.0167 C.2       1 UNK         0.5000 
     66 O           2.4562  -15.2660  -47.4233 O.2       1 UNK        -0.5000 
     67 C          -0.3939  -22.5009  -48.1811 C.2       11 UNK         0.5000 
     68 O          -0.2752  -23.5333  -48.8386 O.2       11 UNK        -0.5000 
     69 N          -1.4788  -21.7160  -48.2374 N.am      12 UNK        -0.5000 
     70 CA         -2.6503  -21.9895  -49.0722 C.3       12 UNK         0.1400 
     71 CB         -3.5684  -20.7615  -49.0693 C.3       12 UNK        -0.1800 
     72 C          -3.4258  -23.2544  -48.6517 C.2       12 UNK         0.5000 
     73 O          -4.0287  -23.9052  -49.5074 O.2       12 UNK        -0.5000 
     74 N          -3.3940  -23.5871  -47.3542 N.am      13 UNK        -0.5000 
     75 CA         -3.9187  -24.8382  -46.8114 C.3       13 UNK         0.1400 
     76 CB         -4.1538  -24.6921  -45.3009 C.3       13 UNK        -0.1800 
     77 C          -2.9860  -26.0250  -47.1145 C.2       13 UNK         0.5000 
     78 O          -3.4649  -27.0794  -47.5321 O.2       13 UNK        -0.5000 
     79 N          -1.6716  -25.8319  -46.9286 N.am      14 UNK        -0.5000 
     80 CA         -0.6316  -26.8267  -47.2106 C.3       14 UNK         0.1400 
     81 CB          0.7263  -26.3120  -46.7110 C.3       14 UNK        -0.1800 
     82 C          -0.5485  -27.2158  -48.6983 C.2       14 UNK         0.5000 
     83 O          -0.2661  -28.3745  -49.0088 O.2       14 UNK        -0.5000 
     84 N          -0.8397  -26.2593  -49.5893 N.am      15 UNK        -0.5000 
     85 CA         -0.9670  -26.4236  -51.0369 C.3       15 UNK         0.1400 
     86 CB         -0.8926  -25.0342  -51.6963 C.3       15 UNK        -0.1800 
     87 C          -2.2474  -27.1940  -51.4302 C.2       15 UNK         0.5000 
     88 O          -3.1040  -26.6553  -52.1313 O.2       15 UNK        -0.5000 
     89 N          -2.3571  -28.4429  -50.9561 N.am      16 UNK        -0.5000 
     90 CA         -3.4083  -29.4269  -51.2421 C.3       16 UNK         0.1400 
     91 CB         -3.2775  -29.9275  -52.6958 C.3       16 UNK        -0.1800 
     92 C          -4.8376  -28.9455  -50.9060 C.2       16 UNK         0.5000 
     93 O          -5.7873  -29.3180  -51.5979 O.2       16 UNK        -0.5000 
     94 N          -4.9627  -28.1255  -49.8509 N.am      17 UNK        -0.5000 
     95 CA         -6.1946  -27.4986  -49.3613 C.3       17 UNK         0.1400 
     96 CB         -7.1492  -28.5572  -48.7700 C.3       17 UNK        -0.1800 
     97 C          -6.8731  -26.5774  -50.3977 C.2       17 UNK         0.5000 
     98 O          -8.1027  -26.5002  -50.4341 O.2       17 UNK        -0.5000 
     99 N          -6.0647  -25.8900  -51.2201 N.am      18 UNK        -0.5000 
    100 CA        -6.5248  -24.9340  -52.2299 C.3       18 UNK         0.1400 
    101 CB        -5.3361  -24.4713  -53.0865 C.3       18 UNK        -0.1800 
    102 C         -7.2505  -23.7213  -51.6213 C.2       18 UNK         0.5000 
    103 O         -8.2733  -23.2980  -52.1613 O.2       18 UNK        -0.5000 
    104 N         -6.7102  -23.2040  -50.5054 N.am      19 UNK        -0.5000 
    105 CA        -7.2420  -22.0970  -49.6985 C.3       19 UNK         0.1400 
    106 CB        -8.5335  -22.5338  -48.9770 C.3       19 UNK        -0.1800 
    107 C         -7.4091  -20.7763  -50.4865 C.2       19 UNK         0.5000 
    108 O         -8.3203  -19.9950  -50.2057 O.2       19 UNK        -0.5000 
    109 N         -6.5253  -20.5609  -51.4702 N.am      20 UNK        -0.5000 
    110 CA        -6.4664  -19.3724  -52.3185 C.3       20 UNK         0.1400 
    111 CB        -5.4836  -19.6495  -53.4680 C.3       20 UNK        -0.1800 
    112 C         -6.0393  -18.1109  -51.5439 C.2       20 UNK         0.5000 
    113 O         -5.3929  -18.2125  -50.4992 O.2       20 UNK        -0.5000 
    114 N         -6.3762  -16.9393  -52.0997 N.am      21 UNK        -0.5000 
    115 CA        -5.9881  -15.6301  -51.5652 C.3       21 UNK         0.1400 
    116 CB        -6.8212  -14.5382  -52.2542 C.3       21 UNK        -0.1800 
    117 C         -4.4818  -15.3343  -51.7142 C.2       21 UNK         0.5000 
    118 O         -3.9421  -14.5780  -50.9071 O.2       21 UNK        -0.5000 
    119 N         -3.8601  -15.9288  -52.7447 N.am      22 UNK        -0.5000 
    120 CA        -2.4280  -15.9791  -53.1147 C.3       22 UNK         0.1400 
    121 C         -1.6021  -14.6554  -53.1795 C.2       22 UNK         0.5000 
    122 N         -2.0793  -13.5312  -52.6699 N.am      22 UNK        -0.7600 
    123 O         -0.5134  -14.6438  -53.7472 O.2       22 UNK        -0.5000 
    124 C124       -1.6587  -17.1307  -52.4068 C.3       23 UNK        -0.0398 
    125 S125       -1.5753  -17.0117  -50.5874 S.3       23 UNK        -0.2404 
    126 C126        0.0986  -16.3296  -50.3468 C.3       23 UNK        -0.0205 
    127 H127        6.0870  -10.6191  -47.6396 H         1 UNK         0.0600 
    128 H128        7.1099  -11.2909  -46.3654 H         1 UNK         0.0600 
    129 H129        7.3406  -11.7968  -48.0409 H         1 UNK         0.0600 
    130 H130        6.3557  -13.7188  -48.6094 H         1 UNK         0.3000 
    131 H131        4.8849  -15.2746  -46.7999 H         1 UNK         0.0600 
    132 H132        6.2791  -16.3407  -48.4562 H         1 UNK         0.0800 
    133 H133        4.6478  -16.8877  -48.6813 H         1 UNK         0.0800 
    134 H134        5.0498  -16.8201  -52.4968 H         1 UNK         0.0800 
    135 H135        5.7688  -17.7598  -51.2115 H         1 UNK         0.0800 
    136 H136        2.6176  -15.6916  -51.0203 H         1 UNK         0.1150 
    137 H137        0.1561  -19.1115  -50.2269 H         1 UNK         0.1150 
    138 H138        4.2977  -19.6326  -51.1563 H         1 UNK         0.1150 
    139 H139        0.9910  -21.3212  -50.6299 H         1 UNK         0.0800 
    140 H140        2.5227  -21.5119  -51.4415 H         1 UNK         0.0800 
    141 H141        1.1062  -20.1654  -48.1470 H         1 UNK         0.0800 
    142 H142        2.3128  -20.6399  -46.9935 H         1 UNK         0.0800 
    143 H143        1.3201  -22.9942  -47.0054 H         1 UNK         0.0600 
    144 H144        0.3422  -20.7227  -45.6284 H         1 UNK         0.3000 
    145 H145       -1.7603  -22.5529  -43.3491 H         1 UNK         0.0600 
    146 H146       -0.3059  -21.3156  -41.7843 H         1 UNK         0.0600 
    147 H147        0.6053  -22.6177  -42.5329 H         1 UNK         0.0600 
    148 H148        0.8425  -20.9597  -43.0726 H         1 UNK         0.0600 
    149 H149       -1.2910  -19.7675  -43.5782 H         1 UNK         0.3000 
    150 H150       -4.0139  -19.0505  -45.8299 H         1 UNK         0.0600 
    151 H151       -4.9044  -19.2300  -43.4915 H         1 UNK         0.0600 
    152 H152       -4.5628  -17.5642  -43.9349 H         1 UNK         0.0600 
    153 H153       -3.4561  -18.4381  -42.8784 H         1 UNK         0.0600 
    154 H154       -2.1489  -17.2926  -44.6580 H         1 UNK         0.3000 
    155 H155        0.3013  -17.3595  -47.2993 H         1 UNK         0.0600 
    156 H156       -1.5560  -15.7325  -47.7355 H         1 UNK         0.0600 
    157 H157       -0.2035  -14.9416  -46.9338 H         1 UNK         0.0600 
    158 H158       -1.6513  -15.3576  -46.0282 H         1 UNK         0.0600 
    159 H159        0.4849  -16.0658  -44.8302 H         1 UNK         0.3000 
    160 H160        1.9723  -18.6644  -42.8652 H         1 UNK         0.0600 
    161 H161        3.5794  -16.7410  -42.5895 H         1 UNK         0.0600 
    162 H162        3.0004  -16.0639  -44.1135 H         1 UNK         0.0600 
    163 H163        3.8178  -17.6159  -44.0956 H         1 UNK         0.0600 
    164 H164        1.1293  -15.9482  -42.3704 H         1 UNK         0.3000 
    165 H165       -2.0774  -16.7839  -41.0320 H         1 UNK         0.0600 
    166 H166       -1.1196  -15.5821  -39.0887 H         1 UNK         0.0600 
    167 H167       -0.4360  -17.1965  -39.1936 H         1 UNK         0.0600 
    168 H168        0.5146  -15.8095  -39.7120 H         1 UNK         0.0600 
    169 H169       -0.6502  -14.3117  -41.3113 H         1 UNK         0.3000 
    170 H170       -1.8140  -13.4828  -44.5660 H         1 UNK         0.0600 
    171 H171       -3.7569  -12.9489  -43.0835 H         1 UNK         0.0600 
    172 H172       -2.6560  -12.3632  -41.8418 H         1 UNK         0.0600 
    173 H173       -2.7679  -11.5313  -43.3935 H         1 UNK         0.0600 
    174 H174       -0.3808  -11.8515  -42.8585 H         1 UNK         0.3000 
    175 H175        1.8261  -11.6401  -42.6903 H         1 UNK         0.0600 
    176 H176        4.1051  -12.5192  -42.7849 H         1 UNK         0.0600 
    177 H177        3.0583  -13.7921  -42.1723 H         1 UNK         0.0600 
    178 H178        3.6213  -13.8381  -43.8416 H         1 UNK         0.0600 
    179 H179        3.0864  -12.0645  -45.2926 H         1 UNK         0.3000 
    180 H180        1.2354   -9.4953  -46.9630 H         1 UNK         0.0600 
    181 H181        4.1772   -9.8099  -46.1612 H         1 UNK         0.0600 
    182 H182        3.1808   -8.3824  -45.9235 H         1 UNK         0.0600 
    183 H183        3.5871   -8.9003  -47.5524 H         1 UNK         0.0600 
    184 H184        3.1881  -11.5625  -47.6483 H         1 UNK         0.3000 
    185 H185        0.9026  -13.8678  -48.8933 H         1 UNK         0.0600 
    186 H186        1.7279  -13.4145  -51.2062 H         1 UNK         0.0600 
    187 H187        0.4891  -12.2652  -50.7335 H         1 UNK         0.0600 
    188 H188        2.1803  -11.7779  -50.7328 H         1 UNK         0.0600 
    189 H189        3.7314  -13.0782  -49.2950 H         1 UNK         0.3000 
    190 H190       -1.5013  -20.8538  -47.6964 H         1 UNK         0.3000 
    191 H191       -2.3000  -22.1465  -50.0944 H         1 UNK         0.0600 
    192 H192       -3.9586  -20.5504  -48.0731 H         1 UNK         0.0600 
    193 H193       -4.4160  -20.9098  -49.7346 H         1 UNK         0.0600 
    194 H194       -3.0424  -19.8721  -49.4181 H         1 UNK         0.0600 
    195 H195       -2.9503  -22.9541  -46.6985 H         1 UNK         0.3000 
    196 H196       -4.8840  -25.0397  -47.2795 H         1 UNK         0.0600 
    197 H197       -3.2317  -24.4648  -44.7659 H         1 UNK         0.0600 
    198 H198       -4.5614  -25.6114  -44.8786 H         1 UNK         0.0600 
    199 H199       -4.8652  -23.8933  -45.0904 H         1 UNK         0.0600 
    200 H200       -1.3561  -24.9521  -46.5284 H         1 UNK         0.3000 
    201 H201       -0.8794  -27.7297  -46.6492 H         1 UNK         0.0600 
    202 H202        1.0240  -25.3994  -47.2271 H         1 UNK         0.0600 
    203 H203        1.5097  -27.0527  -46.8762 H         1 UNK         0.0600 
    204 H204        0.6997  -26.1003  -45.6420 H         1 UNK         0.0600 
    205 H205       -0.9783  -25.3165  -49.2375 H         1 UNK         0.3000 
    206 H206       -0.1163  -27.0075  -51.3935 H         1 UNK         0.0600 
    207 H207        0.0469  -24.5346  -51.4588 H         1 UNK         0.0600 
    208 H208       -0.9536  -25.1102  -52.7826 H         1 UNK         0.0600 
    209 H209       -1.7071  -24.3892  -51.3638 H         1 UNK         0.0600 
    210 H210       -1.6194  -28.7538  -50.3295 H         1 UNK         0.3000 
    211 H211       -3.2165  -30.2748  -50.5834 H         1 UNK         0.0600 
    212 H212       -3.5060  -29.1397  -53.4145 H         1 UNK         0.0600 
    213 H213       -3.9586  -30.7568  -52.8900 H         1 UNK         0.0600 
    214 H214       -2.2685  -30.2857  -52.9004 H         1 UNK         0.0600 
    215 H215       -4.1295  -27.8814  -49.3258 H         1 UNK         0.3000 
    216 H216       -5.8989  -26.8428  -48.5433 H         1 UNK         0.0600 
    217 H217       -6.6423  -29.1716  -48.0259 H         1 UNK         0.0600 
    218 H218       -7.9982  -28.0855  -48.2740 H         1 UNK         0.0600 
    219 H219       -7.5472  -29.2200  -49.5388 H         1 UNK         0.0600 
    220 H220       -5.0635  -26.0314  -51.1570 H         1 UNK         0.3000 
    221 H221       -7.2325  -25.4510  -52.8811 H         1 UNK         0.0600 
    222 H222       -4.5444  -24.0350  -52.4757 H         1 UNK         0.0600 
    223 H223       -4.9077  -25.3044  -53.6436 H         1 UNK         0.0600 
    224 H224       -5.6440  -23.7204  -53.8153 H         1 UNK         0.0600 
    225 H225       -5.8424  -23.6152  -50.1703 H         1 UNK         0.3000 
    226 H226       -6.4955  -21.8966  -48.9291 H         1 UNK         0.0600 
    227 H227       -8.3788  -23.4565  -48.4176 H         1 UNK         0.0600 
    228 H228       -8.8618  -21.7754  -48.2654 H         1 UNK         0.0600 
    229 H229       -9.3514  -22.7010  -49.6786 H         1 UNK         0.0600 
    230 H230       -5.8108  -21.2556  -51.6231 H         1 UNK         0.3000 
    231 H231       -7.4614  -19.2044  -52.7359 H         1 UNK         0.0600 
    232 H232       -5.7822  -20.5286  -54.0397 H         1 UNK         0.0600 
    233 H233       -4.4707  -19.8172  -53.0988 H         1 UNK         0.0600 
    234 H234       -5.4439  -18.8113  -54.1647 H         1 UNK         0.0600 
    235 H235       -6.9152  -16.9357  -52.9539 H         1 UNK         0.3000 
    236 H236       -6.2217  -15.6143  -50.4984 H         1 UNK         0.0600 
    237 H237       -6.5750  -13.5518  -51.8587 H         1 UNK         0.0600 
    238 H238       -6.6438  -14.5137  -53.3301 H         1 UNK         0.0600 
    239 H239       -7.8879  -14.6942  -52.0921 H         1 UNK         0.0600 
    240 H240       -4.4534  -16.4814  -53.3446 H         1 UNK         0.3000 
    241 H241       -2.4724  -16.2733  -54.1641 H         1 UNK         0.0600 
    242 H242       -1.5491  -12.6778  -52.7352 H         1 UNK         0.3800 
    243 H243       -2.9051  -13.5848  -52.0810 H         1 UNK         0.3800 
    244 H244       -2.1496  -18.0768  -52.6378 H         1 UNK         0.0800 
    245 H245       -0.6505  -17.2288  -52.8130 H         1 UNK         0.0800 
    246 H246        0.1882  -15.9998  -49.3147 H         1 UNK         0.0800 
    247 H247        0.2043  -15.4371  -50.9641 H         1 UNK         0.0800 
@<TRIPOS>BOND
     1    1    2 1    
     2    1  127 1    
     3    1  128 1    
     4    1  129 1    
     5    2    3 2    
     6    2    4 am   BACKBONE|DICT|INTERRES
     7    4    5 1    
     8    4  130 1    
     9    5    6 1    
    10    5   65 1    
    11    5  131 1    
    12    6    7 1    
    13    6  132 1    
    14    6  133 1    
    15    7    8 1    
    16    8    9 1    
    17    8  134 1    
    18    8  135 1    
    19    9   10 ar   
    20    9   14 ar   
    21   10   11 ar   
    22   10  136 1    
    23   11   12 ar   
    24   11  126 1    
    25   12   13 ar   
    26   12  137 1    
    27   13   14 ar   
    28   13   15 1    
    29   14  138 1    
    30   15   16 1    
    31   15  139 1    
    32   15  140 1    
    33   16   17 1    
    34   17   18 1    
    35   17  141 1    
    36   17  142 1    
    37   18   19 1    
    38   18   67 1    
    39   18  143 1    
    40   19   20 am   BACKBONE|DICT|INTERRES
    41   19  144 1    
    42   20   21 2    
    43   20   22 1    
    44   22   23 1    
    45   22   24 1    
    46   22  145 1    
    47   23  146 1    
    48   23  147 1    
    49   23  148 1    
    50   24   25 am   BACKBONE|DICT|INTERRES
    51   24  149 1    
    52   25   26 2    
    53   25   27 1    
    54   27   28 1    
    55   27   29 1    
    56   27  150 1    
    57   28  151 1    
    58   28  152 1    
    59   28  153 1    
    60   29   30 am   BACKBONE|DICT|INTERRES
    61   29  154 1    
    62   30   31 2    
    63   30   32 1    
    64   32   33 1    
    65   32   34 1    
    66   32  155 1    
    67   33  156 1    
    68   33  157 1    
    69   33  158 1    
    70   34   35 am   BACKBONE|DICT|INTERRES
    71   34  159 1    
    72   35   36 2    
    73   35   37 1    
    74   37   38 1    
    75   37   39 1    
    76   37  160 1    
    77   38  161 1    
    78   38  162 1    
    79   38  163 1    
    80   39   40 am   BACKBONE|DICT|INTERRES
    81   39  164 1    
    82   40   41 2    
    83   40   42 1    
    84   42   43 1    
    85   42   44 1    
    86   42  165 1    
    87   43  166 1    
    88   43  167 1    
    89   43  168 1    
    90   44   45 am   BACKBONE|DICT|INTERRES
    91   44  169 1    
    92   45   46 2    
    93   45   47 1    
    94   47   48 1    
    95   47   49 1    
    96   47  170 1    
    97   48  171 1    
    98   48  172 1    
    99   48  173 1    
   100   49   50 am   BACKBONE|DICT|INTERRES
   101   49  174 1    
   102   50   51 2    
   103   50   52 1    
   104   52   53 1    
   105   52   54 1    
   106   52  175 1    
   107   53  176 1    
   108   53  177 1    
   109   53  178 1    
   110   54   55 am   BACKBONE|DICT|INTERRES
   111   54  179 1    
   112   55   56 2    
   113   55   57 1    
   114   57   58 1    
   115   57   59 1    
   116   57  180 1    
   117   58  181 1    
   118   58  182 1    
   119   58  183 1    
   120   59   60 am   BACKBONE|DICT|INTERRES
   121   59  184 1    
   122   60   61 2    
   123   60   62 1    
   124   62   63 1    
   125   62   64 1    
   126   62  185 1    
   127   63  186 1    
   128   63  187 1    
   129   63  188 1    
   130   64   65 am   BACKBONE|DICT|INTERRES
   131   64  189 1    
   132   65   66 2    
   133   67   68 2    
   134   67   69 am   BACKBONE|DICT|INTERRES
   135   69   70 1    
   136   69  190 1    
   137   70   71 1    
   138   70   72 1    
   139   70  191 1    
   140   71  192 1    
   141   71  193 1    
   142   71  194 1    
   143   72   73 2    
   144   72   74 am   BACKBONE|DICT|INTERRES
   145   74   75 1    
   146   74  195 1    
   147   75   76 1    
   148   75   77 1    
   149   75  196 1    
   150   76  197 1    
   151   76  198 1    
   152   76  199 1    
   153   77   78 2    
   154   77   79 am   BACKBONE|DICT|INTERRES
   155   79   80 1    
   156   79  200 1    
   157   80   81 1    
   158   80   82 1    
   159   80  201 1    
   160   81  202 1    
   161   81  203 1    
   162   81  204 1    
   163   82   83 2    
   164   82   84 am   BACKBONE|DICT|INTERRES
   165   84   85 1    
   166   84  205 1    
   167   85   86 1    
   168   85   87 1    
   169   85  206 1    
   170   86  207 1    
   171   86  208 1    
   172   86  209 1    
   173   87   88 2    
   174   87   89 am   BACKBONE|DICT|INTERRES
   175   89   90 1    
   176   89  210 1    
   177   90   91 1    
   178   90   92 1    
   179   90  211 1    
   180   91  212 1    
   181   91  213 1    
   182   91  214 1    
   183   92   93 2    
   184   92   94 am   BACKBONE|DICT|INTERRES
   185   94   95 1    
   186   94  215 1    
   187   95   96 1    
   188   95   97 1    
   189   95  216 1    
   190   96  217 1    
   191   96  218 1    
   192   96  219 1    
   193   97   98 2    
   194   97   99 am   BACKBONE|DICT|INTERRES
   195   99  100 1    
   196   99  220 1    
   197  100  101 1    
   198  100  102 1    
   199  100  221 1    
   200  101  222 1    
   201  101  223 1    
   202  101  224 1    
   203  102  103 2    
   204  102  104 am   BACKBONE|DICT|INTERRES
   205  104  105 1    
   206  104  225 1    
   207  105  106 1    
   208  105  107 1    
   209  105  226 1    
   210  106  227 1    
   211  106  228 1    
   212  106  229 1    
   213  107  108 2    
   214  107  109 am   BACKBONE|DICT|INTERRES
   215  109  110 1    
   216  109  230 1    
   217  110  111 1    
   218  110  112 1    
   219  110  231 1    
   220  111  232 1    
   221  111  233 1    
   222  111  234 1    
   223  112  113 2    
   224  112  114 am   BACKBONE|DICT|INTERRES
   225  114  115 1    
   226  114  235 1    
   227  115  116 1    
   228  115  117 1    
   229  115  236 1    
   230  116  237 1    
   231  116  238 1    
   232  116  239 1    
   233  117  118 2    
   234  117  119 am   BACKBONE|DICT|INTERRES
   235  119  120 1    
   236  119  240 1    
   237  120  121 1    
   238  120  124 1    
   239  120  241 1    
   240  121  122 am   BACKBONE|DICT|INTERRES
   241  121  123 2    
   242  122  242 1    
   243  122  243 1    
   244  124  125 1    
   245  124  244 1    
   246  124  245 1    
   247  125  126 1    
   248  126  246 1    
   249  126  247 1    
@<TRIPOS>SUBSTRUCTURE
     1 UNK         1 GROUP             0       ****    0 ROOT    
