@<TRIPOS>MOLECULE
3R540
247   249    1
SMALL
USER_CHARGES


@<TRIPOS>ATOM
      1 CA         -4.4644  -20.0297  -45.8799 C.3       0 UNK        -0.1800 
      2 C          -4.6463  -18.5430  -46.1558 C.2       0 UNK         0.5000 
      3 O          -5.6441  -17.9675  -45.7235 O.2       0 UNK        -0.5000 
      4 N          -3.7028  -17.9216  -46.8810 N.am      1 UNK        -0.5000 
      5 CA         -3.7477  -16.5028  -47.2594 C.3       1 UNK         0.1400 
      6 C6         -2.7344  -16.1523  -48.3842 C.3       23 UNK        -0.0398 
      7 S7         -0.9731  -16.2956  -47.9098 S.3       23 UNK        -0.2404 
      8 C8         -0.1252  -15.8468  -49.4580 C.3       23 UNK        -0.0205 
      9 C9          0.7623  -16.9721  -49.9745 C.ar      23 UNK        -0.0193 
     10 C10         0.3093  -17.8223  -50.9890 C.ar      23 UNK        -0.1150 
     11 C11         1.1391  -18.8304  -51.4905 C.ar      23 UNK        -0.0193 
     12 C12         2.4284  -18.9786  -50.9800 C.ar      23 UNK        -0.1150 
     13 C13         2.8917  -18.1461  -49.9597 C.ar      23 UNK        -0.0193 
     14 C14         2.0522  -17.1444  -49.4588 C.ar      23 UNK        -0.1150 
     15 C15         4.3072  -18.3186  -49.4224 C.3       23 UNK        -0.0205 
     16 S16         4.6474  -20.0164  -48.8433 S.3       23 UNK        -0.2404 
     17 C17         3.5473  -20.1134  -47.3955 C.3       23 UNK        -0.0398 
     18 CA          2.7317  -21.4254  -47.2896 C.3       11 UNK         0.1400 
     19 N           2.1777  -21.5747  -45.9372 N.am      11 UNK        -0.5000 
     20 C           1.5276  -22.6465  -45.4622 C.2       10 UNK         0.5000 
     21 O           1.3408  -23.6758  -46.1102 O.2       10 UNK        -0.5000 
     22 CA          0.9501  -22.5344  -44.0372 C.3       10 UNK         0.1400 
     23 CB          2.0329  -22.8014  -42.9810 C.3       10 UNK        -0.1800 
     24 N           0.3281  -21.2340  -43.7831 N.am      10 UNK        -0.5000 
     25 C          -0.7730  -20.7874  -44.4033 C.2       9 UNK         0.5000 
     26 O          -1.4257  -21.4575  -45.2006 O.2       9 UNK        -0.5000 
     27 CA         -1.1767  -19.3229  -44.1403 C.3       9 UNK         0.1400 
     28 CB         -1.9906  -19.1851  -42.8450 C.3       9 UNK        -0.1800 
     29 N          -0.0270  -18.4156  -44.1108 N.am      9 UNK        -0.5000 
     30 C           0.7923  -18.2152  -45.1541 C.2       8 UNK         0.5000 
     31 O           0.6199  -18.7264  -46.2583 O.2       8 UNK        -0.5000 
     32 CA          2.0424  -17.3561  -44.9034 C.3       8 UNK         0.1400 
     33 CB          1.7239  -15.8606  -45.0498 C.3       8 UNK        -0.1800 
     34 N           2.6172  -17.6250  -43.5845 N.am      8 UNK        -0.5000 
     35 C           3.2749  -18.7526  -43.2729 C.2       7 UNK         0.5000 
     36 O           3.4969  -19.6533  -44.0807 O.2       7 UNK        -0.5000 
     37 CA          3.7110  -18.9310  -41.8055 C.3       7 UNK         0.1400 
     38 CB          5.0594  -18.2399  -41.5556 C.3       7 UNK        -0.1800 
     39 N           2.7229  -18.4195  -40.8554 N.am      7 UNK        -0.5000 
     40 C           1.4742  -18.8898  -40.7258 C.2       6 UNK         0.5000 
     41 O           1.0590  -19.8786  -41.3283 O.2       6 UNK        -0.5000 
     42 CA          0.5106  -18.0922  -39.8215 C.3       6 UNK         0.1400 
     43 CB          0.4202  -18.7400  -38.4324 C.3       6 UNK        -0.1800 
     44 N           0.8674  -16.6766  -39.6714 N.am      6 UNK        -0.5000 
     45 C           0.9671  -15.7932  -40.6740 C.2       5 UNK         0.5000 
     46 O           0.7295  -16.0721  -41.8544 O.2       5 UNK        -0.5000 
     47 CA          1.4793  -14.3920  -40.3047 C.3       5 UNK         0.1400 
     48 CB          2.8369  -14.4650  -39.5717 C.3       5 UNK        -0.1800 
     49 N           1.6203  -13.6137  -41.5310 N.am      5 UNK        -0.5000 
     50 C           1.7655  -12.2859  -41.6063 C.2       4 UNK         0.5000 
     51 O           1.7569  -11.5380  -40.6280 O.2       4 UNK        -0.5000 
     52 CA          1.9376  -11.6926  -43.0105 C.3       4 UNK         0.1400 
     53 CB          3.3743  -11.8882  -43.5255 C.3       4 UNK        -0.1800 
     54 N           0.9835  -12.2839  -43.9467 N.am      4 UNK        -0.5000 
     55 C           0.4300  -11.6377  -44.9784 C.2       3 UNK         0.5000 
     56 O           0.7083  -10.4764  -45.2817 O.2       3 UNK        -0.5000 
     57 CA         -0.6061  -12.4038  -45.8269 C.3       3 UNK         0.1400 
     58 CB         -0.0428  -12.6996  -47.2260 C.3       3 UNK        -0.1800 
     59 N          -1.0869  -13.6620  -45.2477 N.am      3 UNK        -0.5000 
     60 C          -1.8574  -13.7812  -44.1564 C.2       2 UNK         0.5000 
     61 O          -2.1488  -12.8367  -43.4218 O.2       2 UNK        -0.5000 
     62 CA         -2.3982  -15.1995  -43.8632 C.3       2 UNK         0.1400 
     63 CB         -3.5746  -15.2019  -42.8669 C.3       2 UNK        -0.1800 
     64 N          -2.7572  -15.9376  -45.0821 N.am      2 UNK        -0.5000 
     65 C          -3.6149  -15.5556  -46.0455 C.2       1 UNK         0.5000 
     66 O          -4.2757  -14.5166  -46.0163 O.2       1 UNK        -0.5000 
     67 C           1.6461  -21.5411  -48.3875 C.2       11 UNK         0.5000 
     68 O           1.8636  -22.2116  -49.3975 O.2       11 UNK        -0.5000 
     69 N           0.4755  -20.9415  -48.1356 N.am      12 UNK        -0.5000 
     70 CA         -0.7193  -21.0153  -48.9792 C.3       12 UNK         0.1400 
     71 CB         -1.6514  -19.8625  -48.5952 C.3       12 UNK        -0.1800 
     72 C          -1.4739  -22.3593  -48.9198 C.2       12 UNK         0.5000 
     73 O          -2.4095  -22.5433  -49.7014 O.2       12 UNK        -0.5000 
     74 N          -1.0603  -23.2619  -48.0200 N.am      13 UNK        -0.5000 
     75 CA         -1.6219  -24.5853  -47.7395 C.3       13 UNK         0.1400 
     76 CB         -1.6337  -25.4635  -49.0099 C.3       13 UNK        -0.1800 
     77 C          -3.0050  -24.5368  -47.0581 C.2       13 UNK         0.5000 
     78 O          -3.6199  -23.4746  -46.9275 O.2       13 UNK        -0.5000 
     79 N          -3.4662  -25.7145  -46.6132 N.am      14 UNK        -0.5000 
     80 CA         -4.7555  -25.9254  -45.9525 C.3       14 UNK         0.1400 
     81 CB         -4.9043  -27.4122  -45.5962 C.3       14 UNK        -0.1800 
     82 C          -5.9321  -25.4553  -46.8258 C.2       14 UNK         0.5000 
     83 O          -5.9759  -25.7828  -48.0131 O.2       14 UNK        -0.5000 
     84 N          -6.8289  -24.6593  -46.2275 N.am      15 UNK        -0.5000 
     85 CA         -7.9796  -23.9984  -46.8588 C.3       15 UNK         0.1400 
     86 CB         -9.0245  -25.0412  -47.3096 C.3       15 UNK        -0.1800 
     87 C          -7.5986  -23.0153  -47.9916 C.2       15 UNK         0.5000 
     88 O          -8.4432  -22.7070  -48.8339 O.2       15 UNK        -0.5000 
     89 N          -6.3411  -22.5414  -47.9900 N.am      16 UNK        -0.5000 
     90 CA         -5.7206  -21.6658  -48.9888 C.3       16 UNK         0.1400 
     91 CB         -6.4101  -20.2842  -49.0143 C.3       16 UNK        -0.1800 
     92 C          -5.6383  -22.3193  -50.3849 C.2       16 UNK         0.5000 
     93 O          -5.7595  -21.6246  -51.3943 O.2       16 UNK        -0.5000 
     94 N          -5.4389  -23.6454  -50.4273 N.am      17 UNK        -0.5000 
     95 CA         -5.4429  -24.4567  -51.6474 C.3       17 UNK         0.1400 
     96 CB         -5.2686  -25.9371  -51.2770 C.3       17 UNK        -0.1800 
     97 C          -4.4114  -24.0423  -52.7157 C.2       17 UNK         0.5000 
     98 O          -4.6977  -24.1871  -53.9051 O.2       17 UNK        -0.5000 
     99 N          -3.2498  -23.5226  -52.2943 N.am      18 UNK        -0.5000 
    100 CA        -2.2078  -23.0395  -53.2014 C.3       18 UNK         0.1400 
    101 CB        -0.8250  -23.2762  -52.5759 C.3       18 UNK        -0.1800 
    102 C         -2.3895  -21.5571  -53.5712 C.2       18 UNK         0.5000 
    103 O         -1.7948  -21.1131  -54.5533 O.2       18 UNK        -0.5000 
    104 N         -3.2028  -20.8003  -52.8157 N.am      19 UNK        -0.5000 
    105 CA        -3.4443  -19.3694  -53.0484 C.3       19 UNK         0.1400 
    106 CB        -4.2271  -18.7601  -51.8781 C.3       19 UNK        -0.1800 
    107 C         -4.1435  -19.0810  -54.3893 C.2       19 UNK         0.5000 
    108 O         -3.9436  -18.0080  -54.9577 O.2       19 UNK        -0.5000 
    109 N         -4.8905  -20.0677  -54.9028 N.am      20 UNK        -0.5000 
    110 CA        -5.4744  -20.0690  -56.2438 C.3       20 UNK         0.1400 
    111 CB        -6.3971  -21.2897  -56.3797 C.3       20 UNK        -0.1800 
    112 C         -4.4209  -20.0587  -57.3725 C.2       20 UNK         0.5000 
    113 O         -4.7112  -19.5505  -58.4562 O.2       20 UNK        -0.5000 
    114 N         -3.2254  -20.6043  -57.1034 N.am      21 UNK        -0.5000 
    115 CA        -2.0814  -20.5757  -58.0122 C.3       21 UNK         0.1400 
    116 CB        -1.2561  -21.8622  -57.8470 C.3       21 UNK        -0.1800 
    117 C         -1.2119  -19.3302  -57.7706 C.2       21 UNK         0.5000 
    118 O         -0.7793  -18.7054  -58.7403 O.2       21 UNK        -0.5000 
    119 N         -0.9697  -18.9900  -56.4956 N.am      22 UNK        -0.5000 
    120 CA        -0.1625  -17.8226  -56.0950 C.3       22 UNK         0.1400 
    121 C         -0.8168  -16.4475  -56.4122 C.2       22 UNK         0.5000 
    122 N         -2.1366  -16.3165  -56.3755 N.am      22 UNK        -0.7600 
    123 O         -0.1127  -15.4840  -56.7019 O.2       22 UNK        -0.5000 
    124 C124        0.2745  -17.8749  -54.6095 C.3       23 UNK        -0.0398 
    125 S125        1.2661  -19.3548  -54.2167 S.3       23 UNK        -0.2404 
    126 C126        0.6474  -19.7878  -52.5613 C.3       23 UNK        -0.0205 
    127 H127       -4.1218  -20.1867  -44.8590 H         1 UNK         0.0600 
    128 H128       -3.7479  -20.4922  -46.5567 H         1 UNK         0.0600 
    129 H129       -5.4128  -20.5537  -45.9938 H         1 UNK         0.0600 
    130 H130       -2.9036  -18.4366  -47.2207 H         1 UNK         0.3000 
    131 H131       -4.7427  -16.3271  -47.6747 H         1 UNK         0.0600 
    132 H132       -2.9108  -15.1338  -48.7348 H         1 UNK         0.0800 
    133 H133       -2.9112  -16.7963  -49.2470 H         1 UNK         0.0800 
    134 H134        0.4839  -14.9600  -49.2793 H         1 UNK         0.0800 
    135 H135       -0.8516  -15.5609  -50.2199 H         1 UNK         0.0800 
    136 H136       -0.6896  -17.7010  -51.3830 H         1 UNK         0.1150 
    137 H137        3.0703  -19.7561  -51.3704 H         1 UNK         0.1150 
    138 H138        2.4021  -16.4899  -48.6731 H         1 UNK         0.1150 
    139 H139        5.0128  -18.0715  -50.2166 H         1 UNK         0.0800 
    140 H140        4.5033  -17.6190  -48.6083 H         1 UNK         0.0800 
    141 H141        2.8822  -19.2512  -47.3791 H         1 UNK         0.0800 
    142 H142        4.1936  -20.0098  -46.5242 H         1 UNK         0.0800 
    143 H143        3.4214  -22.2600  -47.4316 H         1 UNK         0.0600 
    144 H144        2.3276  -20.7926  -45.3092 H         1 UNK         0.3000 
    145 H145        0.1786  -23.3000  -43.9310 H         1 UNK         0.0600 
    146 H146        1.6139  -22.7833  -41.9747 H         1 UNK         0.0600 
    147 H147        2.4874  -23.7820  -43.1276 H         1 UNK         0.0600 
    148 H148        2.8309  -22.0601  -43.0225 H         1 UNK         0.0600 
    149 H149        0.7645  -20.6449  -43.0800 H         1 UNK         0.3000 
    150 H150       -1.8110  -19.0090  -44.9696 H         1 UNK         0.0600 
    151 H151       -2.9051  -19.7760  -42.8935 H         1 UNK         0.0600 
    152 H152       -2.2813  -18.1507  -42.6646 H         1 UNK         0.0600 
    153 H153       -1.4345  -19.5348  -41.9770 H         1 UNK         0.0600 
    154 H154        0.1960  -17.9737  -43.2293 H         1 UNK         0.3000 
    155 H155        2.7869  -17.6114  -45.6596 H         1 UNK         0.0600 
    156 H156        0.9256  -15.5477  -44.3792 H         1 UNK         0.0600 
    157 H157        1.4036  -15.6344  -46.0672 H         1 UNK         0.0600 
    158 H158        2.6002  -15.2460  -44.8436 H         1 UNK         0.0600 
    159 H159        2.3950  -16.9661  -42.8501 H         1 UNK         0.3000 
    160 H160        3.8331  -20.0006  -41.6222 H         1 UNK         0.0600 
    161 H161        4.9926  -17.1604  -41.6969 H         1 UNK         0.0600 
    162 H162        5.8221  -18.6143  -42.2399 H         1 UNK         0.0600 
    163 H163        5.4154  -18.4248  -40.5420 H         1 UNK         0.0600 
    164 H164        2.9900  -17.6144  -40.3095 H         1 UNK         0.3000 
    165 H165       -0.4779  -18.1327  -40.2821 H         1 UNK         0.0600 
    166 H166       -0.3250  -18.2419  -37.8119 H         1 UNK         0.0600 
    167 H167        0.1285  -19.7885  -38.5084 H         1 UNK         0.0600 
    168 H168        1.3756  -18.7021  -37.9076 H         1 UNK         0.0600 
    169 H169        1.0791  -16.3709  -38.7325 H         1 UNK         0.3000 
    170 H170        0.7340  -13.9191  -39.6622 H         1 UNK         0.0600 
    171 H171        2.7590  -15.0113  -38.6315 H         1 UNK         0.0600 
    172 H172        3.5945  -14.9602  -40.1806 H         1 UNK         0.0600 
    173 H173        3.2115  -13.4721  -39.3232 H         1 UNK         0.0600 
    174 H174        1.6128  -14.1803  -42.3671 H         1 UNK         0.3000 
    175 H175        1.7443  -10.6209  -42.9249 H         1 UNK         0.0600 
    176 H176        3.6138  -12.9433  -43.6625 H         1 UNK         0.0600 
    177 H177        3.5213  -11.3857  -44.4817 H         1 UNK         0.0600 
    178 H178        4.1004  -11.4730  -42.8255 H         1 UNK         0.0600 
    179 H179        0.6371  -13.2049  -43.7293 H         1 UNK         0.3000 
    180 H180       -1.4683  -11.7439  -45.9425 H         1 UNK         0.0600 
    181 H181       -0.8045  -13.1357  -47.8723 H         1 UNK         0.0600 
    182 H182        0.7998  -13.3906  -47.1820 H         1 UNK         0.0600 
    183 H183        0.3060  -11.7876  -47.7123 H         1 UNK         0.0600 
    184 H184       -0.9210  -14.4908  -45.8001 H         1 UNK         0.3000 
    185 H185       -1.5756  -15.7474  -43.4018 H         1 UNK         0.0600 
    186 H186       -3.2763  -14.7772  -41.9077 H         1 UNK         0.0600 
    187 H187       -4.4179  -14.6180  -43.2371 H         1 UNK         0.0600 
    188 H188       -3.9285  -16.2150  -42.6764 H         1 UNK         0.0600 
    189 H189       -2.2622  -16.8041  -45.2306 H         1 UNK         0.3000 
    190 H190        0.4066  -20.3527  -47.3101 H         1 UNK         0.3000 
    191 H191       -0.4179  -20.8732  -50.0175 H         1 UNK         0.0600 
    192 H192       -2.6324  -19.9546  -49.0617 H         1 UNK         0.0600 
    193 H193       -1.2279  -18.9147  -48.9153 H         1 UNK         0.0600 
    194 H194       -1.7882  -19.8221  -47.5162 H         1 UNK         0.0600 
    195 H195       -0.3001  -22.9907  -47.4096 H         1 UNK         0.3000 
    196 H196       -0.9380  -25.0431  -47.0236 H         1 UNK         0.0600 
    197 H197       -2.3808  -25.1304  -49.7297 H         1 UNK         0.0600 
    198 H198       -0.6634  -25.4507  -49.5066 H         1 UNK         0.0600 
    199 H199       -1.8583  -26.5032  -48.7713 H         1 UNK         0.0600 
    200 H200       -2.9140  -26.5432  -46.7755 H         1 UNK         0.3000 
    201 H201       -4.7467  -25.3479  -45.0259 H         1 UNK         0.0600 
    202 H202       -4.8847  -28.0426  -46.4863 H         1 UNK         0.0600 
    203 H203       -5.8493  -27.5978  -45.0838 H         1 UNK         0.0600 
    204 H204       -4.1052  -27.7423  -44.9321 H         1 UNK         0.0600 
    205 H205       -6.6907  -24.4359  -45.2514 H         1 UNK         0.3000 
    206 H206       -8.4408  -23.3887  -46.0807 H         1 UNK         0.0600 
    207 H207       -9.2799  -25.7209  -46.4968 H         1 UNK         0.0600 
    208 H208       -9.9490  -24.5583  -47.6279 H         1 UNK         0.0600 
    209 H209       -8.6648  -25.6395  -48.1473 H         1 UNK         0.0600 
    210 H210       -5.7013  -22.8916  -47.2857 H         1 UNK         0.3000 
    211 H211       -4.6927  -21.5154  -48.6587 H         1 UNK         0.0600 
    212 H212       -5.7906  -19.5498  -49.5274 H         1 UNK         0.0600 
    213 H213       -6.5925  -19.9057  -48.0098 H         1 UNK         0.0600 
    214 H214       -7.3701  -20.3203  -49.5303 H         1 UNK         0.0600 
    215 H215       -5.3691  -24.1502  -49.5527 H         1 UNK         0.3000 
    216 H216       -6.4292  -24.3409  -52.1010 H         1 UNK         0.0600 
    217 H217       -4.3468  -26.1087  -50.7211 H         1 UNK         0.0600 
    218 H218       -5.2379  -26.5655  -52.1681 H         1 UNK         0.0600 
    219 H219       -6.0993  -26.2888  -50.6654 H         1 UNK         0.0600 
    220 H220       -3.0909  -23.3769  -51.2998 H         1 UNK         0.3000 
    221 H221       -2.2420  -23.6103  -54.1318 H         1 UNK         0.0600 
    222 H222       -0.6981  -24.3160  -52.2745 H         1 UNK         0.0600 
    223 H223       -0.6601  -22.6507  -51.7009 H         1 UNK         0.0600 
    224 H224       -0.0338  -23.0453  -53.2903 H         1 UNK         0.0600 
    225 H225       -3.7335  -21.2380  -52.0725 H         1 UNK         0.3000 
    226 H226       -2.4746  -18.8741  -53.0822 H         1 UNK         0.0600 
    227 H227       -5.2542  -19.1229  -51.8491 H         1 UNK         0.0600 
    228 H228       -3.7559  -18.9865  -50.9225 H         1 UNK         0.0600 
    229 H229       -4.2722  -17.6741  -51.9682 H         1 UNK         0.0600 
    230 H230       -5.0050  -20.9090  -54.3555 H         1 UNK         0.3000 
    231 H231       -6.0791  -19.1657  -56.3483 H         1 UNK         0.0600 
    232 H232       -5.8486  -22.2243  -56.2525 H         1 UNK         0.0600 
    233 H233       -6.8691  -21.3161  -57.3628 H         1 UNK         0.0600 
    234 H234       -7.1953  -21.2658  -55.6374 H         1 UNK         0.0600 
    235 H235       -3.0428  -20.9570  -56.1718 H         1 UNK         0.3000 
    236 H236       -2.4352  -20.5435  -59.0450 H         1 UNK         0.0600 
    237 H237       -1.8654  -22.7472  -58.0309 H         1 UNK         0.0600 
    238 H238       -0.4281  -21.8842  -58.5566 H         1 UNK         0.0600 
    239 H239       -0.8296  -21.9510  -56.8478 H         1 UNK         0.0600 
    240 H240       -1.3031  -19.5945  -55.7526 H         1 UNK         0.3000 
    241 H241        0.7519  -17.8599  -56.6909 H         1 UNK         0.0600 
    242 H242       -2.5472  -15.4224  -56.5909 H         1 UNK         0.3800 
    243 H243       -2.7348  -17.0700  -56.0464 H         1 UNK         0.3800 
    244 H244       -0.6007  -17.8314  -53.9621 H         1 UNK         0.0800 
    245 H245        0.8813  -17.0035  -54.3564 H         1 UNK         0.0800 
    246 H246       -0.4385  -19.8198  -52.5616 H         1 UNK         0.0800 
    247 H247        0.9804  -20.7979  -52.3185 H         1 UNK         0.0800 
@<TRIPOS>BOND
     1    1    2 1    
     2    1  127 1    
     3    1  128 1    
     4    1  129 1    
     5    2    3 2    
     6    2    4 am   BACKBONE|DICT|INTERRES
     7    4    5 1    
     8    4  130 1    
     9    5    6 1    
    10    5   65 1    
    11    5  131 1    
    12    6    7 1    
    13    6  132 1    
    14    6  133 1    
    15    7    8 1    
    16    8    9 1    
    17    8  134 1    
    18    8  135 1    
    19    9   10 ar   
    20    9   14 ar   
    21   10   11 ar   
    22   10  136 1    
    23   11   12 ar   
    24   11  126 1    
    25   12   13 ar   
    26   12  137 1    
    27   13   14 ar   
    28   13   15 1    
    29   14  138 1    
    30   15   16 1    
    31   15  139 1    
    32   15  140 1    
    33   16   17 1    
    34   17   18 1    
    35   17  141 1    
    36   17  142 1    
    37   18   19 1    
    38   18   67 1    
    39   18  143 1    
    40   19   20 am   BACKBONE|DICT|INTERRES
    41   19  144 1    
    42   20   21 2    
    43   20   22 1    
    44   22   23 1    
    45   22   24 1    
    46   22  145 1    
    47   23  146 1    
    48   23  147 1    
    49   23  148 1    
    50   24   25 am   BACKBONE|DICT|INTERRES
    51   24  149 1    
    52   25   26 2    
    53   25   27 1    
    54   27   28 1    
    55   27   29 1    
    56   27  150 1    
    57   28  151 1    
    58   28  152 1    
    59   28  153 1    
    60   29   30 am   BACKBONE|DICT|INTERRES
    61   29  154 1    
    62   30   31 2    
    63   30   32 1    
    64   32   33 1    
    65   32   34 1    
    66   32  155 1    
    67   33  156 1    
    68   33  157 1    
    69   33  158 1    
    70   34   35 am   BACKBONE|DICT|INTERRES
    71   34  159 1    
    72   35   36 2    
    73   35   37 1    
    74   37   38 1    
    75   37   39 1    
    76   37  160 1    
    77   38  161 1    
    78   38  162 1    
    79   38  163 1    
    80   39   40 am   BACKBONE|DICT|INTERRES
    81   39  164 1    
    82   40   41 2    
    83   40   42 1    
    84   42   43 1    
    85   42   44 1    
    86   42  165 1    
    87   43  166 1    
    88   43  167 1    
    89   43  168 1    
    90   44   45 am   BACKBONE|DICT|INTERRES
    91   44  169 1    
    92   45   46 2    
    93   45   47 1    
    94   47   48 1    
    95   47   49 1    
    96   47  170 1    
    97   48  171 1    
    98   48  172 1    
    99   48  173 1    
   100   49   50 am   BACKBONE|DICT|INTERRES
   101   49  174 1    
   102   50   51 2    
   103   50   52 1    
   104   52   53 1    
   105   52   54 1    
   106   52  175 1    
   107   53  176 1    
   108   53  177 1    
   109   53  178 1    
   110   54   55 am   BACKBONE|DICT|INTERRES
   111   54  179 1    
   112   55   56 2    
   113   55   57 1    
   114   57   58 1    
   115   57   59 1    
   116   57  180 1    
   117   58  181 1    
   118   58  182 1    
   119   58  183 1    
   120   59   60 am   BACKBONE|DICT|INTERRES
   121   59  184 1    
   122   60   61 2    
   123   60   62 1    
   124   62   63 1    
   125   62   64 1    
   126   62  185 1    
   127   63  186 1    
   128   63  187 1    
   129   63  188 1    
   130   64   65 am   BACKBONE|DICT|INTERRES
   131   64  189 1    
   132   65   66 2    
   133   67   68 2    
   134   67   69 am   BACKBONE|DICT|INTERRES
   135   69   70 1    
   136   69  190 1    
   137   70   71 1    
   138   70   72 1    
   139   70  191 1    
   140   71  192 1    
   141   71  193 1    
   142   71  194 1    
   143   72   73 2    
   144   72   74 am   BACKBONE|DICT|INTERRES
   145   74   75 1    
   146   74  195 1    
   147   75   76 1    
   148   75   77 1    
   149   75  196 1    
   150   76  197 1    
   151   76  198 1    
   152   76  199 1    
   153   77   78 2    
   154   77   79 am   BACKBONE|DICT|INTERRES
   155   79   80 1    
   156   79  200 1    
   157   80   81 1    
   158   80   82 1    
   159   80  201 1    
   160   81  202 1    
   161   81  203 1    
   162   81  204 1    
   163   82   83 2    
   164   82   84 am   BACKBONE|DICT|INTERRES
   165   84   85 1    
   166   84  205 1    
   167   85   86 1    
   168   85   87 1    
   169   85  206 1    
   170   86  207 1    
   171   86  208 1    
   172   86  209 1    
   173   87   88 2    
   174   87   89 am   BACKBONE|DICT|INTERRES
   175   89   90 1    
   176   89  210 1    
   177   90   91 1    
   178   90   92 1    
   179   90  211 1    
   180   91  212 1    
   181   91  213 1    
   182   91  214 1    
   183   92   93 2    
   184   92   94 am   BACKBONE|DICT|INTERRES
   185   94   95 1    
   186   94  215 1    
   187   95   96 1    
   188   95   97 1    
   189   95  216 1    
   190   96  217 1    
   191   96  218 1    
   192   96  219 1    
   193   97   98 2    
   194   97   99 am   BACKBONE|DICT|INTERRES
   195   99  100 1    
   196   99  220 1    
   197  100  101 1    
   198  100  102 1    
   199  100  221 1    
   200  101  222 1    
   201  101  223 1    
   202  101  224 1    
   203  102  103 2    
   204  102  104 am   BACKBONE|DICT|INTERRES
   205  104  105 1    
   206  104  225 1    
   207  105  106 1    
   208  105  107 1    
   209  105  226 1    
   210  106  227 1    
   211  106  228 1    
   212  106  229 1    
   213  107  108 2    
   214  107  109 am   BACKBONE|DICT|INTERRES
   215  109  110 1    
   216  109  230 1    
   217  110  111 1    
   218  110  112 1    
   219  110  231 1    
   220  111  232 1    
   221  111  233 1    
   222  111  234 1    
   223  112  113 2    
   224  112  114 am   BACKBONE|DICT|INTERRES
   225  114  115 1    
   226  114  235 1    
   227  115  116 1    
   228  115  117 1    
   229  115  236 1    
   230  116  237 1    
   231  116  238 1    
   232  116  239 1    
   233  117  118 2    
   234  117  119 am   BACKBONE|DICT|INTERRES
   235  119  120 1    
   236  119  240 1    
   237  120  121 1    
   238  120  124 1    
   239  120  241 1    
   240  121  122 am   BACKBONE|DICT|INTERRES
   241  121  123 2    
   242  122  242 1    
   243  122  243 1    
   244  124  125 1    
   245  124  244 1    
   246  124  245 1    
   247  125  126 1    
   248  126  246 1    
   249  126  247 1    
@<TRIPOS>SUBSTRUCTURE
     1 UNK         1 GROUP             0       ****    0 ROOT    
