@<TRIPOS>MOLECULE
3R540
247   249    1
SMALL
USER_CHARGES


@<TRIPOS>ATOM
      1 CA         -4.2617  -19.2227  -45.1865 C.3       0 UNK        -0.1800 
      2 C          -3.3807  -17.9875  -45.0931 C.2       0 UNK         0.5000 
      3 O          -3.5811  -17.1609  -44.2032 O.2       0 UNK        -0.5000 
      4 N          -2.3866  -17.8676  -45.9841 N.am      1 UNK        -0.5000 
      5 CA         -1.4259  -16.7529  -46.0243 C.3       1 UNK         0.1400 
      6 C6         -0.4967  -16.8037  -47.2577 C.3       23 UNK        -0.0398 
      7 S7         -1.4127  -16.8374  -48.8348 S.3       23 UNK        -0.2404 
      8 C8         -1.1500  -18.5583  -49.3636 C.3       23 UNK        -0.0205 
      9 C9          0.1633  -18.7346  -50.1121 C.ar      23 UNK        -0.0193 
     10 C10         0.1978  -18.6257  -51.5039 C.ar      23 UNK        -0.1150 
     11 C11         1.3899  -18.8207  -52.2091 C.ar      23 UNK        -0.0193 
     12 C12         2.5633  -19.0986  -51.4996 C.ar      23 UNK        -0.1150 
     13 C13         2.5436  -19.2187  -50.1069 C.ar      23 UNK        -0.0193 
     14 C14         1.3397  -19.0342  -49.4226 C.ar      23 UNK        -0.1150 
     15 C15         3.8248  -19.5410  -49.3499 C.3       23 UNK        -0.0205 
     16 S16         3.7060  -21.0972  -48.4103 S.3       23 UNK        -0.2404 
     17 C17         3.3193  -20.5131  -46.7220 C.3       23 UNK        -0.0398 
     18 CA          2.4934  -21.5599  -45.9180 C.3       11 UNK         0.1400 
     19 N           3.1066  -21.8254  -44.6127 N.am      11 UNK        -0.5000 
     20 C           3.1938  -23.0286  -44.0285 C.2       10 UNK         0.5000 
     21 O           2.6284  -24.0308  -44.4679 O.2       10 UNK        -0.5000 
     22 CA          4.0640  -23.1535  -42.7615 C.3       10 UNK         0.1400 
     23 CB          5.4287  -23.7642  -43.1161 C.3       10 UNK        -0.1800 
     24 N           4.2870  -21.8773  -42.0826 N.am      10 UNK        -0.5000 
     25 C           3.4048  -21.2971  -41.2606 C.2       9 UNK         0.5000 
     26 O           2.3317  -21.8111  -40.9448 O.2       9 UNK        -0.5000 
     27 CA          3.7732  -19.9099  -40.6930 C.3       9 UNK         0.1400 
     28 CB          4.3473  -20.0550  -39.2752 C.3       9 UNK        -0.1800 
     29 N           4.7050  -19.1107  -41.4986 N.am      9 UNK        -0.5000 
     30 C           4.5460  -18.7545  -42.7804 C.2       8 UNK         0.5000 
     31 O           3.6612  -19.1964  -43.5165 O.2       8 UNK        -0.5000 
     32 CA          5.5876  -17.7683  -43.3418 C.3       8 UNK         0.1400 
     33 CB          6.8315  -18.5315  -43.8229 C.3       8 UNK        -0.1800 
     34 N           5.0629  -16.9786  -44.4568 N.am      8 UNK        -0.5000 
     35 C           4.0378  -16.1197  -44.3839 C.2       7 UNK         0.5000 
     36 O           3.4659  -15.8112  -43.3337 O.2       7 UNK        -0.5000 
     37 CA          3.5755  -15.5174  -45.7198 C.3       7 UNK         0.1400 
     38 CB          3.0628  -16.6097  -46.6725 C.3       7 UNK        -0.1800 
     39 N           2.5086  -14.5576  -45.4710 N.am      7 UNK        -0.5000 
     40 C           2.2824  -13.4317  -46.1564 C.2       6 UNK         0.5000 
     41 O           2.9401  -13.0866  -47.1387 O.2       6 UNK        -0.5000 
     42 CA          1.1291  -12.5356  -45.6658 C.3       6 UNK         0.1400 
     43 CB         -0.0821  -12.6488  -46.6056 C.3       6 UNK        -0.1800 
     44 N           0.6990  -12.8950  -44.3166 N.am      6 UNK        -0.5000 
     45 C           1.1746  -12.3783  -43.1775 C.2       5 UNK         0.5000 
     46 O           2.0128  -11.4761  -43.1348 O.2       5 UNK        -0.5000 
     47 CA          0.6198  -12.9937  -41.8738 C.3       5 UNK         0.1400 
     48 CB          0.7208  -12.0454  -40.6613 C.3       5 UNK        -0.1800 
     49 N          -0.7423  -13.5178  -42.0299 N.am      5 UNK        -0.5000 
     50 C          -1.8616  -12.8321  -42.3129 C.2       4 UNK         0.5000 
     51 O          -1.9143  -11.6045  -42.3946 O.2       4 UNK        -0.5000 
     52 CA         -3.1390  -13.6547  -42.5869 C.3       4 UNK         0.1400 
     53 CB         -3.4838  -13.6135  -44.0841 C.3       4 UNK        -0.1800 
     54 N          -3.0330  -15.0548  -42.1723 N.am      4 UNK        -0.5000 
     55 C          -3.0338  -15.4822  -40.9028 C.2       3 UNK         0.5000 
     56 O          -3.2006  -14.7453  -39.9306 O.2       3 UNK        -0.5000 
     57 CA         -2.7622  -16.9806  -40.6855 C.3       3 UNK         0.1400 
     58 CB         -4.0691  -17.7868  -40.7336 C.3       3 UNK        -0.1800 
     59 N          -1.8207  -17.5247  -41.6663 N.am      3 UNK        -0.5000 
     60 C          -0.5038  -17.2737  -41.6838 C.2       2 UNK         0.5000 
     61 O           0.0649  -16.5343  -40.8813 O.2       2 UNK        -0.5000 
     62 CA          0.3054  -17.9622  -42.7987 C.3       2 UNK         0.1400 
     63 CB          0.4281  -19.4596  -42.4845 C.3       2 UNK        -0.1800 
     64 N          -0.2972  -17.8140  -44.1227 N.am      2 UNK        -0.5000 
     65 C          -0.5903  -16.6561  -44.7303 C.2       1 UNK         0.5000 
     66 O          -0.2775  -15.5498  -44.2914 O.2       1 UNK        -0.5000 
     67 C           0.9920  -21.2265  -45.7578 C.2       11 UNK         0.5000 
     68 O           0.5137  -20.1726  -46.1815 O.2       11 UNK        -0.5000 
     69 N           0.2587  -22.1437  -45.1180 N.am      12 UNK        -0.5000 
     70 CA         -1.1691  -22.0396  -44.8161 C.3       12 UNK         0.1400 
     71 CB         -1.4376  -22.7644  -43.4845 C.3       12 UNK        -0.1800 
     72 C          -2.0501  -22.5696  -45.9679 C.2       12 UNK         0.5000 
     73 O          -3.0188  -23.2885  -45.7170 O.2       12 UNK        -0.5000 
     74 N          -1.6988  -22.2254  -47.2149 N.am      13 UNK        -0.5000 
     75 CA         -2.4511  -22.5979  -48.4135 C.3       13 UNK         0.1400 
     76 CB         -1.5948  -22.3520  -49.6652 C.3       13 UNK        -0.1800 
     77 C          -3.7823  -21.8289  -48.4872 C.2       13 UNK         0.5000 
     78 O          -3.7761  -20.5972  -48.4443 O.2       13 UNK        -0.5000 
     79 N          -4.8856  -22.5738  -48.5855 N.am      14 UNK        -0.5000 
     80 CA         -6.2641  -22.0977  -48.6209 C.3       14 UNK         0.1400 
     81 CB         -6.7025  -21.6832  -47.2032 C.3       14 UNK        -0.1800 
     82 C          -7.1384  -23.2511  -49.1558 C.2       14 UNK         0.5000 
     83 O          -6.7254  -24.4069  -49.0335 O.2       14 UNK        -0.5000 
     84 N          -8.3317  -23.0072  -49.7173 N.am      15 UNK        -0.5000 
     85 CA         -8.9666  -21.7204  -50.0223 C.3       15 UNK         0.1400 
     86 CB        -10.4674  -21.9782  -50.2501 C.3       15 UNK        -0.1800 
     87 C          -8.3251  -21.0161  -51.2365 C.2       15 UNK         0.5000 
     88 O          -7.2887  -21.4645  -51.7292 O.2       15 UNK        -0.5000 
     89 N          -8.9455  -19.9195  -51.6945 N.am      16 UNK        -0.5000 
     90 CA         -8.4655  -19.0276  -52.7584 C.3       16 UNK         0.1400 
     91 CB         -9.5380  -17.9668  -53.0477 C.3       16 UNK        -0.1800 
     92 C          -8.0444  -19.7314  -54.0639 C.2       16 UNK         0.5000 
     93 O          -7.0354  -19.3527  -54.6579 O.2       16 UNK        -0.5000 
     94 N          -8.7972  -20.7670  -54.4596 N.am      17 UNK        -0.5000 
     95 CA         -8.5260  -21.5884  -55.6413 C.3       17 UNK         0.1400 
     96 CB         -9.7313  -22.5042  -55.9028 C.3       17 UNK        -0.1800 
     97 C          -7.2315  -22.4185  -55.5314 C.2       17 UNK         0.5000 
     98 O          -6.5710  -22.6413  -56.5463 O.2       17 UNK        -0.5000 
     99 N          -6.8863  -22.8483  -54.3100 N.am      18 UNK        -0.5000 
    100 CA        -5.6411  -23.5517  -54.0086 C.3       18 UNK         0.1400 
    101 CB        -5.8375  -24.4547  -52.7819 C.3       18 UNK        -0.1800 
    102 C         -4.4970  -22.5559  -53.7722 C.2       18 UNK         0.5000 
    103 O         -3.3953  -22.7662  -54.2802 O.2       18 UNK        -0.5000 
    104 N         -4.7835  -21.4719  -53.0363 N.am      19 UNK        -0.5000 
    105 CA        -3.8495  -20.3903  -52.7165 C.3       19 UNK         0.1400 
    106 CB        -4.5323  -19.3764  -51.7901 C.3       19 UNK        -0.1800 
    107 C         -3.2849  -19.6874  -53.9629 C.2       19 UNK         0.5000 
    108 O         -2.1100  -19.3293  -53.9666 O.2       19 UNK        -0.5000 
    109 N         -4.0943  -19.5737  -55.0253 N.am      20 UNK        -0.5000 
    110 CA        -3.6916  -19.0736  -56.3438 C.3       20 UNK         0.1400 
    111 CB        -4.9302  -19.0111  -57.2508 C.3       20 UNK        -0.1800 
    112 C         -2.5728  -19.8952  -57.0227 C.2       20 UNK         0.5000 
    113 O         -1.8569  -19.3531  -57.8653 O.2       20 UNK        -0.5000 
    114 N         -2.4335  -21.1707  -56.6387 N.am      21 UNK        -0.5000 
    115 CA        -1.3882  -22.0900  -57.0885 C.3       21 UNK         0.1400 
    116 CB        -2.0649  -23.3897  -57.5583 C.3       21 UNK        -0.1800 
    117 C         -0.3524  -22.3733  -55.9788 C.2       21 UNK         0.5000 
    118 O          0.4856  -23.2590  -56.1556 O.2       21 UNK        -0.5000 
    119 N         -0.4300  -21.6413  -54.8575 N.am      22 UNK        -0.5000 
    120 CA         0.3661  -21.8280  -53.6319 C.3       22 UNK         0.1400 
    121 C          0.0864  -23.1689  -52.8827 C.2       22 UNK         0.5000 
    122 N         -1.0742  -23.7907  -53.0488 N.am      22 UNK        -0.7600 
    123 O          0.9206  -23.6522  -52.1220 O.2       22 UNK        -0.5000 
    124 C124        1.8902  -21.5747  -53.8295 C.3       23 UNK        -0.0398 
    125 S125        2.3738  -19.9862  -54.6012 S.3       23 UNK        -0.2404 
    126 C126        1.3852  -18.7161  -53.7327 C.3       23 UNK        -0.0205 
    127 H127       -5.2575  -18.9437  -45.5298 H         1 UNK         0.0600 
    128 H128       -4.3556  -19.6933  -44.2078 H         1 UNK         0.0600 
    129 H129       -3.8518  -19.9592  -45.8761 H         1 UNK         0.0600 
    130 H130       -2.2924  -18.5567  -46.7162 H         1 UNK         0.3000 
    131 H131       -2.0119  -15.8346  -46.0921 H         1 UNK         0.0600 
    132 H132        0.1608  -17.6682  -47.1935 H         1 UNK         0.0800 
    133 H133        0.1553  -15.9291  -47.2793 H         1 UNK         0.0800 
    134 H134       -1.1869  -19.2245  -48.5006 H         1 UNK         0.0800 
    135 H135       -1.9807  -18.8564  -50.0037 H         1 UNK         0.0800 
    136 H136       -0.7118  -18.3945  -52.0389 H         1 UNK         0.1150 
    137 H137        3.4913  -19.2360  -52.0363 H         1 UNK         0.1150 
    138 H138        1.3189  -19.1357  -48.3511 H         1 UNK         0.1150 
    139 H139        4.6584  -19.6370  -50.0472 H         1 UNK         0.0800 
    140 H140        4.0832  -18.7133  -48.6921 H         1 UNK         0.0800 
    141 H141        2.8424  -19.5350  -46.7494 H         1 UNK         0.0800 
    142 H142        4.2809  -20.3316  -46.2392 H         1 UNK         0.0800 
    143 H143        2.5124  -22.4958  -46.4807 H         1 UNK         0.0600 
    144 H144        3.4909  -21.0136  -44.1372 H         1 UNK         0.3000 
    145 H145        3.5550  -23.8369  -42.0783 H         1 UNK         0.0600 
    146 H146        5.3095  -24.7348  -43.5995 H         1 UNK         0.0600 
    147 H147        5.9913  -23.1249  -43.7978 H         1 UNK         0.0600 
    148 H148        6.0350  -23.9201  -42.2236 H         1 UNK         0.0600 
    149 H149        5.1469  -21.3908  -42.2884 H         1 UNK         0.3000 
    150 H150        2.8497  -19.3348  -40.6195 H         1 UNK         0.0600 
    151 H151        5.3026  -20.5813  -39.2811 H         1 UNK         0.0600 
    152 H152        3.6676  -20.6159  -38.6320 H         1 UNK         0.0600 
    153 H153        4.5015  -19.0818  -38.8087 H         1 UNK         0.0600 
    154 H154        5.4884  -18.7226  -40.9931 H         1 UNK         0.3000 
    155 H155        5.8785  -17.0778  -42.5475 H         1 UNK         0.0600 
    156 H156        6.5896  -19.2295  -44.6258 H         1 UNK         0.0600 
    157 H157        7.2791  -19.1072  -43.0118 H         1 UNK         0.0600 
    158 H158        7.5963  -17.8476  -44.1918 H         1 UNK         0.0600 
    159 H159        5.4602  -17.1801  -45.3619 H         1 UNK         0.3000 
    160 H160        4.4308  -15.0093  -46.1700 H         1 UNK         0.0600 
    161 H161        2.2762  -17.2038  -46.2068 H         1 UNK         0.0600 
    162 H162        3.8683  -17.2888  -46.9462 H         1 UNK         0.0600 
    163 H163        2.6702  -16.1861  -47.5971 H         1 UNK         0.0600 
    164 H164        1.9580  -14.7463  -44.6420 H         1 UNK         0.3000 
    165 H165        1.4802  -11.5018  -45.6792 H         1 UNK         0.0600 
    166 H166        0.1889  -12.3878  -47.6293 H         1 UNK         0.0600 
    167 H167       -0.4892  -13.6599  -46.6198 H         1 UNK         0.0600 
    168 H168       -0.8809  -11.9733  -46.2985 H         1 UNK         0.0600 
    169 H169        0.0717  -13.6919  -44.2467 H         1 UNK         0.3000 
    170 H170        1.2482  -13.8608  -41.6640 H         1 UNK         0.0600 
    171 H171        1.7602  -11.7908  -40.4513 H         1 UNK         0.0600 
    172 H172        0.1850  -11.1109  -40.8291 H         1 UNK         0.0600 
    173 H173        0.3140  -12.5102  -39.7633 H         1 UNK         0.0600 
    174 H174       -0.8139  -14.5266  -42.0120 H         1 UNK         0.3000 
    175 H175       -3.9572  -13.1915  -42.0318 H         1 UNK         0.0600 
    176 H176       -4.3880  -14.1835  -44.2992 H         1 UNK         0.0600 
    177 H177       -3.6568  -12.5897  -44.4179 H         1 UNK         0.0600 
    178 H178       -2.6765  -14.0223  -44.6914 H         1 UNK         0.0600 
    179 H179       -2.9625  -15.7468  -42.9121 H         1 UNK         0.3000 
    180 H180       -2.3266  -17.0989  -39.6910 H         1 UNK         0.0600 
    181 H181       -4.5541  -17.7146  -41.7077 H         1 UNK         0.0600 
    182 H182       -4.7775  -17.4243  -39.9877 H         1 UNK         0.0600 
    183 H183       -3.8898  -18.8417  -40.5253 H         1 UNK         0.0600 
    184 H184       -2.2178  -18.0894  -42.4027 H         1 UNK         0.3000 
    185 H185        1.3037  -17.5207  -42.8213 H         1 UNK         0.0600 
    186 H186        1.1529  -19.9451  -43.1353 H         1 UNK         0.0600 
    187 H187        0.7502  -19.6213  -41.4568 H         1 UNK         0.0600 
    188 H188       -0.5255  -19.9735  -42.6000 H         1 UNK         0.0600 
    189 H189       -0.5367  -18.6686  -44.6051 H         1 UNK         0.3000 
    190 H190        0.7245  -22.9916  -44.8168 H         1 UNK         0.3000 
    191 H191       -1.4327  -20.9893  -44.6781 H         1 UNK         0.0600 
    192 H192       -1.2569  -23.8368  -43.5685 H         1 UNK         0.0600 
    193 H193       -2.4710  -22.6274  -43.1636 H         1 UNK         0.0600 
    194 H194       -0.7988  -22.3830  -42.6877 H         1 UNK         0.0600 
    195 H195       -0.9139  -21.6013  -47.3382 H         1 UNK         0.3000 
    196 H196       -2.6614  -23.6686  -48.3626 H         1 UNK         0.0600 
    197 H197       -2.1367  -22.6406  -50.5665 H         1 UNK         0.0600 
    198 H198       -0.6763  -22.9384  -49.6375 H         1 UNK         0.0600 
    199 H199       -1.3176  -21.3054  -49.7741 H         1 UNK         0.0600 
    200 H200       -4.8156  -23.5833  -48.6379 H         1 UNK         0.3000 
    201 H201       -6.3156  -21.2393  -49.2892 H         1 UNK         0.0600 
    202 H202       -7.7511  -21.3888  -47.1742 H         1 UNK         0.0600 
    203 H203       -6.5737  -22.4997  -46.4915 H         1 UNK         0.0600 
    204 H204       -6.1216  -20.8349  -46.8443 H         1 UNK         0.0600 
    205 H205       -8.8441  -23.8092  -50.0508 H         1 UNK         0.3000 
    206 H206       -8.8621  -21.0563  -49.1641 H         1 UNK         0.0600 
    207 H207      -10.9069  -22.5095  -49.4054 H         1 UNK         0.0600 
    208 H208      -11.0259  -21.0481  -50.3595 H         1 UNK         0.0600 
    209 H209      -10.6419  -22.5759  -51.1458 H         1 UNK         0.0600 
    210 H210       -9.7973  -19.6291  -51.2368 H         1 UNK         0.3000 
    211 H211       -7.5885  -18.5108  -52.3686 H         1 UNK         0.0600 
    212 H212      -10.4697  -18.4189  -53.3902 H         1 UNK         0.0600 
    213 H213       -9.2048  -17.2743  -53.8221 H         1 UNK         0.0600 
    214 H214       -9.7584  -17.3747  -52.1593 H         1 UNK         0.0600 
    215 H215       -9.6026  -21.0159  -53.9046 H         1 UNK         0.3000 
    216 H216       -8.4141  -20.9187  -56.4967 H         1 UNK         0.0600 
    217 H217       -9.5720  -23.1147  -56.7927 H         1 UNK         0.0600 
    218 H218      -10.6396  -21.9241  -56.0668 H         1 UNK         0.0600 
    219 H219       -9.9107  -23.1821  -55.0673 H         1 UNK         0.0600 
    220 H220       -7.4408  -22.5558  -53.5150 H         1 UNK         0.3000 
    221 H221       -5.3675  -24.1876  -54.8533 H         1 UNK         0.0600 
    222 H222       -6.6327  -25.1808  -52.9501 H         1 UNK         0.0600 
    223 H223       -4.9273  -25.0134  -52.5604 H         1 UNK         0.0600 
    224 H224       -6.0922  -23.8805  -51.8917 H         1 UNK         0.0600 
    225 H225       -5.7154  -21.3980  -52.6343 H         1 UNK         0.3000 
    226 H226       -3.0091  -20.8326  -52.1778 H         1 UNK         0.0600 
    227 H227       -3.8344  -18.5987  -51.4791 H         1 UNK         0.0600 
    228 H228       -5.3642  -18.8828  -52.2887 H         1 UNK         0.0600 
    229 H229       -4.9131  -19.8543  -50.8878 H         1 UNK         0.0600 
    230 H230       -5.0704  -19.8309  -54.9197 H         1 UNK         0.3000 
    231 H231       -3.3122  -18.0587  -56.2100 H         1 UNK         0.0600 
    232 H232       -5.3916  -19.9929  -57.3664 H         1 UNK         0.0600 
    233 H233       -4.6718  -18.6481  -58.2464 H         1 UNK         0.0600 
    234 H234       -5.6816  -18.3335  -56.8453 H         1 UNK         0.0600 
    235 H235       -3.0455  -21.5335  -55.9163 H         1 UNK         0.3000 
    236 H236       -0.8423  -21.6658  -57.9332 H         1 UNK         0.0600 
    237 H237       -1.3345  -24.0924  -57.9610 H         1 UNK         0.0600 
    238 H238       -2.5862  -23.8888  -56.7404 H         1 UNK         0.0600 
    239 H239       -2.7915  -23.1923  -58.3467 H         1 UNK         0.0600 
    240 H240       -1.1322  -20.9132  -54.8034 H         1 UNK         0.3000 
    241 H241       -0.0046  -21.0735  -52.9411 H         1 UNK         0.0600 
    242 H242       -1.2373  -24.6586  -52.5660 H         1 UNK         0.3800 
    243 H243       -1.8054  -23.3972  -53.6368 H         1 UNK         0.3800 
    244 H244        2.3255  -22.3751  -54.4290 H         1 UNK         0.0800 
    245 H245        2.4008  -21.6248  -52.8666 H         1 UNK         0.0800 
    246 H246        1.7661  -17.7329  -54.0105 H         1 UNK         0.0800 
    247 H247        0.3673  -18.7625  -54.1174 H         1 UNK         0.0800 
@<TRIPOS>BOND
     1    1    2 1    
     2    1  127 1    
     3    1  128 1    
     4    1  129 1    
     5    2    3 2    
     6    2    4 am   BACKBONE|DICT|INTERRES
     7    4    5 1    
     8    4  130 1    
     9    5    6 1    
    10    5   65 1    
    11    5  131 1    
    12    6    7 1    
    13    6  132 1    
    14    6  133 1    
    15    7    8 1    
    16    8    9 1    
    17    8  134 1    
    18    8  135 1    
    19    9   10 ar   
    20    9   14 ar   
    21   10   11 ar   
    22   10  136 1    
    23   11   12 ar   
    24   11  126 1    
    25   12   13 ar   
    26   12  137 1    
    27   13   14 ar   
    28   13   15 1    
    29   14  138 1    
    30   15   16 1    
    31   15  139 1    
    32   15  140 1    
    33   16   17 1    
    34   17   18 1    
    35   17  141 1    
    36   17  142 1    
    37   18   19 1    
    38   18   67 1    
    39   18  143 1    
    40   19   20 am   BACKBONE|DICT|INTERRES
    41   19  144 1    
    42   20   21 2    
    43   20   22 1    
    44   22   23 1    
    45   22   24 1    
    46   22  145 1    
    47   23  146 1    
    48   23  147 1    
    49   23  148 1    
    50   24   25 am   BACKBONE|DICT|INTERRES
    51   24  149 1    
    52   25   26 2    
    53   25   27 1    
    54   27   28 1    
    55   27   29 1    
    56   27  150 1    
    57   28  151 1    
    58   28  152 1    
    59   28  153 1    
    60   29   30 am   BACKBONE|DICT|INTERRES
    61   29  154 1    
    62   30   31 2    
    63   30   32 1    
    64   32   33 1    
    65   32   34 1    
    66   32  155 1    
    67   33  156 1    
    68   33  157 1    
    69   33  158 1    
    70   34   35 am   BACKBONE|DICT|INTERRES
    71   34  159 1    
    72   35   36 2    
    73   35   37 1    
    74   37   38 1    
    75   37   39 1    
    76   37  160 1    
    77   38  161 1    
    78   38  162 1    
    79   38  163 1    
    80   39   40 am   BACKBONE|DICT|INTERRES
    81   39  164 1    
    82   40   41 2    
    83   40   42 1    
    84   42   43 1    
    85   42   44 1    
    86   42  165 1    
    87   43  166 1    
    88   43  167 1    
    89   43  168 1    
    90   44   45 am   BACKBONE|DICT|INTERRES
    91   44  169 1    
    92   45   46 2    
    93   45   47 1    
    94   47   48 1    
    95   47   49 1    
    96   47  170 1    
    97   48  171 1    
    98   48  172 1    
    99   48  173 1    
   100   49   50 am   BACKBONE|DICT|INTERRES
   101   49  174 1    
   102   50   51 2    
   103   50   52 1    
   104   52   53 1    
   105   52   54 1    
   106   52  175 1    
   107   53  176 1    
   108   53  177 1    
   109   53  178 1    
   110   54   55 am   BACKBONE|DICT|INTERRES
   111   54  179 1    
   112   55   56 2    
   113   55   57 1    
   114   57   58 1    
   115   57   59 1    
   116   57  180 1    
   117   58  181 1    
   118   58  182 1    
   119   58  183 1    
   120   59   60 am   BACKBONE|DICT|INTERRES
   121   59  184 1    
   122   60   61 2    
   123   60   62 1    
   124   62   63 1    
   125   62   64 1    
   126   62  185 1    
   127   63  186 1    
   128   63  187 1    
   129   63  188 1    
   130   64   65 am   BACKBONE|DICT|INTERRES
   131   64  189 1    
   132   65   66 2    
   133   67   68 2    
   134   67   69 am   BACKBONE|DICT|INTERRES
   135   69   70 1    
   136   69  190 1    
   137   70   71 1    
   138   70   72 1    
   139   70  191 1    
   140   71  192 1    
   141   71  193 1    
   142   71  194 1    
   143   72   73 2    
   144   72   74 am   BACKBONE|DICT|INTERRES
   145   74   75 1    
   146   74  195 1    
   147   75   76 1    
   148   75   77 1    
   149   75  196 1    
   150   76  197 1    
   151   76  198 1    
   152   76  199 1    
   153   77   78 2    
   154   77   79 am   BACKBONE|DICT|INTERRES
   155   79   80 1    
   156   79  200 1    
   157   80   81 1    
   158   80   82 1    
   159   80  201 1    
   160   81  202 1    
   161   81  203 1    
   162   81  204 1    
   163   82   83 2    
   164   82   84 am   BACKBONE|DICT|INTERRES
   165   84   85 1    
   166   84  205 1    
   167   85   86 1    
   168   85   87 1    
   169   85  206 1    
   170   86  207 1    
   171   86  208 1    
   172   86  209 1    
   173   87   88 2    
   174   87   89 am   BACKBONE|DICT|INTERRES
   175   89   90 1    
   176   89  210 1    
   177   90   91 1    
   178   90   92 1    
   179   90  211 1    
   180   91  212 1    
   181   91  213 1    
   182   91  214 1    
   183   92   93 2    
   184   92   94 am   BACKBONE|DICT|INTERRES
   185   94   95 1    
   186   94  215 1    
   187   95   96 1    
   188   95   97 1    
   189   95  216 1    
   190   96  217 1    
   191   96  218 1    
   192   96  219 1    
   193   97   98 2    
   194   97   99 am   BACKBONE|DICT|INTERRES
   195   99  100 1    
   196   99  220 1    
   197  100  101 1    
   198  100  102 1    
   199  100  221 1    
   200  101  222 1    
   201  101  223 1    
   202  101  224 1    
   203  102  103 2    
   204  102  104 am   BACKBONE|DICT|INTERRES
   205  104  105 1    
   206  104  225 1    
   207  105  106 1    
   208  105  107 1    
   209  105  226 1    
   210  106  227 1    
   211  106  228 1    
   212  106  229 1    
   213  107  108 2    
   214  107  109 am   BACKBONE|DICT|INTERRES
   215  109  110 1    
   216  109  230 1    
   217  110  111 1    
   218  110  112 1    
   219  110  231 1    
   220  111  232 1    
   221  111  233 1    
   222  111  234 1    
   223  112  113 2    
   224  112  114 am   BACKBONE|DICT|INTERRES
   225  114  115 1    
   226  114  235 1    
   227  115  116 1    
   228  115  117 1    
   229  115  236 1    
   230  116  237 1    
   231  116  238 1    
   232  116  239 1    
   233  117  118 2    
   234  117  119 am   BACKBONE|DICT|INTERRES
   235  119  120 1    
   236  119  240 1    
   237  120  121 1    
   238  120  124 1    
   239  120  241 1    
   240  121  122 am   BACKBONE|DICT|INTERRES
   241  121  123 2    
   242  122  242 1    
   243  122  243 1    
   244  124  125 1    
   245  124  244 1    
   246  124  245 1    
   247  125  126 1    
   248  126  246 1    
   249  126  247 1    
@<TRIPOS>SUBSTRUCTURE
     1 UNK         1 GROUP             0       ****    0 ROOT    
