@<TRIPOS>MOLECULE
3R540
247   249    1
SMALL
USER_CHARGES


@<TRIPOS>ATOM
      1 CA         -2.3882  -12.2110  -45.0281 C.3       0 UNK        -0.1800 
      2 C          -1.3525  -12.3422  -46.1356 C.2       0 UNK         0.5000 
      3 O          -0.8820  -11.3331  -46.6602 O.2       0 UNK        -0.5000 
      4 N          -0.9950  -13.5828  -46.4906 N.am      1 UNK        -0.5000 
      5 CA         -0.0241  -13.9166  -47.5420 C.3       1 UNK         0.1400 
      6 C6         -0.1153  -15.4049  -47.9581 C.3       23 UNK        -0.0398 
      7 S7         -1.7853  -15.9505  -48.4625 S.3       23 UNK        -0.2404 
      8 C8         -1.6933  -15.8983  -50.2899 C.3       23 UNK        -0.0205 
      9 C9         -0.8287  -16.9611  -50.9785 C.ar      23 UNK        -0.0193 
     10 C10        -0.8209  -17.0010  -52.3754 C.ar      23 UNK        -0.1150 
     11 C11        -0.0317  -17.9217  -53.0717 C.ar      23 UNK        -0.0193 
     12 C12         0.7929  -18.7909  -52.3479 C.ar      23 UNK        -0.1150 
     13 C13         0.7893  -18.7864  -50.9501 C.ar      23 UNK        -0.0193 
     14 C14        -0.0415  -17.8832  -50.2799 C.ar      23 UNK        -0.1150 
     15 C15         1.6639  -19.7860  -50.1939 C.3       23 UNK        -0.0205 
     16 S16         2.6198  -19.0629  -48.8141 S.3       23 UNK        -0.2404 
     17 C17         1.5274  -19.0306  -47.3417 C.3       23 UNK        -0.0398 
     18 CA          0.6692  -20.2927  -47.0543 C.3       11 UNK         0.1400 
     19 N           0.6531  -20.6209  -45.6274 N.am      11 UNK        -0.5000 
     20 C           0.2177  -21.7808  -45.1182 C.2       10 UNK         0.5000 
     21 O          -0.1911  -22.7185  -45.8041 O.2       10 UNK        -0.5000 
     22 CA          0.1968  -21.8920  -43.5829 C.3       10 UNK         0.1400 
     23 CB          1.6029  -22.1744  -43.0330 C.3       10 UNK        -0.1800 
     24 N          -0.3526  -20.6967  -42.9401 N.am      10 UNK        -0.5000 
     25 C          -1.6182  -20.2785  -43.0875 C.2       9 UNK         0.5000 
     26 O          -2.4597  -20.8715  -43.7618 O.2       9 UNK        -0.5000 
     27 CA         -2.0037  -18.9597  -42.3958 C.3       9 UNK         0.1400 
     28 CB         -2.2735  -19.1897  -40.9014 C.3       9 UNK        -0.1800 
     29 N          -0.9957  -17.9128  -42.5578 N.am      9 UNK        -0.5000 
     30 C          -0.6197  -17.3877  -43.7327 C.2       8 UNK         0.5000 
     31 O          -1.0873  -17.7170  -44.8198 O.2       8 UNK        -0.5000 
     32 CA          0.5140  -16.3540  -43.6964 C.3       8 UNK         0.1400 
     33 CB         -0.0032  -15.0057  -43.1763 C.3       8 UNK        -0.1800 
     34 N           1.6456  -16.7986  -42.8873 N.am      8 UNK        -0.5000 
     35 C           2.3544  -17.9168  -43.1012 C.2       7 UNK         0.5000 
     36 O           2.1435  -18.7025  -44.0240 O.2       7 UNK        -0.5000 
     37 CA          3.4508  -18.2363  -42.0750 C.3       7 UNK         0.1400 
     38 CB          4.7064  -17.3919  -42.3385 C.3       7 UNK        -0.1800 
     39 N           2.9811  -18.0197  -40.7075 N.am      7 UNK        -0.5000 
     40 C           2.0417  -18.7643  -40.1063 C.2       6 UNK         0.5000 
     41 O           1.5019  -19.7422  -40.6255 O.2       6 UNK        -0.5000 
     42 CA          1.6039  -18.3057  -38.7041 C.3       6 UNK         0.1400 
     43 CB          2.6052  -18.7765  -37.6386 C.3       6 UNK        -0.1800 
     44 N           1.4450  -16.8525  -38.6170 N.am      6 UNK        -0.5000 
     45 C           0.4994  -16.1603  -39.2673 C.2       5 UNK         0.5000 
     46 O          -0.3460  -16.6776  -39.9966 O.2       5 UNK        -0.5000 
     47 CA          0.5208  -14.6300  -39.1027 C.3       5 UNK         0.1400 
     48 CB         -0.2448  -14.2141  -37.8378 C.3       5 UNK        -0.1800 
     49 N           1.8669  -14.0504  -39.0686 N.am      5 UNK        -0.5000 
     50 C           2.7569  -14.1260  -40.0662 C.2       4 UNK         0.5000 
     51 O           2.5856  -14.7843  -41.0940 O.2       4 UNK        -0.5000 
     52 CA          4.0666  -13.3465  -39.8869 C.3       4 UNK         0.1400 
     53 CB          5.2589  -14.3045  -39.7404 C.3       4 UNK        -0.1800 
     54 N           4.2749  -12.4871  -41.0492 N.am      4 UNK        -0.5000 
     55 C           3.7707  -11.2526  -41.1780 C.2       3 UNK         0.5000 
     56 O           3.1547  -10.6685  -40.2855 O.2       3 UNK        -0.5000 
     57 CA          3.9855  -10.5526  -42.5340 C.3       3 UNK         0.1400 
     58 CB          5.3213   -9.7932  -42.5432 C.3       3 UNK        -0.1800 
     59 N           3.9495  -11.4792  -43.6686 N.am      3 UNK        -0.5000 
     60 C           2.8350  -12.0619  -44.1286 C.2       2 UNK         0.5000 
     61 O           1.7112  -11.8592  -43.6609 O.2       2 UNK        -0.5000 
     62 CA          3.0139  -13.0374  -45.3020 C.3       2 UNK         0.1400 
     63 CB          3.7040  -14.3347  -44.8428 C.3       2 UNK        -0.1800 
     64 N           1.7053  -13.3593  -45.8637 N.am      2 UNK        -0.5000 
     65 C           1.4381  -13.5810  -47.1565 C.2       1 UNK         0.5000 
     66 O           2.2973  -13.5516  -48.0385 O.2       1 UNK        -0.5000 
     67 C          -0.7704  -20.1889  -47.6099 C.2       11 UNK         0.5000 
     68 O          -1.0526  -20.7643  -48.6578 O.2       11 UNK        -0.5000 
     69 N          -1.6800  -19.5233  -46.8826 N.am      12 UNK        -0.5000 
     70 CA         -3.0978  -19.4132  -47.2394 C.3       12 UNK         0.1400 
     71 CB         -3.8201  -18.4805  -46.2561 C.3       12 UNK        -0.1800 
     72 C          -3.8101  -20.7763  -47.3132 C.2       12 UNK         0.5000 
     73 O          -4.5832  -21.0031  -48.2434 O.2       12 UNK        -0.5000 
     74 N          -3.5062  -21.6748  -46.3654 N.am      13 UNK        -0.5000 
     75 CA         -3.9831  -23.0580  -46.3588 C.3       13 UNK         0.1400 
     76 CB         -3.6036  -23.7355  -45.0339 C.3       13 UNK        -0.1800 
     77 C          -3.4610  -23.8653  -47.5610 C.2       13 UNK         0.5000 
     78 O          -4.2386  -24.5845  -48.1880 O.2       13 UNK        -0.5000 
     79 N          -2.1728  -23.6985  -47.8936 N.am      14 UNK        -0.5000 
     80 CA         -1.5453  -24.2964  -49.0732 C.3       14 UNK         0.1400 
     81 CB         -0.0253  -24.0801  -49.0255 C.3       14 UNK        -0.1800 
     82 C          -2.1413  -23.7676  -50.3914 C.2       14 UNK         0.5000 
     83 O          -2.4111  -24.5608  -51.2915 O.2       14 UNK        -0.5000 
     84 N          -2.3802  -22.4516  -50.4668 N.am      15 UNK        -0.5000 
     85 CA         -3.0135  -21.7769  -51.6005 C.3       15 UNK         0.1400 
     86 CB         -2.9193  -20.2562  -51.4081 C.3       15 UNK        -0.1800 
     87 C          -4.4756  -22.2008  -51.8254 C.2       15 UNK         0.5000 
     88 O          -4.9105  -22.2800  -52.9752 O.2       15 UNK        -0.5000 
     89 N          -5.1992  -22.4691  -50.7305 N.am      16 UNK        -0.5000 
     90 CA         -6.5591  -23.0025  -50.7456 C.3       16 UNK         0.1400 
     91 CB         -7.2047  -22.8017  -49.3663 C.3       16 UNK        -0.1800 
     92 C          -6.6016  -24.4845  -51.1586 C.2       16 UNK         0.5000 
     93 O          -7.5186  -24.8802  -51.8776 O.2       16 UNK        -0.5000 
     94 N          -5.6170  -25.2751  -50.7059 N.am      17 UNK        -0.5000 
     95 CA         -5.4557  -26.6855  -51.0630 C.3       17 UNK         0.1400 
     96 CB         -4.4174  -27.3421  -50.1400 C.3       17 UNK        -0.1800 
     97 C          -5.0761  -26.8643  -52.5434 C.2       17 UNK         0.5000 
     98 O          -5.7262  -27.6322  -53.2544 O.2       17 UNK        -0.5000 
     99 N          -4.0663  -26.1117  -52.9978 N.am      18 UNK        -0.5000 
    100 CA        -3.6413  -26.0171  -54.3936 C.3       18 UNK         0.1400 
    101 CB        -2.1410  -25.6733  -54.4350 C.3       18 UNK        -0.1800 
    102 C         -4.5067  -24.9871  -55.1450 C.2       18 UNK         0.5000 
    103 O         -3.9918  -23.9827  -55.6364 O.2       18 UNK        -0.5000 
    104 N         -5.8216  -25.2334  -55.1813 N.am      19 UNK        -0.5000 
    105 CA        -6.8194  -24.3441  -55.7704 C.3       19 UNK         0.1400 
    106 CB        -8.2197  -24.8940  -55.4561 C.3       19 UNK        -0.1800 
    107 C         -6.6454  -24.1753  -57.2991 C.2       19 UNK         0.5000 
    108 O         -6.2292  -25.1271  -57.9621 O.2       19 UNK        -0.5000 
    109 N         -7.0018  -23.0257  -57.8881 N.am      20 UNK        -0.5000 
    110 CA        -7.4400  -21.7904  -57.2398 C.3       20 UNK         0.1400 
    111 CB        -8.3964  -21.0493  -58.1869 C.3       20 UNK        -0.1800 
    112 C         -6.2231  -20.9072  -56.9162 C.2       20 UNK         0.5000 
    113 O         -5.3859  -20.6942  -57.7964 O.2       20 UNK        -0.5000 
    114 N         -6.1738  -20.3916  -55.6788 N.am      21 UNK        -0.5000 
    115 CA        -5.2409  -19.3750  -55.1705 C.3       21 UNK         0.1400 
    116 CB        -5.6918  -17.9812  -55.6532 C.3       21 UNK        -0.1800 
    117 C         -3.7547  -19.6584  -55.4822 C.2       21 UNK         0.5000 
    118 O         -3.0607  -18.7943  -56.0168 O.2       21 UNK        -0.5000 
    119 N         -3.3172  -20.8823  -55.1706 N.am      22 UNK        -0.5000 
    120 CA        -1.9703  -21.4246  -55.4172 C.3       22 UNK         0.1400 
    121 C         -1.6220  -21.7303  -56.9083 C.2       22 UNK         0.5000 
    122 N         -2.5165  -21.5231  -57.8682 N.am      22 UNK        -0.7600 
    123 O         -0.5341  -22.2205  -57.1996 O.2       22 UNK        -0.5000 
    124 C124       -0.8563  -20.7140  -54.5787 C.3       23 UNK        -0.0398 
    125 S125        0.2758  -19.5337  -55.4097 S.3       23 UNK        -0.2404 
    126 C126       -0.0918  -17.9327  -54.6002 C.3       23 UNK        -0.0205 
    127 H127       -3.2195  -11.5901  -45.3621 H         1 UNK         0.0600 
    128 H128       -1.9403  -11.7420  -44.1518 H         1 UNK         0.0600 
    129 H129       -2.7883  -13.1802  -44.7293 H         1 UNK         0.0600 
    130 H130       -1.4530  -14.3732  -46.0602 H         1 UNK         0.3000 
    131 H131       -0.2656  -13.3115  -48.4185 H         1 UNK         0.0600 
    132 H132        0.5886  -15.6151  -48.7652 H         1 UNK         0.0800 
    133 H133        0.1841  -16.0329  -47.1193 H         1 UNK         0.0800 
    134 H134       -1.3421  -14.9101  -50.5903 H         1 UNK         0.0800 
    135 H135       -2.7116  -15.9895  -50.6704 H         1 UNK         0.0800 
    136 H136       -1.4389  -16.3066  -52.9278 H         1 UNK         0.1150 
    137 H137        1.4266  -19.4911  -52.8724 H         1 UNK         0.1150 
    138 H138       -0.0670  -17.8969  -49.2076 H         1 UNK         0.1150 
    139 H139        1.0768  -20.6413  -49.8721 H         1 UNK         0.0800 
    140 H140        2.4000  -20.2014  -50.8836 H         1 UNK         0.0800 
    141 H141        0.9284  -18.1239  -47.3283 H         1 UNK         0.0800 
    142 H142        2.2311  -18.8858  -46.5235 H         1 UNK         0.0800 
    143 H143        1.1469  -21.1408  -47.5488 H         1 UNK         0.0600 
    144 H144        0.9997  -19.9075  -44.9909 H         1 UNK         0.3000 
    145 H145       -0.4447  -22.7362  -43.3216 H         1 UNK         0.0600 
    146 H146        2.2873  -21.3487  -43.2292 H         1 UNK         0.0600 
    147 H147        1.5780  -22.3370  -41.9554 H         1 UNK         0.0600 
    148 H148        2.0279  -23.0699  -43.4880 H         1 UNK         0.0600 
    149 H149        0.2766  -20.1646  -42.3493 H         1 UNK         0.3000 
    150 H150       -2.9274  -18.6028  -42.8557 H         1 UNK         0.0600 
    151 H151       -3.0227  -19.9685  -40.7535 H         1 UNK         0.0600 
    152 H152       -2.6484  -18.2834  -40.4258 H         1 UNK         0.0600 
    153 H153       -1.3702  -19.4951  -40.3717 H         1 UNK         0.0600 
    154 H154       -0.5768  -17.5540  -41.7040 H         1 UNK         0.3000 
    155 H155        0.8774  -16.2128  -44.7160 H         1 UNK         0.0600 
    156 H156        0.7911  -14.2626  -43.1476 H         1 UNK         0.0600 
    157 H157       -0.7975  -14.6179  -43.8127 H         1 UNK         0.0600 
    158 H158       -0.4093  -15.0899  -42.1693 H         1 UNK         0.0600 
    159 H159        1.9182  -16.1887  -42.1199 H         1 UNK         0.3000 
    160 H160        3.7182  -19.2898  -42.1811 H         1 UNK         0.0600 
    161 H161        5.1120  -17.6011  -43.3291 H         1 UNK         0.0600 
    162 H162        5.4904  -17.6089  -41.6130 H         1 UNK         0.0600 
    163 H163        4.4923  -16.3241  -42.2957 H         1 UNK         0.0600 
    164 H164        3.3305  -17.2026  -40.2301 H         1 UNK         0.3000 
    165 H165        0.6371  -18.7669  -38.4907 H         1 UNK         0.0600 
    166 H166        2.2606  -18.5241  -36.6356 H         1 UNK         0.0600 
    167 H167        2.7318  -19.8594  -37.6745 H         1 UNK         0.0600 
    168 H168        3.5884  -18.3260  -37.7793 H         1 UNK         0.0600 
    169 H169        2.1024  -16.3495  -38.0395 H         1 UNK         0.3000 
    170 H170        0.0041  -14.2020  -39.9637 H         1 UNK         0.0600 
    171 H171       -1.2592  -14.6156  -37.8455 H         1 UNK         0.0600 
    172 H172        0.2445  -14.5755  -36.9325 H         1 UNK         0.0600 
    173 H173       -0.3277  -13.1295  -37.7652 H         1 UNK         0.0600 
    174 H174        2.0912  -13.4920  -38.2577 H         1 UNK         0.3000 
    175 H175        4.0076  -12.7379  -38.9820 H         1 UNK         0.0600 
    176 H176        5.4027  -14.9150  -40.6315 H         1 UNK         0.0600 
    177 H177        6.1829  -13.7541  -39.5629 H         1 UNK         0.0600 
    178 H178        5.1166  -14.9808  -38.8966 H         1 UNK         0.0600 
    179 H179        4.7170  -12.9131  -41.8496 H         1 UNK         0.3000 
    180 H180        3.1821   -9.8236  -42.6604 H         1 UNK         0.0600 
    181 H181        6.1710  -10.4691  -42.4394 H         1 UNK         0.0600 
    182 H182        5.3689   -9.0778  -41.7210 H         1 UNK         0.0600 
    183 H183        5.4493   -9.2314  -43.4686 H         1 UNK         0.0600 
    184 H184        4.8335  -11.6861  -44.1109 H         1 UNK         0.3000 
    185 H185        3.6286  -12.5437  -46.0576 H         1 UNK         0.0600 
    186 H186        3.7598  -15.0643  -45.6507 H         1 UNK         0.0600 
    187 H187        4.7242  -14.1427  -44.5098 H         1 UNK         0.0600 
    188 H188        3.1726  -14.7961  -44.0111 H         1 UNK         0.0600 
    189 H189        0.9392  -13.2896  -45.2072 H         1 UNK         0.3000 
    190 H190       -1.3915  -19.0324  -46.0387 H         1 UNK         0.3000 
    191 H191       -3.1492  -18.9599  -48.2314 H         1 UNK         0.0600 
    192 H192       -3.7637  -18.8530  -45.2333 H         1 UNK         0.0600 
    193 H193       -4.8752  -18.3823  -46.5138 H         1 UNK         0.0600 
    194 H194       -3.3890  -17.4797  -46.2726 H         1 UNK         0.0600 
    195 H195       -2.9055  -21.3944  -45.5955 H         1 UNK         0.3000 
    196 H196       -5.0727  -23.0341  -46.4252 H         1 UNK         0.0600 
    197 H197       -2.5239  -23.7578  -44.8854 H         1 UNK         0.0600 
    198 H198       -3.9613  -24.7654  -45.0054 H         1 UNK         0.0600 
    199 H199       -4.0459  -23.2138  -44.1850 H         1 UNK         0.0600 
    200 H200       -1.5875  -23.1087  -47.3118 H         1 UNK         0.3000 
    201 H201       -1.7307  -25.3717  -49.0357 H         1 UNK         0.0600 
    202 H202        0.4038  -24.5005  -48.1158 H         1 UNK         0.0600 
    203 H203        0.2372  -23.0234  -49.0599 H         1 UNK         0.0600 
    204 H204        0.4628  -24.5658  -49.8712 H         1 UNK         0.0600 
    205 H205       -2.0682  -21.8576  -49.7002 H         1 UNK         0.3000 
    206 H206       -2.4526  -22.0494  -52.4951 H         1 UNK         0.0600 
    207 H207       -1.8832  -19.9391  -51.2989 H         1 UNK         0.0600 
    208 H208       -3.3349  -19.7228  -52.2633 H         1 UNK         0.0600 
    209 H209       -3.4608  -19.9273  -50.5214 H         1 UNK         0.0600 
    210 H210       -4.7891  -22.2882  -49.8202 H         1 UNK         0.3000 
    211 H211       -7.1406  -22.4363  -51.4763 H         1 UNK         0.0600 
    212 H212       -6.6563  -23.3261  -48.5834 H         1 UNK         0.0600 
    213 H213       -8.2296  -23.1745  -49.3566 H         1 UNK         0.0600 
    214 H214       -7.2395  -21.7455  -49.0985 H         1 UNK         0.0600 
    215 H215       -4.9383  -24.8883  -50.0583 H         1 UNK         0.3000 
    216 H216       -6.4126  -27.1860  -50.9011 H         1 UNK         0.0600 
    217 H217       -4.2964  -28.3993  -50.3788 H         1 UNK         0.0600 
    218 H218       -4.7235  -27.2771  -49.0957 H         1 UNK         0.0600 
    219 H219       -3.4386  -26.8710  -50.2297 H         1 UNK         0.0600 
    220 H220       -3.5821  -25.4975  -52.3454 H         1 UNK         0.3000 
    221 H221       -3.7758  -26.9832  -54.8841 H         1 UNK         0.0600 
    222 H222       -1.9350  -24.7101  -53.9672 H         1 UNK         0.0600 
    223 H223       -1.5498  -26.4282  -53.9167 H         1 UNK         0.0600 
    224 H224       -1.7790  -25.6240  -55.4627 H         1 UNK         0.0600 
    225 H225       -6.1608  -26.0805  -54.7433 H         1 UNK         0.3000 
    226 H226       -6.6912  -23.3878  -55.2636 H         1 UNK         0.0600 
    227 H227       -8.3852  -24.9701  -54.3821 H         1 UNK         0.0600 
    228 H228       -8.9984  -24.2441  -55.8569 H         1 UNK         0.0600 
    229 H229       -8.3668  -25.8848  -55.8879 H         1 UNK         0.0600 
    230 H230       -6.8504  -22.9445  -58.8825 H         1 UNK         0.3000 
    231 H231       -8.0012  -22.0034  -56.3295 H         1 UNK         0.0600 
    232 H232       -8.7494  -20.1205  -57.7366 H         1 UNK         0.0600 
    233 H233       -9.2746  -21.6546  -58.4129 H         1 UNK         0.0600 
    234 H234       -7.9146  -20.7930  -59.1315 H         1 UNK         0.0600 
    235 H235       -6.8909  -20.6654  -55.0219 H         1 UNK         0.3000 
    236 H236       -5.3286  -19.3912  -54.0830 H         1 UNK         0.0600 
    237 H237       -5.6264  -17.8917  -56.7382 H         1 UNK         0.0600 
    238 H238       -5.0724  -17.1951  -55.2195 H         1 UNK         0.0600 
    239 H239       -6.7222  -17.7770  -55.3622 H         1 UNK         0.0600 
    240 H240       -3.9783  -21.5423  -54.7738 H         1 UNK         0.3000 
    241 H241       -2.0447  -22.4223  -54.9862 H         1 UNK         0.0600 
    242 H242       -2.2785  -21.7482  -58.8204 H         1 UNK         0.3800 
    243 H243       -3.4383  -21.1553  -57.6574 H         1 UNK         0.3800 
    244 H244       -0.2090  -21.4831  -54.1551 H         1 UNK         0.0800 
    245 H245       -1.3024  -20.2270  -53.7142 H         1 UNK         0.0800 
    246 H246       -1.0766  -17.6024  -54.9294 H         1 UNK         0.0800 
    247 H247        0.6154  -17.1917  -54.9740 H         1 UNK         0.0800 
@<TRIPOS>BOND
     1    1    2 1    
     2    1  127 1    
     3    1  128 1    
     4    1  129 1    
     5    2    3 2    
     6    2    4 am   BACKBONE|DICT|INTERRES
     7    4    5 1    
     8    4  130 1    
     9    5    6 1    
    10    5   65 1    
    11    5  131 1    
    12    6    7 1    
    13    6  132 1    
    14    6  133 1    
    15    7    8 1    
    16    8    9 1    
    17    8  134 1    
    18    8  135 1    
    19    9   10 ar   
    20    9   14 ar   
    21   10   11 ar   
    22   10  136 1    
    23   11   12 ar   
    24   11  126 1    
    25   12   13 ar   
    26   12  137 1    
    27   13   14 ar   
    28   13   15 1    
    29   14  138 1    
    30   15   16 1    
    31   15  139 1    
    32   15  140 1    
    33   16   17 1    
    34   17   18 1    
    35   17  141 1    
    36   17  142 1    
    37   18   19 1    
    38   18   67 1    
    39   18  143 1    
    40   19   20 am   BACKBONE|DICT|INTERRES
    41   19  144 1    
    42   20   21 2    
    43   20   22 1    
    44   22   23 1    
    45   22   24 1    
    46   22  145 1    
    47   23  146 1    
    48   23  147 1    
    49   23  148 1    
    50   24   25 am   BACKBONE|DICT|INTERRES
    51   24  149 1    
    52   25   26 2    
    53   25   27 1    
    54   27   28 1    
    55   27   29 1    
    56   27  150 1    
    57   28  151 1    
    58   28  152 1    
    59   28  153 1    
    60   29   30 am   BACKBONE|DICT|INTERRES
    61   29  154 1    
    62   30   31 2    
    63   30   32 1    
    64   32   33 1    
    65   32   34 1    
    66   32  155 1    
    67   33  156 1    
    68   33  157 1    
    69   33  158 1    
    70   34   35 am   BACKBONE|DICT|INTERRES
    71   34  159 1    
    72   35   36 2    
    73   35   37 1    
    74   37   38 1    
    75   37   39 1    
    76   37  160 1    
    77   38  161 1    
    78   38  162 1    
    79   38  163 1    
    80   39   40 am   BACKBONE|DICT|INTERRES
    81   39  164 1    
    82   40   41 2    
    83   40   42 1    
    84   42   43 1    
    85   42   44 1    
    86   42  165 1    
    87   43  166 1    
    88   43  167 1    
    89   43  168 1    
    90   44   45 am   BACKBONE|DICT|INTERRES
    91   44  169 1    
    92   45   46 2    
    93   45   47 1    
    94   47   48 1    
    95   47   49 1    
    96   47  170 1    
    97   48  171 1    
    98   48  172 1    
    99   48  173 1    
   100   49   50 am   BACKBONE|DICT|INTERRES
   101   49  174 1    
   102   50   51 2    
   103   50   52 1    
   104   52   53 1    
   105   52   54 1    
   106   52  175 1    
   107   53  176 1    
   108   53  177 1    
   109   53  178 1    
   110   54   55 am   BACKBONE|DICT|INTERRES
   111   54  179 1    
   112   55   56 2    
   113   55   57 1    
   114   57   58 1    
   115   57   59 1    
   116   57  180 1    
   117   58  181 1    
   118   58  182 1    
   119   58  183 1    
   120   59   60 am   BACKBONE|DICT|INTERRES
   121   59  184 1    
   122   60   61 2    
   123   60   62 1    
   124   62   63 1    
   125   62   64 1    
   126   62  185 1    
   127   63  186 1    
   128   63  187 1    
   129   63  188 1    
   130   64   65 am   BACKBONE|DICT|INTERRES
   131   64  189 1    
   132   65   66 2    
   133   67   68 2    
   134   67   69 am   BACKBONE|DICT|INTERRES
   135   69   70 1    
   136   69  190 1    
   137   70   71 1    
   138   70   72 1    
   139   70  191 1    
   140   71  192 1    
   141   71  193 1    
   142   71  194 1    
   143   72   73 2    
   144   72   74 am   BACKBONE|DICT|INTERRES
   145   74   75 1    
   146   74  195 1    
   147   75   76 1    
   148   75   77 1    
   149   75  196 1    
   150   76  197 1    
   151   76  198 1    
   152   76  199 1    
   153   77   78 2    
   154   77   79 am   BACKBONE|DICT|INTERRES
   155   79   80 1    
   156   79  200 1    
   157   80   81 1    
   158   80   82 1    
   159   80  201 1    
   160   81  202 1    
   161   81  203 1    
   162   81  204 1    
   163   82   83 2    
   164   82   84 am   BACKBONE|DICT|INTERRES
   165   84   85 1    
   166   84  205 1    
   167   85   86 1    
   168   85   87 1    
   169   85  206 1    
   170   86  207 1    
   171   86  208 1    
   172   86  209 1    
   173   87   88 2    
   174   87   89 am   BACKBONE|DICT|INTERRES
   175   89   90 1    
   176   89  210 1    
   177   90   91 1    
   178   90   92 1    
   179   90  211 1    
   180   91  212 1    
   181   91  213 1    
   182   91  214 1    
   183   92   93 2    
   184   92   94 am   BACKBONE|DICT|INTERRES
   185   94   95 1    
   186   94  215 1    
   187   95   96 1    
   188   95   97 1    
   189   95  216 1    
   190   96  217 1    
   191   96  218 1    
   192   96  219 1    
   193   97   98 2    
   194   97   99 am   BACKBONE|DICT|INTERRES
   195   99  100 1    
   196   99  220 1    
   197  100  101 1    
   198  100  102 1    
   199  100  221 1    
   200  101  222 1    
   201  101  223 1    
   202  101  224 1    
   203  102  103 2    
   204  102  104 am   BACKBONE|DICT|INTERRES
   205  104  105 1    
   206  104  225 1    
   207  105  106 1    
   208  105  107 1    
   209  105  226 1    
   210  106  227 1    
   211  106  228 1    
   212  106  229 1    
   213  107  108 2    
   214  107  109 am   BACKBONE|DICT|INTERRES
   215  109  110 1    
   216  109  230 1    
   217  110  111 1    
   218  110  112 1    
   219  110  231 1    
   220  111  232 1    
   221  111  233 1    
   222  111  234 1    
   223  112  113 2    
   224  112  114 am   BACKBONE|DICT|INTERRES
   225  114  115 1    
   226  114  235 1    
   227  115  116 1    
   228  115  117 1    
   229  115  236 1    
   230  116  237 1    
   231  116  238 1    
   232  116  239 1    
   233  117  118 2    
   234  117  119 am   BACKBONE|DICT|INTERRES
   235  119  120 1    
   236  119  240 1    
   237  120  121 1    
   238  120  124 1    
   239  120  241 1    
   240  121  122 am   BACKBONE|DICT|INTERRES
   241  121  123 2    
   242  122  242 1    
   243  122  243 1    
   244  124  125 1    
   245  124  244 1    
   246  124  245 1    
   247  125  126 1    
   248  126  246 1    
   249  126  247 1    
@<TRIPOS>SUBSTRUCTURE
     1 UNK         1 GROUP             0       ****    0 ROOT    
