@<TRIPOS>MOLECULE
3R540
247   249    1
SMALL
USER_CHARGES


@<TRIPOS>ATOM
      1 CA          4.3767   -8.0182  -50.1820 C.3       0 UNK        -0.1800 
      2 C           3.7566   -9.0987  -49.3068 C.2       0 UNK         0.5000 
      3 O           3.4725   -8.8488  -48.1348 O.2       0 UNK        -0.5000 
      4 N           3.5546  -10.2975  -49.8677 N.am      1 UNK        -0.5000 
      5 CA          2.9053  -11.4339  -49.2060 C.3       1 UNK         0.1400 
      6 C6          3.2350  -12.7645  -49.9312 C.3       23 UNK        -0.0398 
      7 S7          3.3069  -14.1742  -48.7756 S.3       23 UNK        -0.2404 
      8 C8          1.7784  -15.0719  -49.1778 C.3       23 UNK        -0.0205 
      9 C9          2.0352  -16.2179  -50.1435 C.ar      23 UNK        -0.0193 
     10 C10         2.2100  -15.9751  -51.5076 C.ar      23 UNK        -0.1150 
     11 C11         2.4440  -17.0301  -52.3939 C.ar      23 UNK        -0.0193 
     12 C12         2.4751  -18.3415  -51.9064 C.ar      23 UNK        -0.1150 
     13 C13         2.2878  -18.6041  -50.5440 C.ar      23 UNK        -0.0193 
     14 C14         2.0926  -17.5304  -49.6694 C.ar      23 UNK        -0.1150 
     15 C15         2.3397  -20.0441  -50.0340 C.3       23 UNK        -0.0205 
     16 S16         1.1200  -20.4189  -48.7241 S.3       23 UNK        -0.2404 
     17 C17         1.1876  -22.2417  -48.7367 C.3       23 UNK        -0.0398 
     18 CA          0.3611  -22.9549  -47.6380 C.3       11 UNK         0.1400 
     19 N           0.8248  -22.6718  -46.2762 N.am      11 UNK        -0.5000 
     20 C           0.5121  -23.4267  -45.2121 C.2       10 UNK         0.5000 
     21 O          -0.1744  -24.4450  -45.2966 O.2       10 UNK        -0.5000 
     22 CA          0.9682  -22.9548  -43.8188 C.3       10 UNK         0.1400 
     23 CB          1.5011  -24.1124  -42.9508 C.3       10 UNK        -0.1800 
     24 N           1.8983  -21.8252  -43.8372 N.am      10 UNK        -0.5000 
     25 C           3.1748  -21.7895  -44.2429 C.2       9 UNK         0.5000 
     26 O           3.7861  -22.7588  -44.6924 O.2       9 UNK        -0.5000 
     27 CA          3.8834  -20.4231  -44.1490 C.3       9 UNK         0.1400 
     28 CB          3.9945  -19.7941  -45.5476 C.3       9 UNK        -0.1800 
     29 N           3.2002  -19.4794  -43.2583 N.am      9 UNK        -0.5000 
     30 C           3.1549  -19.5674  -41.9213 C.2       8 UNK         0.5000 
     31 O           3.7662  -20.4158  -41.2711 O.2       8 UNK        -0.5000 
     32 CA          2.2355  -18.5662  -41.1939 C.3       8 UNK         0.1400 
     33 CB          2.9396  -17.2148  -41.0012 C.3       8 UNK        -0.1800 
     34 N           0.9568  -18.3644  -41.8834 N.am      8 UNK        -0.5000 
     35 C           0.0072  -19.3033  -42.0139 C.2       7 UNK         0.5000 
     36 O           0.0969  -20.4344  -41.5383 O.2       7 UNK        -0.5000 
     37 CA         -1.2313  -18.9407  -42.8525 C.3       7 UNK         0.1400 
     38 CB         -2.2534  -18.1501  -42.0231 C.3       7 UNK        -0.1800 
     39 N          -0.8780  -18.1851  -44.0520 N.am      7 UNK        -0.5000 
     40 C          -0.2469  -18.7004  -45.1150 C.2       6 UNK         0.5000 
     41 O          -0.0095  -19.9015  -45.2514 O.2       6 UNK        -0.5000 
     42 CA          0.2187  -17.7091  -46.1965 C.3       6 UNK         0.1400 
     43 CB         -0.8642  -17.5244  -47.2678 C.3       6 UNK        -0.1800 
     44 N           0.6107  -16.4059  -45.6537 N.am      6 UNK        -0.5000 
     45 C           1.6728  -16.2095  -44.8595 C.2       5 UNK         0.5000 
     46 O           2.4602  -17.1002  -44.5497 O.2       5 UNK        -0.5000 
     47 CA          1.8543  -14.8073  -44.2537 C.3       5 UNK         0.1400 
     48 CB          2.6548  -13.8891  -45.1865 C.3       5 UNK        -0.1800 
     49 N           0.5715  -14.1886  -43.9268 N.am      5 UNK        -0.5000 
     50 C          -0.1983  -14.5617  -42.8956 C.2       4 UNK         0.5000 
     51 O           0.1230  -15.4320  -42.0862 O.2       4 UNK        -0.5000 
     52 CA         -1.5754  -13.8809  -42.7819 C.3       4 UNK         0.1400 
     53 CB         -1.4561  -12.5361  -42.0498 C.3       4 UNK        -0.1800 
     54 N          -2.2055  -13.6690  -44.0873 N.am      4 UNK        -0.5000 
     55 C          -2.6271  -14.6569  -44.8894 C.2       3 UNK         0.5000 
     56 O          -2.5755  -15.8474  -44.5842 O.2       3 UNK        -0.5000 
     57 CA         -3.1461  -14.2549  -46.2844 C.3       3 UNK         0.1400 
     58 CB         -4.6584  -13.9925  -46.2385 C.3       3 UNK        -0.1800 
     59 N          -2.4687  -13.0900  -46.8658 N.am      3 UNK        -0.5000 
     60 C          -1.1541  -13.0061  -47.1097 C.2       2 UNK         0.5000 
     61 O          -0.3515  -13.8996  -46.8291 O.2       2 UNK        -0.5000 
     62 CA         -0.6536  -11.6956  -47.7347 C.3       2 UNK         0.1400 
     63 CB         -0.8423  -10.5106  -46.7695 C.3       2 UNK        -0.1800 
     64 N           0.7638  -11.8200  -48.0663 N.am      2 UNK        -0.5000 
     65 C           1.3812  -11.2003  -49.0768 C.2       1 UNK         0.5000 
     66 O           0.7974  -10.4770  -49.8891 O.2       1 UNK        -0.5000 
     67 C          -1.1610  -22.7402  -47.7804 C.2       11 UNK         0.5000 
     68 O          -1.8081  -23.4842  -48.5190 O.2       11 UNK        -0.5000 
     69 N          -1.7173  -21.7875  -47.0129 N.am      12 UNK        -0.5000 
     70 CA         -3.1590  -21.5709  -46.8806 C.3       12 UNK         0.1400 
     71 CB         -3.4298  -20.2999  -46.0637 C.3       12 UNK        -0.1800 
     72 C          -3.8789  -22.7826  -46.2669 C.2       12 UNK         0.5000 
     73 O          -4.9083  -23.2071  -46.7921 O.2       12 UNK        -0.5000 
     74 N          -3.2966  -23.3344  -45.1942 N.am      13 UNK        -0.5000 
     75 CA         -3.7986  -24.5120  -44.4881 C.3       13 UNK         0.1400 
     76 CB         -3.0746  -24.6426  -43.1389 C.3       13 UNK        -0.1800 
     77 C          -3.6568  -25.8024  -45.3140 C.2       13 UNK         0.5000 
     78 O          -4.5693  -26.6287  -45.3022 O.2       13 UNK        -0.5000 
     79 N          -2.5269  -25.9439  -46.0221 N.am      14 UNK        -0.5000 
     80 CA         -2.2263  -27.0806  -46.8923 C.3       14 UNK         0.1400 
     81 CB         -0.7586  -27.0149  -47.3405 C.3       14 UNK        -0.1800 
     82 C          -3.1619  -27.1634  -48.1106 C.2       14 UNK         0.5000 
     83 O          -3.6319  -28.2544  -48.4365 O.2       14 UNK        -0.5000 
     84 N          -3.4240  -26.0160  -48.7534 N.am      15 UNK        -0.5000 
     85 CA         -4.3520  -25.9145  -49.8798 C.3       15 UNK         0.1400 
     86 CB         -4.1241  -24.5869  -50.6160 C.3       15 UNK        -0.1800 
     87 C          -5.8209  -26.0219  -49.4370 C.2       15 UNK         0.5000 
     88 O          -6.6132  -26.6650  -50.1257 O.2       15 UNK        -0.5000 
     89 N          -6.1523  -25.3625  -48.3143 N.am      16 UNK        -0.5000 
     90 CA         -7.4917  -25.2122  -47.7302 C.3       16 UNK         0.1400 
     91 CB         -8.0307  -26.5703  -47.2360 C.3       16 UNK        -0.1800 
     92 C          -8.4808  -24.4709  -48.6596 C.2       16 UNK         0.5000 
     93 O          -9.6925  -24.6746  -48.5640 O.2       16 UNK        -0.5000 
     94 N          -7.9420  -23.6254  -49.5469 N.am      17 UNK        -0.5000 
     95 CA         -8.6605  -22.9177  -50.6005 C.3       17 UNK         0.1400 
     96 CB         -8.9607  -23.8774  -51.7703 C.3       17 UNK        -0.1800 
     97 C          -7.8295  -21.6989  -51.0264 C.2       17 UNK         0.5000 
     98 O          -7.3067  -21.6634  -52.1419 O.2       17 UNK        -0.5000 
     99 N          -7.6750  -20.7426  -50.0974 N.am      18 UNK        -0.5000 
    100 CA        -7.0119  -19.4397  -50.2714 C.3       18 UNK         0.1400 
    101 CB        -7.8881  -18.5157  -51.1426 C.3       18 UNK        -0.1800 
    102 C         -5.5630  -19.5470  -50.7958 C.2       18 UNK         0.5000 
    103 O         -5.1636  -18.7896  -51.6825 O.2       18 UNK        -0.5000 
    104 N         -4.8255  -20.5396  -50.2734 N.am      19 UNK        -0.5000 
    105 CA        -3.4502  -20.9092  -50.6406 C.3       19 UNK         0.1400 
    106 CB        -2.4661  -19.7874  -50.2489 C.3       19 UNK        -0.1800 
    107 C         -3.2798  -21.3405  -52.1116 C.2       19 UNK         0.5000 
    108 O         -2.1565  -21.3240  -52.6122 O.2       19 UNK        -0.5000 
    109 N         -4.3856  -21.6871  -52.7933 N.am      20 UNK        -0.5000 
    110 CA        -4.4780  -21.9191  -54.2401 C.3       20 UNK         0.1400 
    111 CB        -3.7675  -23.2316  -54.6305 C.3       20 UNK        -0.1800 
    112 C         -3.9873  -20.6948  -55.0464 C.2       20 UNK         0.5000 
    113 O         -3.2875  -20.8462  -56.0491 O.2       20 UNK        -0.5000 
    114 N         -4.3095  -19.4983  -54.5321 N.am      21 UNK        -0.5000 
    115 CA        -3.8457  -18.1638  -54.9204 C.3       21 UNK         0.1400 
    116 CB        -4.1345  -17.8494  -56.4012 C.3       21 UNK        -0.1800 
    117 C         -2.3732  -17.8908  -54.5546 C.2       21 UNK         0.5000 
    118 O         -2.0921  -16.8349  -53.9885 O.2       21 UNK        -0.5000 
    119 N         -1.4701  -18.8266  -54.8697 N.am      22 UNK        -0.5000 
    120 CA        -0.0196  -18.7232  -54.6466 C.3       22 UNK         0.1400 
    121 C          0.6897  -20.1116  -54.6625 C.2       22 UNK         0.5000 
    122 N          0.0309  -21.1986  -54.2879 N.am      22 UNK        -0.7600 
    123 O          1.8622  -20.2225  -55.0102 O.2       22 UNK        -0.5000 
    124 C124        0.6506  -17.6701  -55.5880 C.3       23 UNK        -0.0398 
    125 S125        1.1938  -16.1614  -54.7190 S.3       23 UNK        -0.2404 
    126 C126        2.6986  -16.7347  -53.8665 C.3       23 UNK        -0.0205 
    127 H127        3.7004   -7.1672  -50.2625 H         1 UNK         0.0600 
    128 H128        5.3125   -7.6712  -49.7439 H         1 UNK         0.0600 
    129 H129        4.5867   -8.3817  -51.1882 H         1 UNK         0.0600 
    130 H130        3.7766  -10.4259  -50.8444 H         1 UNK         0.3000 
    131 H131        3.3182  -11.4800  -48.1952 H         1 UNK         0.0600 
    132 H132        4.2240  -12.7068  -50.3883 H         1 UNK         0.0800 
    133 H133        2.5463  -12.9589  -50.7545 H         1 UNK         0.0800 
    134 H134        1.0232  -14.3978  -49.5837 H         1 UNK         0.0800 
    135 H135        1.3645  -15.4561  -48.2460 H         1 UNK         0.0800 
    136 H136        2.1755  -14.9632  -51.8839 H         1 UNK         0.1150 
    137 H137        2.6598  -19.1597  -52.5879 H         1 UNK         0.1150 
    138 H138        1.9816  -17.7157  -48.6137 H         1 UNK         0.1150 
    139 H139        2.1737  -20.7308  -50.8657 H         1 UNK         0.0800 
    140 H140        3.3420  -20.2474  -49.6552 H         1 UNK         0.0800 
    141 H141        2.2325  -22.5421  -48.6473 H         1 UNK         0.0800 
    142 H142        0.8646  -22.5867  -49.7207 H         1 UNK         0.0800 
    143 H143        0.5238  -24.0223  -47.7988 H         1 UNK         0.0600 
    144 H144        1.3165  -21.8017  -46.1287 H         1 UNK         0.3000 
    145 H145        0.0671  -22.5779  -43.3335 H         1 UNK         0.0600 
    146 H146        1.8021  -23.7582  -41.9647 H         1 UNK         0.0600 
    147 H147        0.7345  -24.8734  -42.8004 H         1 UNK         0.0600 
    148 H148        2.3592  -24.6038  -43.4095 H         1 UNK         0.0600 
    149 H149        1.5003  -20.9513  -43.5216 H         1 UNK         0.3000 
    150 H150        4.8904  -20.5953  -43.7640 H         1 UNK         0.0600 
    151 H151        4.5310  -20.4511  -46.2333 H         1 UNK         0.0600 
    152 H152        4.5357  -18.8485  -45.5136 H         1 UNK         0.0600 
    153 H153        3.0119  -19.6014  -45.9801 H         1 UNK         0.0600 
    154 H154        2.7416  -18.6894  -43.7090 H         1 UNK         0.3000 
    155 H155        2.0178  -18.9748  -40.2049 H         1 UNK         0.0600 
    156 H156        3.2073  -16.7589  -41.9539 H         1 UNK         0.0600 
    157 H157        3.8590  -17.3343  -40.4269 H         1 UNK         0.0600 
    158 H158        2.3058  -16.5124  -40.4595 H         1 UNK         0.0600 
    159 H159        0.7834  -17.4398  -42.2606 H         1 UNK         0.3000 
    160 H160       -1.7026  -19.8753  -43.1617 H         1 UNK         0.0600 
    161 H161       -3.1532  -17.9436  -42.6030 H         1 UNK         0.0600 
    162 H162       -1.8502  -17.1964  -41.6832 H         1 UNK         0.0600 
    163 H163       -2.5567  -18.7123  -41.1392 H         1 UNK         0.0600 
    164 H164       -1.1336  -17.2040  -44.0682 H         1 UNK         0.3000 
    165 H165        1.0984  -18.1486  -46.6653 H         1 UNK         0.0600 
    166 H166       -0.5565  -16.8172  -48.0369 H         1 UNK         0.0600 
    167 H167       -1.0705  -18.4711  -47.7658 H         1 UNK         0.0600 
    168 H168       -1.8001  -17.1692  -46.8388 H         1 UNK         0.0600 
    169 H169        0.0424  -15.6046  -45.9087 H         1 UNK         0.3000 
    170 H170        2.4263  -14.9176  -43.3304 H         1 UNK         0.0600 
    171 H171        3.6191  -14.3332  -45.4373 H         1 UNK         0.0600 
    172 H172        2.1279  -13.7050  -46.1200 H         1 UNK         0.0600 
    173 H173        2.8520  -12.9252  -44.7173 H         1 UNK         0.0600 
    174 H174        0.2067  -13.5229  -44.5923 H         1 UNK         0.3000 
    175 H175       -2.2221  -14.5351  -42.1931 H         1 UNK         0.0600 
    176 H176       -2.4355  -12.0821  -41.8975 H         1 UNK         0.0600 
    177 H177       -1.0031  -12.6667  -41.0660 H         1 UNK         0.0600 
    178 H178       -0.8394  -11.8273  -42.6039 H         1 UNK         0.0600 
    179 H179       -2.2874  -12.7164  -44.4101 H         1 UNK         0.3000 
    180 H180       -2.9706  -15.0992  -46.9531 H         1 UNK         0.0600 
    181 H181       -4.8992  -13.1311  -45.6142 H         1 UNK         0.0600 
    182 H182       -5.1919  -14.8527  -45.8314 H         1 UNK         0.0600 
    183 H183       -5.0577  -13.8076  -47.2359 H         1 UNK         0.0600 
    184 H184       -3.0607  -12.3113  -47.1167 H         1 UNK         0.3000 
    185 H185       -1.2330  -11.5241  -48.6442 H         1 UNK         0.0600 
    186 H186       -0.3002  -10.6640  -45.8355 H         1 UNK         0.0600 
    187 H187       -0.4832   -9.5815  -47.2128 H         1 UNK         0.0600 
    188 H188       -1.8933  -10.3601  -46.5208 H         1 UNK         0.0600 
    189 H189        1.2700  -12.4828  -47.4941 H         1 UNK         0.3000 
    190 H190       -1.1083  -21.2176  -46.4348 H         1 UNK         0.3000 
    191 H191       -3.5751  -21.4187  -47.8734 H         1 UNK         0.0600 
    192 H192       -3.0089  -19.4210  -46.5496 H         1 UNK         0.0600 
    193 H193       -3.0071  -20.3662  -45.0620 H         1 UNK         0.0600 
    194 H194       -4.5011  -20.1253  -45.9562 H         1 UNK         0.0600 
    195 H195       -2.4289  -22.9430  -44.8621 H         1 UNK         0.3000 
    196 H196       -4.8618  -24.3599  -44.2895 H         1 UNK         0.0600 
    197 H197       -3.4534  -25.4962  -42.5754 H         1 UNK         0.0600 
    198 H198       -3.2240  -23.7555  -42.5231 H         1 UNK         0.0600 
    199 H199       -2.0011  -24.7856  -43.2664 H         1 UNK         0.0600 
    200 H200       -1.7906  -25.2525  -45.9099 H         1 UNK         0.3000 
    201 H201       -2.3599  -27.9923  -46.3062 H         1 UNK         0.0600 
    202 H202       -0.0835  -27.0061  -46.4846 H         1 UNK         0.0600 
    203 H203       -0.5603  -26.1230  -47.9345 H         1 UNK         0.0600 
    204 H204       -0.4985  -27.8801  -47.9514 H         1 UNK         0.0600 
    205 H205       -2.9589  -25.1627  -48.4602 H         1 UNK         0.3000 
    206 H206       -4.1451  -26.7294  -50.5769 H         1 UNK         0.0600 
    207 H207       -3.0931  -24.4929  -50.9580 H         1 UNK         0.0600 
    208 H208       -4.7680  -24.5088  -51.4931 H         1 UNK         0.0600 
    209 H209       -4.3446  -23.7385  -49.9695 H         1 UNK         0.0600 
    210 H210       -5.4289  -24.8380  -47.8323 H         1 UNK         0.3000 
    211 H211       -7.3674  -24.5731  -46.8551 H         1 UNK         0.0600 
    212 H212       -8.2533  -27.2446  -48.0633 H         1 UNK         0.0600 
    213 H213       -8.9496  -26.4421  -46.6630 H         1 UNK         0.0600 
    214 H214       -7.3096  -27.0645  -46.5845 H         1 UNK         0.0600 
    215 H215       -6.9402  -23.5051  -49.5370 H         1 UNK         0.3000 
    216 H216       -9.6075  -22.5430  -50.2066 H         1 UNK         0.0600 
    217 H217       -9.4611  -23.3554  -52.5868 H         1 UNK         0.0600 
    218 H218       -9.6152  -24.6911  -51.4583 H         1 UNK         0.0600 
    219 H219       -8.0474  -24.3201  -52.1703 H         1 UNK         0.0600 
    220 H220       -8.1074  -20.8910  -49.1956 H         1 UNK         0.3000 
    221 H221       -6.9419  -18.9901  -49.2799 H         1 UNK         0.0600 
    222 H222       -7.9730  -18.8863  -52.1648 H         1 UNK         0.0600 
    223 H223       -8.8946  -18.4267  -50.7340 H         1 UNK         0.0600 
    224 H224       -7.4702  -17.5094  -51.1922 H         1 UNK         0.0600 
    225 H225       -5.2663  -21.1204  -49.5756 H         1 UNK         0.3000 
    226 H226       -3.1889  -21.7872  -50.0548 H         1 UNK         0.0600 
    227 H227       -2.6074  -19.4856  -49.2123 H         1 UNK         0.0600 
    228 H228       -1.4324  -20.1190  -50.3515 H         1 UNK         0.0600 
    229 H229       -2.5862  -18.9032  -50.8757 H         1 UNK         0.0600 
    230 H230       -5.2800  -21.6519  -52.3151 H         1 UNK         0.3000 
    231 H231       -5.5386  -22.0336  -54.4683 H         1 UNK         0.0600 
    232 H232       -4.1403  -24.0705  -54.0430 H         1 UNK         0.0600 
    233 H233       -2.6891  -23.1713  -54.4817 H         1 UNK         0.0600 
    234 H234       -3.9388  -23.4696  -55.6808 H         1 UNK         0.0600 
    235 H235       -4.8206  -19.5031  -53.6556 H         1 UNK         0.3000 
    236 H236       -4.4452  -17.4741  -54.3239 H         1 UNK         0.0600 
    237 H237       -3.9116  -16.8051  -56.6227 H         1 UNK         0.0600 
    238 H238       -3.5320  -18.4565  -57.0770 H         1 UNK         0.0600 
    239 H239       -5.1841  -18.0165  -56.6429 H         1 UNK         0.0600 
    240 H240       -1.7920  -19.6759  -55.3233 H         1 UNK         0.3000 
    241 H241        0.1022  -18.3952  -53.6133 H         1 UNK         0.0600 
    242 H242        0.5098  -22.0837  -54.3133 H         1 UNK         0.3800 
    243 H243       -0.8755  -21.1431  -53.8236 H         1 UNK         0.3800 
    244 H244        1.5067  -18.0632  -56.1372 H         1 UNK         0.0800 
    245 H245       -0.0443  -17.3605  -56.3698 H         1 UNK         0.0800 
    246 H246        3.4578  -15.9548  -53.9411 H         1 UNK         0.0800 
    247 H247        3.1137  -17.6073  -54.3733 H         1 UNK         0.0800 
@<TRIPOS>BOND
     1    1    2 1    
     2    1  127 1    
     3    1  128 1    
     4    1  129 1    
     5    2    3 2    
     6    2    4 am   BACKBONE|DICT|INTERRES
     7    4    5 1    
     8    4  130 1    
     9    5    6 1    
    10    5   65 1    
    11    5  131 1    
    12    6    7 1    
    13    6  132 1    
    14    6  133 1    
    15    7    8 1    
    16    8    9 1    
    17    8  134 1    
    18    8  135 1    
    19    9   10 ar   
    20    9   14 ar   
    21   10   11 ar   
    22   10  136 1    
    23   11   12 ar   
    24   11  126 1    
    25   12   13 ar   
    26   12  137 1    
    27   13   14 ar   
    28   13   15 1    
    29   14  138 1    
    30   15   16 1    
    31   15  139 1    
    32   15  140 1    
    33   16   17 1    
    34   17   18 1    
    35   17  141 1    
    36   17  142 1    
    37   18   19 1    
    38   18   67 1    
    39   18  143 1    
    40   19   20 am   BACKBONE|DICT|INTERRES
    41   19  144 1    
    42   20   21 2    
    43   20   22 1    
    44   22   23 1    
    45   22   24 1    
    46   22  145 1    
    47   23  146 1    
    48   23  147 1    
    49   23  148 1    
    50   24   25 am   BACKBONE|DICT|INTERRES
    51   24  149 1    
    52   25   26 2    
    53   25   27 1    
    54   27   28 1    
    55   27   29 1    
    56   27  150 1    
    57   28  151 1    
    58   28  152 1    
    59   28  153 1    
    60   29   30 am   BACKBONE|DICT|INTERRES
    61   29  154 1    
    62   30   31 2    
    63   30   32 1    
    64   32   33 1    
    65   32   34 1    
    66   32  155 1    
    67   33  156 1    
    68   33  157 1    
    69   33  158 1    
    70   34   35 am   BACKBONE|DICT|INTERRES
    71   34  159 1    
    72   35   36 2    
    73   35   37 1    
    74   37   38 1    
    75   37   39 1    
    76   37  160 1    
    77   38  161 1    
    78   38  162 1    
    79   38  163 1    
    80   39   40 am   BACKBONE|DICT|INTERRES
    81   39  164 1    
    82   40   41 2    
    83   40   42 1    
    84   42   43 1    
    85   42   44 1    
    86   42  165 1    
    87   43  166 1    
    88   43  167 1    
    89   43  168 1    
    90   44   45 am   BACKBONE|DICT|INTERRES
    91   44  169 1    
    92   45   46 2    
    93   45   47 1    
    94   47   48 1    
    95   47   49 1    
    96   47  170 1    
    97   48  171 1    
    98   48  172 1    
    99   48  173 1    
   100   49   50 am   BACKBONE|DICT|INTERRES
   101   49  174 1    
   102   50   51 2    
   103   50   52 1    
   104   52   53 1    
   105   52   54 1    
   106   52  175 1    
   107   53  176 1    
   108   53  177 1    
   109   53  178 1    
   110   54   55 am   BACKBONE|DICT|INTERRES
   111   54  179 1    
   112   55   56 2    
   113   55   57 1    
   114   57   58 1    
   115   57   59 1    
   116   57  180 1    
   117   58  181 1    
   118   58  182 1    
   119   58  183 1    
   120   59   60 am   BACKBONE|DICT|INTERRES
   121   59  184 1    
   122   60   61 2    
   123   60   62 1    
   124   62   63 1    
   125   62   64 1    
   126   62  185 1    
   127   63  186 1    
   128   63  187 1    
   129   63  188 1    
   130   64   65 am   BACKBONE|DICT|INTERRES
   131   64  189 1    
   132   65   66 2    
   133   67   68 2    
   134   67   69 am   BACKBONE|DICT|INTERRES
   135   69   70 1    
   136   69  190 1    
   137   70   71 1    
   138   70   72 1    
   139   70  191 1    
   140   71  192 1    
   141   71  193 1    
   142   71  194 1    
   143   72   73 2    
   144   72   74 am   BACKBONE|DICT|INTERRES
   145   74   75 1    
   146   74  195 1    
   147   75   76 1    
   148   75   77 1    
   149   75  196 1    
   150   76  197 1    
   151   76  198 1    
   152   76  199 1    
   153   77   78 2    
   154   77   79 am   BACKBONE|DICT|INTERRES
   155   79   80 1    
   156   79  200 1    
   157   80   81 1    
   158   80   82 1    
   159   80  201 1    
   160   81  202 1    
   161   81  203 1    
   162   81  204 1    
   163   82   83 2    
   164   82   84 am   BACKBONE|DICT|INTERRES
   165   84   85 1    
   166   84  205 1    
   167   85   86 1    
   168   85   87 1    
   169   85  206 1    
   170   86  207 1    
   171   86  208 1    
   172   86  209 1    
   173   87   88 2    
   174   87   89 am   BACKBONE|DICT|INTERRES
   175   89   90 1    
   176   89  210 1    
   177   90   91 1    
   178   90   92 1    
   179   90  211 1    
   180   91  212 1    
   181   91  213 1    
   182   91  214 1    
   183   92   93 2    
   184   92   94 am   BACKBONE|DICT|INTERRES
   185   94   95 1    
   186   94  215 1    
   187   95   96 1    
   188   95   97 1    
   189   95  216 1    
   190   96  217 1    
   191   96  218 1    
   192   96  219 1    
   193   97   98 2    
   194   97   99 am   BACKBONE|DICT|INTERRES
   195   99  100 1    
   196   99  220 1    
   197  100  101 1    
   198  100  102 1    
   199  100  221 1    
   200  101  222 1    
   201  101  223 1    
   202  101  224 1    
   203  102  103 2    
   204  102  104 am   BACKBONE|DICT|INTERRES
   205  104  105 1    
   206  104  225 1    
   207  105  106 1    
   208  105  107 1    
   209  105  226 1    
   210  106  227 1    
   211  106  228 1    
   212  106  229 1    
   213  107  108 2    
   214  107  109 am   BACKBONE|DICT|INTERRES
   215  109  110 1    
   216  109  230 1    
   217  110  111 1    
   218  110  112 1    
   219  110  231 1    
   220  111  232 1    
   221  111  233 1    
   222  111  234 1    
   223  112  113 2    
   224  112  114 am   BACKBONE|DICT|INTERRES
   225  114  115 1    
   226  114  235 1    
   227  115  116 1    
   228  115  117 1    
   229  115  236 1    
   230  116  237 1    
   231  116  238 1    
   232  116  239 1    
   233  117  118 2    
   234  117  119 am   BACKBONE|DICT|INTERRES
   235  119  120 1    
   236  119  240 1    
   237  120  121 1    
   238  120  124 1    
   239  120  241 1    
   240  121  122 am   BACKBONE|DICT|INTERRES
   241  121  123 2    
   242  122  242 1    
   243  122  243 1    
   244  124  125 1    
   245  124  244 1    
   246  124  245 1    
   247  125  126 1    
   248  126  246 1    
   249  126  247 1    
@<TRIPOS>SUBSTRUCTURE
     1 UNK         1 GROUP             0       ****    0 ROOT    
