@<TRIPOS>MOLECULE
3R540
247   249    1
SMALL
USER_CHARGES


@<TRIPOS>ATOM
      1 CA         -3.1009  -12.4214  -48.0454 C.3       0 UNK        -0.1800 
      2 C          -1.7294  -12.7052  -47.4503 C.2       0 UNK         0.5000 
      3 O          -1.4510  -12.2826  -46.3286 O.2       0 UNK        -0.5000 
      4 N          -0.8785  -13.4308  -48.1904 N.am      1 UNK        -0.5000 
      5 CA          0.4915  -13.8030  -47.8066 C.3       1 UNK         0.1400 
      6 C6          1.1998  -14.5638  -48.9537 C.3       23 UNK        -0.0398 
      7 S7          3.0026  -14.7539  -48.7169 S.3       23 UNK        -0.2404 
      8 C8          3.4696  -15.7334  -50.1812 C.3       23 UNK        -0.0205 
      9 C9          2.7373  -17.0661  -50.2391 C.ar      23 UNK        -0.0193 
     10 C10         1.6420  -17.2250  -51.0923 C.ar      23 UNK        -0.1150 
     11 C11         0.9358  -18.4295  -51.1277 C.ar      23 UNK        -0.0193 
     12 C12         1.3463  -19.4910  -50.3160 C.ar      23 UNK        -0.1150 
     13 C13         2.4401  -19.3433  -49.4541 C.ar      23 UNK        -0.0193 
     14 C14         3.1361  -18.1310  -49.4263 C.ar      23 UNK        -0.1150 
     15 C15         2.8557  -20.4854  -48.5352 C.3       23 UNK        -0.0205 
     16 S16         2.3951  -20.1918  -46.7917 S.3       23 UNK        -0.2404 
     17 C17         0.5836  -20.0379  -46.9114 C.3       23 UNK        -0.0398 
     18 CA         -0.1334  -21.4054  -46.8152 C.3       11 UNK         0.1400 
     19 N          -0.1936  -21.9193  -45.4425 N.am      11 UNK        -0.5000 
     20 C          -0.6095  -23.1534  -45.1141 C.2       10 UNK         0.5000 
     21 O          -0.9323  -24.0032  -45.9415 O.2       10 UNK        -0.5000 
     22 CA         -0.7433  -23.4918  -43.6159 C.3       10 UNK         0.1400 
     23 CB          0.5720  -24.0765  -43.0812 C.3       10 UNK        -0.1800 
     24 N          -1.1270  -22.3486  -42.7906 N.am      10 UNK        -0.5000 
     25 C          -2.2171  -21.5866  -42.9593 C.2       9 UNK         0.5000 
     26 O          -3.1039  -21.8369  -43.7763 O.2       9 UNK        -0.5000 
     27 CA         -2.2949  -20.2932  -42.1200 C.3       9 UNK         0.1400 
     28 CB         -3.2601  -20.4785  -40.9404 C.3       9 UNK        -0.1800 
     29 N          -0.9976  -19.8244  -41.6103 N.am      9 UNK        -0.5000 
     30 C           0.0679  -19.5128  -42.3621 C.2       8 UNK         0.5000 
     31 O           0.0778  -19.5793  -43.5953 O.2       8 UNK        -0.5000 
     32 CA          1.3539  -19.1471  -41.6095 C.3       8 UNK         0.1400 
     33 CB          1.9299  -20.3745  -40.8760 C.3       8 UNK        -0.1800 
     34 N           2.3213  -18.6499  -42.5788 N.am      8 UNK        -0.5000 
     35 C           3.3899  -17.8967  -42.3086 C.2       7 UNK         0.5000 
     36 O           3.7368  -17.5961  -41.1632 O.2       7 UNK        -0.5000 
     37 CA          4.2094  -17.4215  -43.5238 C.3       7 UNK         0.1400 
     38 CB          3.3090  -16.8982  -44.6568 C.3       7 UNK        -0.1800 
     39 N           5.1045  -16.3414  -43.1219 N.am      7 UNK        -0.5000 
     40 C           6.4377  -16.3384  -43.2376 C.2       6 UNK         0.5000 
     41 O           7.0818  -17.2701  -43.7222 O.2       6 UNK        -0.5000 
     42 CA          7.1914  -15.0802  -42.7538 C.3       6 UNK         0.1400 
     43 CB          7.7478  -14.2947  -43.9525 C.3       6 UNK        -0.1800 
     44 N           6.3606  -14.1774  -41.9558 N.am      6 UNK        -0.5000 
     45 C           6.0298  -14.3666  -40.6715 C.2       5 UNK         0.5000 
     46 O           6.4756  -15.2828  -39.9801 O.2       5 UNK        -0.5000 
     47 CA          5.0221  -13.3710  -40.0585 C.3       5 UNK         0.1400 
     48 CB          5.7523  -12.3320  -39.1934 C.3       5 UNK        -0.1800 
     49 N           4.1926  -12.6681  -41.0460 N.am      5 UNK        -0.5000 
     50 C           3.2881  -13.2527  -41.8427 C.2       4 UNK         0.5000 
     51 O           3.0883  -14.4679  -41.8699 O.2       4 UNK        -0.5000 
     52 CA          2.5311  -12.3296  -42.8125 C.3       4 UNK         0.1400 
     53 CB          3.3100  -12.1949  -44.1305 C.3       4 UNK        -0.1800 
     54 N           1.1864  -12.8357  -43.0914 N.am      4 UNK        -0.5000 
     55 C           0.1664  -12.7723  -42.2218 C.2       3 UNK         0.5000 
     56 O           0.2560  -12.2316  -41.1180 O.2       3 UNK        -0.5000 
     57 CA         -1.1879  -13.3834  -42.6371 C.3       3 UNK         0.1400 
     58 CB         -2.2075  -12.2746  -42.9424 C.3       3 UNK        -0.1800 
     59 N          -1.0934  -14.2700  -43.7960 N.am      3 UNK        -0.5000 
     60 C          -0.7110  -15.5538  -43.7388 C.2       2 UNK         0.5000 
     61 O          -0.4536  -16.1389  -42.6868 O.2       2 UNK        -0.5000 
     62 CA         -0.5955  -16.3217  -45.0742 C.3       2 UNK         0.1400 
     63 CB         -1.8183  -17.2299  -45.2764 C.3       2 UNK        -0.1800 
     64 N          -0.4472  -15.4756  -46.2628 N.am      2 UNK        -0.5000 
     65 C           0.5437  -14.5985  -46.4831 C.2       1 UNK         0.5000 
     66 O           1.4335  -14.3606  -45.6698 O.2       1 UNK        -0.5000 
     67 C          -1.5350  -21.3088  -47.4432 C.2       11 UNK         0.5000 
     68 O          -1.7231  -21.7589  -48.5732 O.2       11 UNK        -0.5000 
     69 N          -2.4959  -20.7522  -46.6918 N.am      12 UNK        -0.5000 
     70 CA         -3.8905  -20.6257  -47.1153 C.3       12 UNK         0.1400 
     71 CB         -4.6531  -19.7112  -46.1454 C.3       12 UNK        -0.1800 
     72 C          -4.5825  -21.9919  -47.2444 C.2       12 UNK         0.5000 
     73 O          -5.3493  -22.1908  -48.1864 O.2       12 UNK        -0.5000 
     74 N          -4.2690  -22.9138  -46.3235 N.am      13 UNK        -0.5000 
     75 CA         -4.7373  -24.2980  -46.3440 C.3       13 UNK         0.1400 
     76 CB         -4.3655  -24.9898  -45.0241 C.3       13 UNK        -0.1800 
     77 C          -4.1968  -25.0827  -47.5538 C.2       13 UNK         0.5000 
     78 O          -4.9831  -25.7085  -48.2647 O.2       13 UNK        -0.5000 
     79 N          -2.8781  -25.0074  -47.7897 N.am      14 UNK        -0.5000 
     80 CA         -2.1887  -25.6695  -48.9011 C.3       14 UNK         0.1400 
     81 CB         -0.6692  -25.5255  -48.7279 C.3       14 UNK        -0.1800 
     82 C          -2.6220  -25.1443  -50.2803 C.2       14 UNK         0.5000 
     83 O          -2.7870  -25.9367  -51.2081 O.2       14 UNK        -0.5000 
     84 N          -2.8277  -23.8246  -50.3818 N.am      15 UNK        -0.5000 
     85 CA         -3.3225  -23.1592  -51.5857 C.3       15 UNK         0.1400 
     86 CB         -2.8868  -21.6869  -51.5575 C.3       15 UNK        -0.1800 
     87 C          -4.8476  -23.2754  -51.7672 C.2       15 UNK         0.5000 
     88 O          -5.3509  -22.8316  -52.7988 O.2       15 UNK        -0.5000 
     89 N          -5.5600  -23.8454  -50.7841 N.am      16 UNK        -0.5000 
     90 CA         -7.0128  -24.0465  -50.7374 C.3       16 UNK         0.1400 
     91 CB         -7.4431  -25.1009  -51.7779 C.3       16 UNK        -0.1800 
     92 C          -7.7958  -22.7228  -50.8630 C.2       16 UNK         0.5000 
     93 O          -8.7322  -22.6281  -51.6569 O.2       16 UNK        -0.5000 
     94 N          -7.3610  -21.7153  -50.0922 N.am      17 UNK        -0.5000 
     95 CA         -7.8245  -20.3231  -50.1101 C.3       17 UNK         0.1400 
     96 CB         -9.2948  -20.2162  -49.6536 C.3       17 UNK        -0.1800 
     97 C          -7.5467  -19.6289  -51.4621 C.2       17 UNK         0.5000 
     98 O          -8.3897  -18.8848  -51.9658 O.2       17 UNK        -0.5000 
     99 N          -6.3493  -19.8922  -52.0063 N.am      18 UNK        -0.5000 
    100 CA        -5.8120  -19.4038  -53.2797 C.3       18 UNK         0.1400 
    101 CB        -5.6094  -17.8744  -53.2522 C.3       18 UNK        -0.1800 
    102 C         -6.6231  -19.8988  -54.4958 C.2       18 UNK         0.5000 
    103 O         -7.0560  -19.0955  -55.3252 O.2       18 UNK        -0.5000 
    104 N         -6.8232  -21.2204  -54.5631 N.am      19 UNK        -0.5000 
    105 CA        -7.5370  -21.9117  -55.6373 C.3       19 UNK         0.1400 
    106 CB        -8.8994  -22.3954  -55.1174 C.3       19 UNK        -0.1800 
    107 C         -6.7259  -23.0902  -56.2024 C.2       19 UNK         0.5000 
    108 O         -6.7563  -23.3111  -57.4137 O.2       19 UNK        -0.5000 
    109 N         -6.0122  -23.8237  -55.3365 N.am      20 UNK        -0.5000 
    110 CA        -5.1526  -24.9501  -55.7140 C.3       20 UNK         0.1400 
    111 CB        -5.1211  -25.9694  -54.5641 C.3       20 UNK        -0.1800 
    112 C         -3.7241  -24.4986  -56.0707 C.2       20 UNK         0.5000 
    113 O         -3.0125  -25.2255  -56.7650 O.2       20 UNK        -0.5000 
    114 N         -3.3357  -23.3095  -55.6021 N.am      21 UNK        -0.5000 
    115 CA        -2.0805  -22.6291  -55.8907 C.3       21 UNK         0.1400 
    116 CB        -0.9815  -23.1176  -54.9294 C.3       21 UNK        -0.1800 
    117 C         -2.3244  -21.1221  -55.7380 C.2       21 UNK         0.5000 
    118 O         -3.3580  -20.7268  -55.1941 O.2       21 UNK        -0.5000 
    119 N         -1.3697  -20.3111  -56.2070 N.am      22 UNK        -0.5000 
    120 CA        -1.3644  -18.8390  -56.0902 C.3       22 UNK         0.1400 
    121 C         -2.4720  -18.1062  -56.9120 C.2       22 UNK         0.5000 
    122 N         -3.1097  -18.7484  -57.8829 N.am      22 UNK        -0.7600 
    123 O         -2.7361  -16.9265  -56.6951 O.2       22 UNK        -0.5000 
    124 C124       -1.2999  -18.3497  -54.6140 C.3       23 UNK        -0.0398 
    125 S125        0.1696  -18.9699  -53.7270 S.3       23 UNK        -0.2404 
    126 C126       -0.2898  -18.5570  -52.0181 C.3       23 UNK        -0.0205 
    127 H127       -3.2198  -12.8774  -49.0284 H         1 UNK         0.0600 
    128 H128       -3.2490  -11.3466  -48.1484 H         1 UNK         0.0600 
    129 H129       -3.8806  -12.8127  -47.3922 H         1 UNK         0.0600 
    130 H130       -1.1772  -13.7439  -49.1031 H         1 UNK         0.3000 
    131 H131        1.0306  -12.8680  -47.6392 H         1 UNK         0.0600 
    132 H132        1.0518  -14.0351  -49.8965 H         1 UNK         0.0800 
    133 H133        0.7442  -15.5466  -49.0798 H         1 UNK         0.0800 
    134 H134        4.5457  -15.9115  -50.1594 H         1 UNK         0.0800 
    135 H135        3.2761  -15.1482  -51.0816 H         1 UNK         0.0800 
    136 H136        1.3239  -16.4022  -51.7172 H         1 UNK         0.1150 
    137 H137        0.7974  -20.4225  -50.3364 H         1 UNK         0.1150 
    138 H138        3.9734  -18.0081  -48.7534 H         1 UNK         0.1150 
    139 H139        2.4160  -21.4264  -48.8691 H         1 UNK         0.0800 
    140 H140        3.9367  -20.6183  -48.5951 H         1 UNK         0.0800 
    141 H141        0.3332  -19.5169  -47.8346 H         1 UNK         0.0800 
    142 H142        0.2453  -19.3695  -46.1210 H         1 UNK         0.0800 
    143 H143        0.4235  -22.1296  -47.4139 H         1 UNK         0.0600 
    144 H144        0.0272  -21.2568  -44.7061 H         1 UNK         0.3000 
    145 H145       -1.5227  -24.2484  -43.5127 H         1 UNK         0.0600 
    146 H146        0.4699  -24.3964  -42.0440 H         1 UNK         0.0600 
    147 H147        1.3849  -23.3507  -43.1314 H         1 UNK         0.0600 
    148 H148        0.8751  -24.9495  -43.6609 H         1 UNK         0.0600 
    149 H149       -0.4616  -22.0605  -42.0897 H         1 UNK         0.3000 
    150 H150       -2.6960  -19.5134  -42.7697 H         1 UNK         0.0600 
    151 H151       -2.8969  -21.2294  -40.2376 H         1 UNK         0.0600 
    152 H152       -4.2433  -20.8008  -41.2864 H         1 UNK         0.0600 
    153 H153       -3.4003  -19.5454  -40.3943 H         1 UNK         0.0600 
    154 H154       -0.9186  -19.7513  -40.6062 H         1 UNK         0.3000 
    155 H155        1.1192  -18.3556  -40.8948 H         1 UNK         0.0600 
    156 H156        1.2259  -20.7659  -40.1410 H         1 UNK         0.0600 
    157 H157        2.8436  -20.1231  -40.3375 H         1 UNK         0.0600 
    158 H158        2.1653  -21.1819  -41.5705 H         1 UNK         0.0600 
    159 H159        2.0603  -18.8384  -43.5390 H         1 UNK         0.3000 
    160 H160        4.7759  -18.2792  -43.8914 H         1 UNK         0.0600 
    161 H161        2.6255  -16.1361  -44.2831 H         1 UNK         0.0600 
    162 H162        2.7104  -17.6937  -45.0998 H         1 UNK         0.0600 
    163 H163        3.8950  -16.4548  -45.4622 H         1 UNK         0.0600 
    164 H164        4.6479  -15.5807  -42.6296 H         1 UNK         0.3000 
    165 H165        8.0330  -15.4156  -42.1442 H         1 UNK         0.0600 
    166 H166        8.3303  -13.4335  -43.6245 H         1 UNK         0.0600 
    167 H167        8.4067  -14.9185  -44.5580 H         1 UNK         0.0600 
    168 H168        6.9493  -13.9339  -44.6023 H         1 UNK         0.0600 
    169 H169        5.9550  -13.3905  -42.4398 H         1 UNK         0.3000 
    170 H170        4.3550  -13.9456  -39.4124 H         1 UNK         0.0600 
    171 H171        6.4196  -11.7092  -39.7906 H         1 UNK         0.0600 
    172 H172        5.0466  -11.6767  -38.6826 H         1 UNK         0.0600 
    173 H173        6.3563  -12.8171  -38.4253 H         1 UNK         0.0600 
    174 H174        4.3121  -11.6662  -41.0949 H         1 UNK         0.3000 
    175 H175        2.4399  -11.3386  -42.3626 H         1 UNK         0.0600 
    176 H176        3.5176  -13.1678  -44.5780 H         1 UNK         0.0600 
    177 H177        2.7574  -11.6019  -44.8596 H         1 UNK         0.0600 
    178 H178        4.2687  -11.7009  -43.9689 H         1 UNK         0.0600 
    179 H179        1.0732  -13.3534  -43.9569 H         1 UNK         0.3000 
    180 H180       -1.5622  -13.9552  -41.7853 H         1 UNK         0.0600 
    181 H181       -3.1749  -12.6917  -43.2229 H         1 UNK         0.0600 
    182 H182       -1.8704  -11.6302  -43.7547 H         1 UNK         0.0600 
    183 H183       -2.3682  -11.6411  -42.0692 H         1 UNK         0.0600 
    184 H184       -1.2594  -13.8461  -44.7006 H         1 UNK         0.3000 
    185 H185        0.2914  -16.9539  -45.0064 H         1 UNK         0.0600 
    186 H186       -2.7375  -16.6498  -45.3655 H         1 UNK         0.0600 
    187 H187       -1.7168  -17.8385  -46.1748 H         1 UNK         0.0600 
    188 H188       -1.9427  -17.9120  -44.4355 H         1 UNK         0.0600 
    189 H189       -1.1608  -15.5699  -46.9703 H         1 UNK         0.3000 
    190 H190       -2.2789  -20.4710  -45.7470 H         1 UNK         0.3000 
    191 H191       -3.9025  -20.1565  -48.1015 H         1 UNK         0.0600 
    192 H192       -4.2198  -18.7120  -46.1221 H         1 UNK         0.0600 
    193 H193       -4.6497  -20.1033  -45.1282 H         1 UNK         0.0600 
    194 H194       -5.6948  -19.6037  -46.4507 H         1 UNK         0.0600 
    195 H195       -3.6707  -22.6402  -45.5508 H         1 UNK         0.3000 
    196 H196       -5.8266  -24.2781  -46.4185 H         1 UNK         0.0600 
    197 H197       -4.7656  -24.4474  -44.1671 H         1 UNK         0.0600 
    198 H198       -3.2861  -25.0655  -44.8977 H         1 UNK         0.0600 
    199 H199       -4.7704  -26.0018  -44.9883 H         1 UNK         0.0600 
    200 H200       -2.2865  -24.4935  -47.1410 H         1 UNK         0.3000 
    201 H201       -2.4358  -26.7322  -48.8598 H         1 UNK         0.0600 
    202 H202       -0.3334  -25.9872  -47.7992 H         1 UNK         0.0600 
    203 H203       -0.3645  -24.4781  -48.7106 H         1 UNK         0.0600 
    204 H204       -0.1331  -26.0115  -49.5440 H         1 UNK         0.0600 
    205 H205       -2.6154  -23.2265  -49.5884 H         1 UNK         0.3000 
    206 H206       -2.8651  -23.6303  -52.4572 H         1 UNK         0.0600 
    207 H207       -1.8080  -21.6026  -51.4264 H         1 UNK         0.0600 
    208 H208       -3.3674  -21.1382  -50.7467 H         1 UNK         0.0600 
    209 H209       -3.1333  -21.1861  -52.4929 H         1 UNK         0.0600 
    210 H210       -5.0591  -24.1621  -49.9639 H         1 UNK         0.3000 
    211 H211       -7.2359  -24.4457  -49.7470 H         1 UNK         0.0600 
    212 H212       -7.3161  -24.7392  -52.7980 H         1 UNK         0.0600 
    213 H213       -8.4944  -25.3628  -51.6547 H         1 UNK         0.0600 
    214 H214       -6.8646  -26.0186  -51.6718 H         1 UNK         0.0600 
    215 H215       -6.5927  -21.9125  -49.4508 H         1 UNK         0.3000 
    216 H216       -7.2179  -19.7966  -49.3718 H         1 UNK         0.0600 
    217 H217       -9.5880  -19.1734  -49.5276 H         1 UNK         0.0600 
    218 H218       -9.4468  -20.7133  -48.6956 H         1 UNK         0.0600 
    219 H219       -9.9798  -20.6611  -50.3757 H         1 UNK         0.0600 
    220 H220       -5.7683  -20.5625  -51.5256 H         1 UNK         0.3000 
    221 H221       -4.8240  -19.8491  -53.3681 H         1 UNK         0.0600 
    222 H222       -6.5565  -17.3375  -53.1957 H         1 UNK         0.0600 
    223 H223       -4.9999  -17.5731  -52.4004 H         1 UNK         0.0600 
    224 H224       -5.0955  -17.5372  -54.1534 H         1 UNK         0.0600 
    225 H225       -6.4053  -21.8013  -53.8404 H         1 UNK         0.3000 
    226 H226       -7.7163  -21.2267  -56.4684 H         1 UNK         0.0600 
    227 H227       -9.4921  -21.5651  -54.7330 H         1 UNK         0.0600 
    228 H228       -9.4757  -22.8689  -55.9130 H         1 UNK         0.0600 
    229 H229       -8.7869  -23.1247  -54.3147 H         1 UNK         0.0600 
    230 H230       -5.9888  -23.5570  -54.3567 H         1 UNK         0.3000 
    231 H231       -5.5702  -25.4487  -56.5912 H         1 UNK         0.0600 
    232 H232       -4.5153  -26.8367  -54.8291 H         1 UNK         0.0600 
    233 H233       -4.6980  -25.5441  -53.6541 H         1 UNK         0.0600 
    234 H234       -6.1219  -26.3339  -54.3331 H         1 UNK         0.0600 
    235 H235       -3.9985  -22.7375  -55.0922 H         1 UNK         0.3000 
    236 H236       -1.7880  -22.8298  -56.9234 H         1 UNK         0.0600 
    237 H237       -1.1938  -22.8368  -53.8979 H         1 UNK         0.0600 
    238 H238       -0.8707  -24.2014  -54.9671 H         1 UNK         0.0600 
    239 H239       -0.0151  -22.6848  -55.1894 H         1 UNK         0.0600 
    240 H240       -0.5552  -20.7149  -56.6466 H         1 UNK         0.3000 
    241 H241       -0.4360  -18.5213  -56.5660 H         1 UNK         0.0600 
    242 H242       -3.8158  -18.2658  -58.4160 H         1 UNK         0.3800 
    243 H243       -2.9009  -19.7129  -58.0835 H         1 UNK         0.3800 
    244 H244       -2.2004  -18.6409  -54.0713 H         1 UNK         0.0800 
    245 H245       -1.2604  -17.2600  -54.5729 H         1 UNK         0.0800 
    246 H246       -0.9695  -19.3171  -51.6313 H         1 UNK         0.0800 
    247 H247       -0.8425  -17.6163  -52.0021 H         1 UNK         0.0800 
@<TRIPOS>BOND
     1    1    2 1    
     2    1  127 1    
     3    1  128 1    
     4    1  129 1    
     5    2    3 2    
     6    2    4 am   BACKBONE|DICT|INTERRES
     7    4    5 1    
     8    4  130 1    
     9    5    6 1    
    10    5   65 1    
    11    5  131 1    
    12    6    7 1    
    13    6  132 1    
    14    6  133 1    
    15    7    8 1    
    16    8    9 1    
    17    8  134 1    
    18    8  135 1    
    19    9   10 ar   
    20    9   14 ar   
    21   10   11 ar   
    22   10  136 1    
    23   11   12 ar   
    24   11  126 1    
    25   12   13 ar   
    26   12  137 1    
    27   13   14 ar   
    28   13   15 1    
    29   14  138 1    
    30   15   16 1    
    31   15  139 1    
    32   15  140 1    
    33   16   17 1    
    34   17   18 1    
    35   17  141 1    
    36   17  142 1    
    37   18   19 1    
    38   18   67 1    
    39   18  143 1    
    40   19   20 am   BACKBONE|DICT|INTERRES
    41   19  144 1    
    42   20   21 2    
    43   20   22 1    
    44   22   23 1    
    45   22   24 1    
    46   22  145 1    
    47   23  146 1    
    48   23  147 1    
    49   23  148 1    
    50   24   25 am   BACKBONE|DICT|INTERRES
    51   24  149 1    
    52   25   26 2    
    53   25   27 1    
    54   27   28 1    
    55   27   29 1    
    56   27  150 1    
    57   28  151 1    
    58   28  152 1    
    59   28  153 1    
    60   29   30 am   BACKBONE|DICT|INTERRES
    61   29  154 1    
    62   30   31 2    
    63   30   32 1    
    64   32   33 1    
    65   32   34 1    
    66   32  155 1    
    67   33  156 1    
    68   33  157 1    
    69   33  158 1    
    70   34   35 am   BACKBONE|DICT|INTERRES
    71   34  159 1    
    72   35   36 2    
    73   35   37 1    
    74   37   38 1    
    75   37   39 1    
    76   37  160 1    
    77   38  161 1    
    78   38  162 1    
    79   38  163 1    
    80   39   40 am   BACKBONE|DICT|INTERRES
    81   39  164 1    
    82   40   41 2    
    83   40   42 1    
    84   42   43 1    
    85   42   44 1    
    86   42  165 1    
    87   43  166 1    
    88   43  167 1    
    89   43  168 1    
    90   44   45 am   BACKBONE|DICT|INTERRES
    91   44  169 1    
    92   45   46 2    
    93   45   47 1    
    94   47   48 1    
    95   47   49 1    
    96   47  170 1    
    97   48  171 1    
    98   48  172 1    
    99   48  173 1    
   100   49   50 am   BACKBONE|DICT|INTERRES
   101   49  174 1    
   102   50   51 2    
   103   50   52 1    
   104   52   53 1    
   105   52   54 1    
   106   52  175 1    
   107   53  176 1    
   108   53  177 1    
   109   53  178 1    
   110   54   55 am   BACKBONE|DICT|INTERRES
   111   54  179 1    
   112   55   56 2    
   113   55   57 1    
   114   57   58 1    
   115   57   59 1    
   116   57  180 1    
   117   58  181 1    
   118   58  182 1    
   119   58  183 1    
   120   59   60 am   BACKBONE|DICT|INTERRES
   121   59  184 1    
   122   60   61 2    
   123   60   62 1    
   124   62   63 1    
   125   62   64 1    
   126   62  185 1    
   127   63  186 1    
   128   63  187 1    
   129   63  188 1    
   130   64   65 am   BACKBONE|DICT|INTERRES
   131   64  189 1    
   132   65   66 2    
   133   67   68 2    
   134   67   69 am   BACKBONE|DICT|INTERRES
   135   69   70 1    
   136   69  190 1    
   137   70   71 1    
   138   70   72 1    
   139   70  191 1    
   140   71  192 1    
   141   71  193 1    
   142   71  194 1    
   143   72   73 2    
   144   72   74 am   BACKBONE|DICT|INTERRES
   145   74   75 1    
   146   74  195 1    
   147   75   76 1    
   148   75   77 1    
   149   75  196 1    
   150   76  197 1    
   151   76  198 1    
   152   76  199 1    
   153   77   78 2    
   154   77   79 am   BACKBONE|DICT|INTERRES
   155   79   80 1    
   156   79  200 1    
   157   80   81 1    
   158   80   82 1    
   159   80  201 1    
   160   81  202 1    
   161   81  203 1    
   162   81  204 1    
   163   82   83 2    
   164   82   84 am   BACKBONE|DICT|INTERRES
   165   84   85 1    
   166   84  205 1    
   167   85   86 1    
   168   85   87 1    
   169   85  206 1    
   170   86  207 1    
   171   86  208 1    
   172   86  209 1    
   173   87   88 2    
   174   87   89 am   BACKBONE|DICT|INTERRES
   175   89   90 1    
   176   89  210 1    
   177   90   91 1    
   178   90   92 1    
   179   90  211 1    
   180   91  212 1    
   181   91  213 1    
   182   91  214 1    
   183   92   93 2    
   184   92   94 am   BACKBONE|DICT|INTERRES
   185   94   95 1    
   186   94  215 1    
   187   95   96 1    
   188   95   97 1    
   189   95  216 1    
   190   96  217 1    
   191   96  218 1    
   192   96  219 1    
   193   97   98 2    
   194   97   99 am   BACKBONE|DICT|INTERRES
   195   99  100 1    
   196   99  220 1    
   197  100  101 1    
   198  100  102 1    
   199  100  221 1    
   200  101  222 1    
   201  101  223 1    
   202  101  224 1    
   203  102  103 2    
   204  102  104 am   BACKBONE|DICT|INTERRES
   205  104  105 1    
   206  104  225 1    
   207  105  106 1    
   208  105  107 1    
   209  105  226 1    
   210  106  227 1    
   211  106  228 1    
   212  106  229 1    
   213  107  108 2    
   214  107  109 am   BACKBONE|DICT|INTERRES
   215  109  110 1    
   216  109  230 1    
   217  110  111 1    
   218  110  112 1    
   219  110  231 1    
   220  111  232 1    
   221  111  233 1    
   222  111  234 1    
   223  112  113 2    
   224  112  114 am   BACKBONE|DICT|INTERRES
   225  114  115 1    
   226  114  235 1    
   227  115  116 1    
   228  115  117 1    
   229  115  236 1    
   230  116  237 1    
   231  116  238 1    
   232  116  239 1    
   233  117  118 2    
   234  117  119 am   BACKBONE|DICT|INTERRES
   235  119  120 1    
   236  119  240 1    
   237  120  121 1    
   238  120  124 1    
   239  120  241 1    
   240  121  122 am   BACKBONE|DICT|INTERRES
   241  121  123 2    
   242  122  242 1    
   243  122  243 1    
   244  124  125 1    
   245  124  244 1    
   246  124  245 1    
   247  125  126 1    
   248  126  246 1    
   249  126  247 1    
@<TRIPOS>SUBSTRUCTURE
     1 UNK         1 GROUP             0       ****    0 ROOT    
