@<TRIPOS>MOLECULE
3R540
247   249    1
SMALL
USER_CHARGES


@<TRIPOS>ATOM
      1 CA          0.5144  -13.5101  -49.3839 C.3       0 UNK        -0.1800 
      2 C           1.4501  -13.3765  -48.1924 C.2       0 UNK         0.5000 
      3 O           2.6604  -13.5448  -48.3414 O.2       0 UNK        -0.5000 
      4 N           0.8962  -13.0669  -47.0117 N.am      1 UNK        -0.5000 
      5 CA          1.5865  -12.9907  -45.7155 C.3       1 UNK         0.1400 
      6 C6          0.6054  -12.6671  -44.5619 C.3       23 UNK        -0.0398 
      7 S7         -0.3697  -14.1111  -44.0264 S.3       23 UNK        -0.2404 
      8 C8         -1.8773  -14.0064  -45.0525 C.3       23 UNK        -0.0205 
      9 C9         -1.9174  -14.9256  -46.2762 C.ar      23 UNK        -0.0193 
     10 C10        -3.1060  -14.9910  -47.0098 C.ar      23 UNK        -0.1150 
     11 C11        -3.2254  -15.8425  -48.1118 C.ar      23 UNK        -0.0193 
     12 C12        -2.1244  -16.6004  -48.5164 C.ar      23 UNK        -0.1150 
     13 C13        -0.9300  -16.5507  -47.7957 C.ar      23 UNK        -0.0193 
     14 C14        -0.8357  -15.7232  -46.6752 C.ar      23 UNK        -0.1150 
     15 C15         0.2544  -17.4087  -48.2087 C.3       23 UNK        -0.0205 
     16 S16         0.3942  -18.8948  -47.1690 S.3       23 UNK        -0.2404 
     17 C17        -1.1369  -19.7711  -47.6276 C.3       23 UNK        -0.0398 
     18 CA         -1.1225  -21.2414  -47.1544 C.3       11 UNK         0.1400 
     19 N          -1.2644  -21.3510  -45.6994 N.am      11 UNK        -0.5000 
     20 C          -1.1740  -22.4901  -44.9996 C.2       10 UNK         0.5000 
     21 O          -0.9298  -23.5863  -45.4999 O.2       10 UNK        -0.5000 
     22 CA         -1.4690  -22.4015  -43.4943 C.3       10 UNK         0.1400 
     23 CB         -0.2843  -21.7945  -42.7259 C.3       10 UNK        -0.1800 
     24 N          -2.6864  -21.6367  -43.2281 N.am      10 UNK        -0.5000 
     25 C          -3.9206  -22.0446  -43.5580 C.2       9 UNK         0.5000 
     26 O          -4.1652  -23.1239  -44.0962 O.2       9 UNK        -0.5000 
     27 CA         -5.0725  -21.0650  -43.2711 C.3       9 UNK         0.1400 
     28 CB         -5.5504  -21.2018  -41.8180 C.3       9 UNK        -0.1800 
     29 N          -4.7098  -19.6722  -43.5332 N.am      9 UNK        -0.5000 
     30 C          -4.4116  -19.1824  -44.7449 C.2       8 UNK         0.5000 
     31 O          -4.4192  -19.8526  -45.7762 O.2       8 UNK        -0.5000 
     32 CA         -3.9712  -17.7093  -44.7928 C.3       8 UNK         0.1400 
     33 CB         -5.1924  -16.7784  -44.7339 C.3       8 UNK        -0.1800 
     34 N          -3.0360  -17.3541  -43.7204 N.am      8 UNK        -0.5000 
     35 C          -1.8417  -17.9313  -43.5399 C.2       7 UNK         0.5000 
     36 O          -1.4187  -18.8646  -44.2275 O.2       7 UNK        -0.5000 
     37 CA         -0.9942  -17.4211  -42.3694 C.3       7 UNK         0.1400 
     38 CB         -1.3905  -18.1223  -41.0587 C.3       7 UNK        -0.1800 
     39 N           0.3978  -17.7096  -42.6840 N.am      7 UNK        -0.5000 
     40 C           1.4695  -17.0442  -42.2457 C.2       6 UNK         0.5000 
     41 O           1.4108  -16.1103  -41.4432 O.2       6 UNK        -0.5000 
     42 CA          2.8399  -17.4988  -42.7850 C.3       6 UNK         0.1400 
     43 CB          2.7524  -18.4899  -43.9658 C.3       6 UNK        -0.1800 
     44 N           3.6072  -16.3370  -43.2235 N.am      6 UNK        -0.5000 
     45 C           4.6993  -15.8424  -42.6272 C.2       5 UNK         0.5000 
     46 O           5.1581  -16.2756  -41.5682 O.2       5 UNK        -0.5000 
     47 CA          5.4075  -14.6815  -43.3673 C.3       5 UNK         0.1400 
     48 CB          6.8810  -14.5050  -42.9456 C.3       5 UNK        -0.1800 
     49 N           5.2949  -14.7782  -44.8311 N.am      5 UNK        -0.5000 
     50 C           5.7047  -15.7997  -45.6024 C.2       4 UNK         0.5000 
     51 O           6.3318  -16.7731  -45.1831 O.2       4 UNK        -0.5000 
     52 CA          5.3106  -15.7569  -47.0880 C.3       4 UNK         0.1400 
     53 CB          3.9514  -16.4460  -47.2904 C.3       4 UNK        -0.1800 
     54 N           5.2470  -14.4076  -47.6477 N.am      4 UNK        -0.5000 
     55 C           6.3188  -13.6688  -47.9660 C.2       3 UNK         0.5000 
     56 O           7.4786  -14.0095  -47.7303 O.2       3 UNK        -0.5000 
     57 CA          6.0545  -12.3369  -48.6864 C.3       3 UNK         0.1400 
     58 CB          5.7395  -12.5832  -50.1707 C.3       3 UNK        -0.1800 
     59 N           4.9386  -11.6179  -48.0759 N.am      3 UNK        -0.5000 
     60 C           5.0626  -10.5332  -47.2992 C.2       2 UNK         0.5000 
     61 O           6.1382   -9.9873  -47.0494 O.2       2 UNK        -0.5000 
     62 CA          3.7691   -9.9536  -46.6888 C.3       2 UNK         0.1400 
     63 CB          3.2391   -8.7991  -47.5528 C.3       2 UNK        -0.1800 
     64 N           2.7028  -10.9420  -46.5127 N.am      2 UNK        -0.5000 
     65 C           2.7720  -12.0042  -45.6986 C.2       1 UNK         0.5000 
     66 O           3.7391  -12.2496  -44.9786 O.2       1 UNK        -0.5000 
     67 C          -2.1881  -22.0647  -47.9044 C.2       11 UNK         0.5000 
     68 O          -1.8457  -22.7609  -48.8613 O.2       11 UNK        -0.5000 
     69 N          -3.4446  -22.0028  -47.4403 N.am      12 UNK        -0.5000 
     70 CA         -4.5625  -22.7823  -47.9675 C.3       12 UNK         0.1400 
     71 CB         -5.8712  -22.3273  -47.3030 C.3       12 UNK        -0.1800 
     72 C          -4.3640  -24.2991  -47.8023 C.2       12 UNK         0.5000 
     73 O          -4.5615  -25.0360  -48.7695 O.2       12 UNK        -0.5000 
     74 N          -3.9556  -24.7261  -46.5978 N.am      13 UNK        -0.5000 
     75 CA         -3.6932  -26.1243  -46.2491 C.3       13 UNK         0.1400 
     76 CB         -3.5285  -26.2523  -44.7273 C.3       13 UNK        -0.1800 
     77 C          -2.4692  -26.7110  -46.9745 C.2       13 UNK         0.5000 
     78 O          -2.5199  -27.8592  -47.4168 O.2       13 UNK        -0.5000 
     79 N          -1.4024  -25.9103  -47.1056 N.am      14 UNK        -0.5000 
     80 CA         -0.1847  -26.2557  -47.8446 C.3       14 UNK         0.1400 
     81 CB          0.9319  -25.2736  -47.4563 C.3       14 UNK        -0.1800 
     82 C          -0.3771  -26.2556  -49.3738 C.2       14 UNK         0.5000 
     83 O           0.4715  -26.7959  -50.0842 O.2       14 UNK        -0.5000 
     84 N          -1.4710  -25.6385  -49.8429 N.am      15 UNK        -0.5000 
     85 CA         -1.8357  -25.3986  -51.2382 C.3       15 UNK         0.1400 
     86 CB         -2.1243  -26.7227  -51.9766 C.3       15 UNK        -0.1800 
     87 C          -0.8083  -24.5012  -51.9549 C.2       15 UNK         0.5000 
     88 O          -0.3837  -24.8055  -53.0718 O.2       15 UNK        -0.5000 
     89 N          -0.4181  -23.4094  -51.2821 N.am      16 UNK        -0.5000 
     90 CA          0.4640  -22.3713  -51.8089 C.3       16 UNK         0.1400 
     91 CB          0.8492  -21.4091  -50.6748 C.3       16 UNK        -0.1800 
     92 C          -0.2331  -21.6288  -52.9616 C.2       16 UNK         0.5000 
     93 O          -1.3017  -21.0546  -52.7509 O.2       16 UNK        -0.5000 
     94 N           0.3529  -21.7123  -54.1629 N.am      17 UNK        -0.5000 
     95 CA         -0.1699  -21.2826  -55.4683 C.3       17 UNK         0.1400 
     96 CB         -0.5461  -19.7877  -55.4891 C.3       17 UNK        -0.1800 
     97 C          -1.3228  -22.1651  -55.9913 C.2       17 UNK         0.5000 
     98 O          -1.2951  -22.5556  -57.1593 O.2       17 UNK        -0.5000 
     99 N          -2.2899  -22.4916  -55.1290 N.am      18 UNK        -0.5000 
    100 CA        -3.4101  -23.3892  -55.3860 C.3       18 UNK         0.1400 
    101 CB        -4.4853  -22.6737  -56.2261 C.3       18 UNK        -0.1800 
    102 C         -3.9906  -23.8572  -54.0447 C.2       18 UNK         0.5000 
    103 O         -3.7799  -23.2046  -53.0192 O.2       18 UNK        -0.5000 
    104 N         -4.7400  -24.9658  -54.0715 N.am      19 UNK        -0.5000 
    105 CA        -5.5145  -25.4583  -52.9323 C.3       19 UNK         0.1400 
    106 CB        -6.0706  -26.8533  -53.2563 C.3       19 UNK        -0.1800 
    107 C         -6.6394  -24.4653  -52.5909 C.2       19 UNK         0.5000 
    108 O         -7.5099  -24.2295  -53.4314 O.2       19 UNK        -0.5000 
    109 N         -6.5642  -23.8776  -51.3886 N.am      20 UNK        -0.5000 
    110 CA        -7.4340  -22.8085  -50.8855 C.3       20 UNK         0.1400 
    111 CB        -8.8629  -23.3336  -50.6348 C.3       20 UNK        -0.1800 
    112 C         -7.3951  -21.5316  -51.7556 C.2       20 UNK         0.5000 
    113 O         -8.4384  -20.9256  -52.0113 O.2       20 UNK        -0.5000 
    114 N         -6.1823  -21.1320  -52.1753 N.am      21 UNK        -0.5000 
    115 CA        -5.8992  -19.9627  -53.0220 C.3       21 UNK         0.1400 
    116 CB        -4.3812  -19.8384  -53.2231 C.3       21 UNK        -0.1800 
    117 C         -6.4572  -18.6206  -52.5058 C.2       21 UNK         0.5000 
    118 O         -6.7151  -17.7252  -53.3116 O.2       21 UNK        -0.5000 
    119 N         -6.6431  -18.5092  -51.1851 N.am      22 UNK        -0.5000 
    120 CA        -7.2764  -17.3623  -50.5172 C.3       22 UNK         0.1400 
    121 C         -8.8013  -17.2080  -50.8023 C.2       22 UNK         0.5000 
    122 N         -9.4889  -18.2092  -51.3417 N.am      22 UNK        -0.7600 
    123 O         -9.3712  -16.1554  -50.5284 O.2       22 UNK        -0.5000 
    124 C124       -7.0201  -17.3603  -48.9877 C.3       23 UNK        -0.0398 
    125 S125       -5.2783  -17.6233  -48.5157 S.3       23 UNK        -0.2404 
    126 C126       -4.5555  -15.9833  -48.8338 C.3       23 UNK        -0.0205 
    127 H127        0.7506  -12.7554  -50.1338 H         1 UNK         0.0600 
    128 H128       -0.5301  -13.3929  -49.0938 H         1 UNK         0.0600 
    129 H129        0.6294  -14.4940  -49.8385 H         1 UNK         0.0600 
    130 H130       -0.1054  -12.9484  -46.9707 H         1 UNK         0.3000 
    131 H131        2.0183  -13.9765  -45.5319 H         1 UNK         0.0600 
    132 H132        1.1482  -12.3408  -43.6720 H         1 UNK         0.0800 
    133 H133       -0.0525  -11.8367  -44.8226 H         1 UNK         0.0800 
    134 H134       -2.0432  -12.9762  -45.3689 H         1 UNK         0.0800 
    135 H135       -2.7212  -14.2633  -44.4110 H         1 UNK         0.0800 
    136 H136       -3.9560  -14.4000  -46.6988 H         1 UNK         0.1150 
    137 H137       -2.2139  -17.2590  -49.3688 H         1 UNK         0.1150 
    138 H138        0.0921  -15.7169  -46.1237 H         1 UNK         0.1150 
    139 H139        0.1766  -17.6999  -49.2573 H         1 UNK         0.0800 
    140 H140        1.1710  -16.8252  -48.1220 H         1 UNK         0.0800 
    141 H141       -1.2477  -19.7074  -48.7111 H         1 UNK         0.0800 
    142 H142       -1.9912  -19.2408  -47.2025 H         1 UNK         0.0800 
    143 H143       -0.1556  -21.6755  -47.4182 H         1 UNK         0.0600 
    144 H144       -1.4374  -20.4816  -45.2000 H         1 UNK         0.3000 
    145 H145       -1.6226  -23.4178  -43.1250 H         1 UNK         0.0600 
    146 H146       -0.4794  -21.7725  -41.6537 H         1 UNK         0.0600 
    147 H147        0.6194  -22.3855  -42.8792 H         1 UNK         0.0600 
    148 H148       -0.0645  -20.7771  -43.0473 H         1 UNK         0.0600 
    149 H149       -2.5683  -20.7091  -42.8506 H         1 UNK         0.3000 
    150 H150       -5.9033  -21.3264  -43.9297 H         1 UNK         0.0600 
    151 H151       -5.8439  -22.2295  -41.5995 H         1 UNK         0.0600 
    152 H152       -6.4181  -20.5700  -41.6270 H         1 UNK         0.0600 
    153 H153       -4.7700  -20.9251  -41.1079 H         1 UNK         0.0600 
    154 H154       -4.6664  -19.0524  -42.7381 H         1 UNK         0.3000 
    155 H155       -3.4596  -17.5538  -45.7442 H         1 UNK         0.0600 
    156 H156       -5.7417  -16.8901  -43.7985 H         1 UNK         0.0600 
    157 H157       -4.8998  -15.7331  -44.8249 H         1 UNK         0.0600 
    158 H158       -5.8849  -16.9927  -45.5486 H         1 UNK         0.0600 
    159 H159       -3.3196  -16.6068  -43.1041 H         1 UNK         0.3000 
    160 H160       -1.1378  -16.3441  -42.2700 H         1 UNK         0.0600 
    161 H161       -1.2566  -19.2027  -41.1236 H         1 UNK         0.0600 
    162 H162       -2.4358  -17.9331  -40.8122 H         1 UNK         0.0600 
    163 H163       -0.7908  -17.7620  -40.2227 H         1 UNK         0.0600 
    164 H164        0.5075  -18.4247  -43.3927 H         1 UNK         0.3000 
    165 H165        3.3491  -18.0037  -41.9620 H         1 UNK         0.0600 
    166 H166        3.7476  -18.7579  -44.3216 H         1 UNK         0.0600 
    167 H167        2.2605  -19.4191  -43.6756 H         1 UNK         0.0600 
    168 H168        2.2065  -18.0677  -44.8107 H         1 UNK         0.0600 
    169 H169        3.2823  -15.8841  -44.0634 H         1 UNK         0.3000 
    170 H170        4.8754  -13.7751  -43.0767 H         1 UNK         0.0600 
    171 H171        6.9599  -14.2896  -41.8795 H         1 UNK         0.0600 
    172 H172        7.4699  -15.4012  -43.1424 H         1 UNK         0.0600 
    173 H173        7.3452  -13.6749  -43.4781 H         1 UNK         0.0600 
    174 H174        4.8142  -14.0010  -45.2700 H         1 UNK         0.3000 
    175 H175        6.0607  -16.3228  -47.6448 H         1 UNK         0.0600 
    176 H176        3.6877  -16.4913  -48.3472 H         1 UNK         0.0600 
    177 H177        3.1506  -15.9212  -46.7685 H         1 UNK         0.0600 
    178 H178        3.9695  -17.4707  -46.9165 H         1 UNK         0.0600 
    179 H179        4.3211  -14.0701  -47.9030 H         1 UNK         0.3000 
    180 H180        6.9699  -11.7438  -48.6340 H         1 UNK         0.0600 
    181 H181        4.8269  -13.1668  -50.3001 H         1 UNK         0.0600 
    182 H182        6.5501  -13.1268  -50.6576 H         1 UNK         0.0600 
    183 H183        5.6120  -11.6419  -50.7056 H         1 UNK         0.0600 
    184 H184        4.0193  -12.0269  -48.2000 H         1 UNK         0.3000 
    185 H185        4.0224   -9.5561  -45.7037 H         1 UNK         0.0600 
    186 H186        3.9990   -8.0273  -47.6830 H         1 UNK         0.0600 
    187 H187        2.9461   -9.1421  -48.5460 H         1 UNK         0.0600 
    188 H188        2.3729   -8.3251  -47.0909 H         1 UNK         0.0600 
    189 H189        1.8781  -10.8281  -47.0838 H         1 UNK         0.3000 
    190 H190       -3.6613  -21.3575  -46.6846 H         1 UNK         0.3000 
    191 H191       -4.6332  -22.5736  -49.0368 H         1 UNK         0.0600 
    192 H192       -5.8173  -22.4034  -46.2172 H         1 UNK         0.0600 
    193 H193       -6.7153  -22.9368  -47.6271 H         1 UNK         0.0600 
    194 H194       -6.0987  -21.2906  -47.5527 H         1 UNK         0.0600 
    195 H195       -3.8474  -24.0500  -45.8477 H         1 UNK         0.3000 
    196 H196       -4.5650  -26.7113  -46.5455 H         1 UNK         0.0600 
    197 H197       -3.3360  -27.2863  -44.4388 H         1 UNK         0.0600 
    198 H198       -4.4307  -25.9322  -44.2058 H         1 UNK         0.0600 
    199 H199       -2.6982  -25.6472  -44.3608 H         1 UNK         0.0600 
    200 H200       -1.4097  -24.9991  -46.6524 H         1 UNK         0.3000 
    201 H201        0.1244  -27.2608  -47.5507 H         1 UNK         0.0600 
    202 H202        1.1249  -25.2992  -46.3837 H         1 UNK         0.0600 
    203 H203        0.6748  -24.2486  -47.7273 H         1 UNK         0.0600 
    204 H204        1.8669  -25.5218  -47.9600 H         1 UNK         0.0600 
    205 H205       -2.0767  -25.2000  -49.1618 H         1 UNK         0.3000 
    206 H206       -2.7634  -24.8282  -51.2022 H         1 UNK         0.0600 
    207 H207       -2.4975  -26.5346  -52.9835 H         1 UNK         0.0600 
    208 H208       -1.2307  -27.3394  -52.0732 H         1 UNK         0.0600 
    209 H209       -2.8814  -27.3071  -51.4537 H         1 UNK         0.0600 
    210 H210       -0.8675  -23.2107  -50.3910 H         1 UNK         0.3000 
    211 H211        1.3737  -22.8498  -52.1775 H         1 UNK         0.0600 
    212 H212       -0.0244  -20.8941  -50.2771 H         1 UNK         0.0600 
    213 H213        1.5458  -20.6481  -51.0280 H         1 UNK         0.0600 
    214 H214        1.3300  -21.9377  -49.8514 H         1 UNK         0.0600 
    215 H215        1.2093  -22.2462  -54.2191 H         1 UNK         0.3000 
    216 H216        0.6598  -21.4122  -56.1651 H         1 UNK         0.0600 
    217 H217       -0.7783  -19.4639  -56.5043 H         1 UNK         0.0600 
    218 H218        0.2755  -19.1682  -55.1297 H         1 UNK         0.0600 
    219 H219       -1.4224  -19.5739  -54.8768 H         1 UNK         0.0600 
    220 H220       -2.2339  -22.1445  -54.1737 H         1 UNK         0.3000 
    221 H221       -3.0440  -24.2657  -55.9245 H         1 UNK         0.0600 
    222 H222       -4.8649  -21.7848  -55.7216 H         1 UNK         0.0600 
    223 H223       -4.0949  -22.3656  -57.1959 H         1 UNK         0.0600 
    224 H224       -5.3361  -23.3290  -56.4164 H         1 UNK         0.0600 
    225 H225       -4.8990  -25.4306  -54.9535 H         1 UNK         0.3000 
    226 H226       -4.8505  -25.5538  -52.0717 H         1 UNK         0.0600 
    227 H227       -5.2657  -27.5619  -53.4525 H         1 UNK         0.0600 
    228 H228       -6.6506  -27.2441  -52.4193 H         1 UNK         0.0600 
    229 H229       -6.7241  -26.8362  -54.1295 H         1 UNK         0.0600 
    230 H230       -5.8065  -24.1493  -50.7759 H         1 UNK         0.3000 
    231 H231       -7.0264  -22.5133  -49.9203 H         1 UNK         0.0600 
    232 H232       -9.4748  -22.5794  -50.1386 H         1 UNK         0.0600 
    233 H233       -8.8517  -24.2140  -49.9924 H         1 UNK         0.0600 
    234 H234       -9.3665  -23.6021  -51.5639 H         1 UNK         0.0600 
    235 H235       -5.3856  -21.7183  -51.9629 H         1 UNK         0.3000 
    236 H236       -6.3599  -20.1493  -53.9939 H         1 UNK         0.0600 
    237 H237       -3.9776  -20.7015  -53.7464 H         1 UNK         0.0600 
    238 H238       -4.1303  -18.9615  -53.8214 H         1 UNK         0.0600 
    239 H239       -3.8547  -19.7483  -52.2721 H         1 UNK         0.0600 
    240 H240       -6.3812  -19.2819  -50.5927 H         1 UNK         0.3000 
    241 H241       -6.8059  -16.4648  -50.9231 H         1 UNK         0.0600 
    242 H242       -9.0413  -19.0902  -51.5761 H         1 UNK         0.3800 
    243 H243      -10.4731  -18.0911  -51.5221 H         1 UNK         0.3800 
    244 H244       -7.3655  -16.4261  -48.5414 H         1 UNK         0.0800 
    245 H245       -7.6020  -18.1515  -48.5115 H         1 UNK         0.0800 
    246 H246       -4.4104  -15.8501  -49.9067 H         1 UNK         0.0800 
    247 H247       -5.2488  -15.2056  -48.5103 H         1 UNK         0.0800 
@<TRIPOS>BOND
     1    1    2 1    
     2    1  127 1    
     3    1  128 1    
     4    1  129 1    
     5    2    3 2    
     6    2    4 am   BACKBONE|DICT|INTERRES
     7    4    5 1    
     8    4  130 1    
     9    5    6 1    
    10    5   65 1    
    11    5  131 1    
    12    6    7 1    
    13    6  132 1    
    14    6  133 1    
    15    7    8 1    
    16    8    9 1    
    17    8  134 1    
    18    8  135 1    
    19    9   10 ar   
    20    9   14 ar   
    21   10   11 ar   
    22   10  136 1    
    23   11   12 ar   
    24   11  126 1    
    25   12   13 ar   
    26   12  137 1    
    27   13   14 ar   
    28   13   15 1    
    29   14  138 1    
    30   15   16 1    
    31   15  139 1    
    32   15  140 1    
    33   16   17 1    
    34   17   18 1    
    35   17  141 1    
    36   17  142 1    
    37   18   19 1    
    38   18   67 1    
    39   18  143 1    
    40   19   20 am   BACKBONE|DICT|INTERRES
    41   19  144 1    
    42   20   21 2    
    43   20   22 1    
    44   22   23 1    
    45   22   24 1    
    46   22  145 1    
    47   23  146 1    
    48   23  147 1    
    49   23  148 1    
    50   24   25 am   BACKBONE|DICT|INTERRES
    51   24  149 1    
    52   25   26 2    
    53   25   27 1    
    54   27   28 1    
    55   27   29 1    
    56   27  150 1    
    57   28  151 1    
    58   28  152 1    
    59   28  153 1    
    60   29   30 am   BACKBONE|DICT|INTERRES
    61   29  154 1    
    62   30   31 2    
    63   30   32 1    
    64   32   33 1    
    65   32   34 1    
    66   32  155 1    
    67   33  156 1    
    68   33  157 1    
    69   33  158 1    
    70   34   35 am   BACKBONE|DICT|INTERRES
    71   34  159 1    
    72   35   36 2    
    73   35   37 1    
    74   37   38 1    
    75   37   39 1    
    76   37  160 1    
    77   38  161 1    
    78   38  162 1    
    79   38  163 1    
    80   39   40 am   BACKBONE|DICT|INTERRES
    81   39  164 1    
    82   40   41 2    
    83   40   42 1    
    84   42   43 1    
    85   42   44 1    
    86   42  165 1    
    87   43  166 1    
    88   43  167 1    
    89   43  168 1    
    90   44   45 am   BACKBONE|DICT|INTERRES
    91   44  169 1    
    92   45   46 2    
    93   45   47 1    
    94   47   48 1    
    95   47   49 1    
    96   47  170 1    
    97   48  171 1    
    98   48  172 1    
    99   48  173 1    
   100   49   50 am   BACKBONE|DICT|INTERRES
   101   49  174 1    
   102   50   51 2    
   103   50   52 1    
   104   52   53 1    
   105   52   54 1    
   106   52  175 1    
   107   53  176 1    
   108   53  177 1    
   109   53  178 1    
   110   54   55 am   BACKBONE|DICT|INTERRES
   111   54  179 1    
   112   55   56 2    
   113   55   57 1    
   114   57   58 1    
   115   57   59 1    
   116   57  180 1    
   117   58  181 1    
   118   58  182 1    
   119   58  183 1    
   120   59   60 am   BACKBONE|DICT|INTERRES
   121   59  184 1    
   122   60   61 2    
   123   60   62 1    
   124   62   63 1    
   125   62   64 1    
   126   62  185 1    
   127   63  186 1    
   128   63  187 1    
   129   63  188 1    
   130   64   65 am   BACKBONE|DICT|INTERRES
   131   64  189 1    
   132   65   66 2    
   133   67   68 2    
   134   67   69 am   BACKBONE|DICT|INTERRES
   135   69   70 1    
   136   69  190 1    
   137   70   71 1    
   138   70   72 1    
   139   70  191 1    
   140   71  192 1    
   141   71  193 1    
   142   71  194 1    
   143   72   73 2    
   144   72   74 am   BACKBONE|DICT|INTERRES
   145   74   75 1    
   146   74  195 1    
   147   75   76 1    
   148   75   77 1    
   149   75  196 1    
   150   76  197 1    
   151   76  198 1    
   152   76  199 1    
   153   77   78 2    
   154   77   79 am   BACKBONE|DICT|INTERRES
   155   79   80 1    
   156   79  200 1    
   157   80   81 1    
   158   80   82 1    
   159   80  201 1    
   160   81  202 1    
   161   81  203 1    
   162   81  204 1    
   163   82   83 2    
   164   82   84 am   BACKBONE|DICT|INTERRES
   165   84   85 1    
   166   84  205 1    
   167   85   86 1    
   168   85   87 1    
   169   85  206 1    
   170   86  207 1    
   171   86  208 1    
   172   86  209 1    
   173   87   88 2    
   174   87   89 am   BACKBONE|DICT|INTERRES
   175   89   90 1    
   176   89  210 1    
   177   90   91 1    
   178   90   92 1    
   179   90  211 1    
   180   91  212 1    
   181   91  213 1    
   182   91  214 1    
   183   92   93 2    
   184   92   94 am   BACKBONE|DICT|INTERRES
   185   94   95 1    
   186   94  215 1    
   187   95   96 1    
   188   95   97 1    
   189   95  216 1    
   190   96  217 1    
   191   96  218 1    
   192   96  219 1    
   193   97   98 2    
   194   97   99 am   BACKBONE|DICT|INTERRES
   195   99  100 1    
   196   99  220 1    
   197  100  101 1    
   198  100  102 1    
   199  100  221 1    
   200  101  222 1    
   201  101  223 1    
   202  101  224 1    
   203  102  103 2    
   204  102  104 am   BACKBONE|DICT|INTERRES
   205  104  105 1    
   206  104  225 1    
   207  105  106 1    
   208  105  107 1    
   209  105  226 1    
   210  106  227 1    
   211  106  228 1    
   212  106  229 1    
   213  107  108 2    
   214  107  109 am   BACKBONE|DICT|INTERRES
   215  109  110 1    
   216  109  230 1    
   217  110  111 1    
   218  110  112 1    
   219  110  231 1    
   220  111  232 1    
   221  111  233 1    
   222  111  234 1    
   223  112  113 2    
   224  112  114 am   BACKBONE|DICT|INTERRES
   225  114  115 1    
   226  114  235 1    
   227  115  116 1    
   228  115  117 1    
   229  115  236 1    
   230  116  237 1    
   231  116  238 1    
   232  116  239 1    
   233  117  118 2    
   234  117  119 am   BACKBONE|DICT|INTERRES
   235  119  120 1    
   236  119  240 1    
   237  120  121 1    
   238  120  124 1    
   239  120  241 1    
   240  121  122 am   BACKBONE|DICT|INTERRES
   241  121  123 2    
   242  122  242 1    
   243  122  243 1    
   244  124  125 1    
   245  124  244 1    
   246  124  245 1    
   247  125  126 1    
   248  126  246 1    
   249  126  247 1    
@<TRIPOS>SUBSTRUCTURE
     1 UNK         1 GROUP             0       ****    0 ROOT    
