@<TRIPOS>MOLECULE
3R540
247   249    1
SMALL
USER_CHARGES


@<TRIPOS>ATOM
      1 CA         -1.2207   -9.4405  -50.2219 C.3       0 UNK        -0.1800 
      2 C          -0.1184   -9.8545  -49.2578 C.2       0 UNK         0.5000 
      3 O           0.2993   -9.0536  -48.4201 O.2       0 UNK        -0.5000 
      4 N           0.3516  -11.1032  -49.3631 N.am      1 UNK        -0.5000 
      5 CA          1.3935  -11.7078  -48.5254 C.3       1 UNK         0.1400 
      6 C6          2.1386  -12.8507  -49.2665 C.3       23 UNK        -0.0398 
      7 S7          1.0568  -14.1680  -49.9233 S.3       23 UNK        -0.2404 
      8 C8          2.2838  -15.2089  -50.7696 C.3       23 UNK        -0.0205 
      9 C9          1.6772  -16.5435  -51.1696 C.ar      23 UNK        -0.0193 
     10 C10         0.7672  -16.6095  -52.2271 C.ar      23 UNK        -0.1150 
     11 C11         0.1796  -17.8253  -52.5844 C.ar      23 UNK        -0.0193 
     12 C12         0.5183  -18.9856  -51.8797 C.ar      23 UNK        -0.1150 
     13 C13         1.4320  -18.9358  -50.8206 C.ar      23 UNK        -0.0193 
     14 C14         2.0126  -17.7102  -50.4769 C.ar      23 UNK        -0.1150 
     15 C15         1.8054  -20.2088  -50.0657 C.3       23 UNK        -0.0205 
     16 S16         1.6243  -20.0559  -48.2548 S.3       23 UNK        -0.2404 
     17 C17        -0.1824  -19.9064  -48.0649 C.3       23 UNK        -0.0398 
     18 CA         -0.8087  -21.1675  -47.4231 C.3       11 UNK         0.1400 
     19 N          -0.4792  -21.3190  -45.9996 N.am      11 UNK        -0.5000 
     20 C          -0.8104  -22.3881  -45.2578 C.2       10 UNK         0.5000 
     21 O          -1.3795  -23.3817  -45.7080 O.2       10 UNK        -0.5000 
     22 CA         -0.5221  -22.3172  -43.7484 C.3       10 UNK         0.1400 
     23 CB          0.9619  -22.5794  -43.4524 C.3       10 UNK        -0.1800 
     24 N          -0.9330  -21.0429  -43.1614 N.am      10 UNK        -0.5000 
     25 C          -2.1936  -20.5890  -43.1235 C.2       9 UNK         0.5000 
     26 O          -3.1616  -21.2242  -43.5378 O.2       9 UNK        -0.5000 
     27 CA         -2.4063  -19.1663  -42.5788 C.3       9 UNK         0.1400 
     28 CB         -2.4884  -19.1668  -41.0449 C.3       9 UNK        -0.1800 
     29 N          -1.3600  -18.2447  -43.0194 N.am      9 UNK        -0.5000 
     30 C          -1.1751  -17.8582  -44.2899 C.2       8 UNK         0.5000 
     31 O          -1.8940  -18.2101  -45.2265 O.2       8 UNK        -0.5000 
     32 CA          0.0525  -16.9692  -44.5583 C.3       8 UNK         0.1400 
     33 CB         -0.2470  -15.5033  -44.2185 C.3       8 UNK        -0.1800 
     34 N           1.2302  -17.4102  -43.8087 N.am      8 UNK        -0.5000 
     35 C           1.8730  -18.5637  -44.0409 C.2       7 UNK         0.5000 
     36 O           1.5433  -19.3628  -44.9166 O.2       7 UNK        -0.5000 
     37 CA          3.0464  -18.9066  -43.1025 C.3       7 UNK         0.1400 
     38 CB          4.3297  -18.2001  -43.5649 C.3       7 UNK        -0.1800 
     39 N           2.7893  -18.5687  -41.7001 N.am      7 UNK        -0.5000 
     40 C           1.7703  -19.0390  -40.9667 C.2       6 UNK         0.5000 
     41 O           0.9480  -19.8464  -41.3956 O.2       6 UNK        -0.5000 
     42 CA          1.6173  -18.5203  -39.5227 C.3       6 UNK         0.1400 
     43 CB          1.9804  -19.6247  -38.5181 C.3       6 UNK        -0.1800 
     44 N           2.3961  -17.3189  -39.2062 N.am      6 UNK        -0.5000 
     45 C           2.2288  -16.1116  -39.7597 C.2       5 UNK         0.5000 
     46 O           1.4346  -15.8768  -40.6760 O.2       5 UNK        -0.5000 
     47 CA          3.1312  -14.9962  -39.2148 C.3       5 UNK         0.1400 
     48 CB          4.5798  -15.1698  -39.7092 C.3       5 UNK        -0.1800 
     49 N           2.6143  -13.7122  -39.6653 N.am      5 UNK        -0.5000 
     50 C           2.8421  -12.5207  -39.1008 C.2       4 UNK         0.5000 
     51 O           3.4805  -12.3693  -38.0573 O.2       4 UNK        -0.5000 
     52 CA          2.2725  -11.3007  -39.8591 C.3       4 UNK         0.1400 
     53 CB          2.8940   -9.9590  -39.4181 C.3       4 UNK        -0.1800 
     54 N           2.3630  -11.4782  -41.3135 N.am      4 UNK        -0.5000 
     55 C           3.4709  -11.6492  -42.0481 C.2       3 UNK         0.5000 
     56 O           4.6134  -11.5101  -41.6102 O.2       3 UNK        -0.5000 
     57 CA          3.2897  -12.0855  -43.5162 C.3       3 UNK         0.1400 
     58 CB          3.3519  -13.6230  -43.6249 C.3       3 UNK        -0.1800 
     59 N           2.1017  -11.5677  -44.2115 N.am      3 UNK        -0.5000 
     60 C           0.8012  -11.8072  -43.9820 C.2       2 UNK         0.5000 
     61 O           0.3746  -12.4219  -43.0044 O.2       2 UNK        -0.5000 
     62 CA         -0.1964  -11.2718  -45.0284 C.3       2 UNK         0.1400 
     63 CB         -0.7777   -9.9239  -44.5762 C.3       2 UNK        -0.1800 
     64 N           0.3738  -11.1194  -46.3710 N.am      2 UNK        -0.5000 
     65 C           0.8439  -12.1146  -47.1365 C.2       1 UNK         0.5000 
     66 O           0.8448  -13.2934  -46.7811 O.2       1 UNK        -0.5000 
     67 C          -2.3300  -21.1919  -47.6665 C.2       11 UNK         0.5000 
     68 O          -2.7740  -21.8739  -48.5899 O.2       11 UNK        -0.5000 
     69 N          -3.1017  -20.4859  -46.8276 N.am      12 UNK        -0.5000 
     70 CA         -4.5640  -20.4684  -46.8830 C.3       12 UNK         0.1400 
     71 CB         -5.1098  -19.4052  -45.9178 C.3       12 UNK        -0.1800 
     72 C          -5.1849  -21.8500  -46.6019 C.2       12 UNK         0.5000 
     73 O          -6.0320  -22.3001  -47.3739 O.2       12 UNK        -0.5000 
     74 N          -4.7232  -22.5148  -45.5332 N.am      13 UNK        -0.5000 
     75 CA         -5.1642  -23.8483  -45.1156 C.3       13 UNK         0.1400 
     76 CB         -4.5459  -24.1865  -43.7507 C.3       13 UNK        -0.1800 
     77 C          -4.8391  -24.9488  -46.1421 C.2       13 UNK         0.5000 
     78 O          -5.6606  -25.8402  -46.3586 O.2       13 UNK        -0.5000 
     79 N          -3.6635  -24.8511  -46.7761 N.am      14 UNK        -0.5000 
     80 CA         -3.2067  -25.7523  -47.8352 C.3       14 UNK         0.1400 
     81 CB         -1.6720  -25.6932  -47.9021 C.3       14 UNK        -0.1800 
     82 C          -3.8145  -25.4377  -49.2173 C.2       14 UNK         0.5000 
     83 O          -3.5160  -26.1553  -50.1731 O.2       14 UNK        -0.5000 
     84 N          -4.6036  -24.3573  -49.3241 N.am      15 UNK        -0.5000 
     85 CA         -5.2077  -23.8191  -50.5470 C.3       15 UNK         0.1400 
     86 CB         -6.3077  -24.7616  -51.0764 C.3       15 UNK        -0.1800 
     87 C          -4.1489  -23.4760  -51.6137 C.2       15 UNK         0.5000 
     88 O          -4.3079  -23.8321  -52.7832 O.2       15 UNK        -0.5000 
     89 N          -3.0796  -22.7981  -51.1742 N.am      16 UNK        -0.5000 
     90 CA         -1.8806  -22.4280  -51.9324 C.3       16 UNK         0.1400 
     91 CB         -2.2333  -21.4661  -53.0834 C.3       16 UNK        -0.1800 
     92 C          -1.0555  -23.6509  -52.3842 C.2       16 UNK         0.5000 
     93 O          -0.4383  -23.6179  -53.4478 O.2       16 UNK        -0.5000 
     94 N          -1.0682  -24.7057  -51.5546 N.am      17 UNK        -0.5000 
     95 CA         -0.5160  -26.0412  -51.8059 C.3       17 UNK         0.1400 
     96 CB          1.0176  -26.0004  -51.9757 C.3       17 UNK        -0.1800 
     97 C          -1.2551  -26.7333  -52.9680 C.2       17 UNK         0.5000 
     98 O          -0.6285  -27.1876  -53.9271 O.2       17 UNK        -0.5000 
     99 N          -2.5906  -26.7730  -52.8444 N.am      18 UNK        -0.5000 
    100 CA        -3.5638  -27.2935  -53.8080 C.3       18 UNK         0.1400 
    101 CB        -3.4500  -28.8280  -53.9206 C.3       18 UNK        -0.1800 
    102 C         -3.4908  -26.5734  -55.1715 C.2       18 UNK         0.5000 
    103 O         -3.4180  -27.2229  -56.2169 O.2       18 UNK        -0.5000 
    104 N         -3.5161  -25.2364  -55.1282 N.am      19 UNK        -0.5000 
    105 CA        -3.4803  -24.3488  -56.2901 C.3       19 UNK         0.1400 
    106 CB        -2.0849  -23.7151  -56.4249 C.3       19 UNK        -0.1800 
    107 C         -4.6133  -23.3127  -56.1944 C.2       19 UNK         0.5000 
    108 O         -4.4035  -22.1304  -56.4726 O.2       19 UNK        -0.5000 
    109 N         -5.8007  -23.7913  -55.7914 N.am      20 UNK        -0.5000 
    110 CA        -7.0868  -23.0852  -55.7566 C.3       20 UNK         0.1400 
    111 CB        -7.5960  -22.8546  -57.1949 C.3       20 UNK        -0.1800 
    112 C         -7.0798  -21.7899  -54.9176 C.2       20 UNK         0.5000 
    113 O         -7.7384  -20.8167  -55.2903 O.2       20 UNK        -0.5000 
    114 N         -6.3167  -21.7907  -53.8127 N.am      21 UNK        -0.5000 
    115 CA        -6.1467  -20.6739  -52.8713 C.3       21 UNK         0.1400 
    116 CB        -7.4293  -20.4692  -52.0399 C.3       21 UNK        -0.1800 
    117 C         -5.6462  -19.3831  -53.5546 C.2       21 UNK         0.5000 
    118 O         -6.1336  -18.2905  -53.2609 O.2       21 UNK        -0.5000 
    119 N         -4.6888  -19.5621  -54.4733 N.am      22 UNK        -0.5000 
    120 CA        -4.0671  -18.5386  -55.3294 C.3       22 UNK         0.1400 
    121 C         -4.9451  -18.1010  -56.5417 C.2       22 UNK         0.5000 
    122 N         -6.1194  -18.6783  -56.7720 N.am      22 UNK        -0.7600 
    123 O         -4.5414  -17.2333  -57.3114 O.2       22 UNK        -0.5000 
    124 C124       -3.4858  -17.3076  -54.5688 C.3       23 UNK        -0.0398 
    125 S125       -2.5209  -17.6956  -53.0654 S.3       23 UNK        -0.2404 
    126 C126       -0.8339  -17.8686  -53.7178 C.3       23 UNK        -0.0205 
    127 H127       -1.4880  -10.2489  -50.9029 H         1 UNK         0.0600 
    128 H128       -0.8969   -8.5869  -50.8174 H         1 UNK         0.0600 
    129 H129       -2.1143   -9.1524  -49.6681 H         1 UNK         0.0600 
    130 H130       -0.0515  -11.7272  -50.0484 H         1 UNK         0.3000 
    131 H131        2.1450  -10.9399  -48.3286 H         1 UNK         0.0600 
    132 H132        2.6940  -12.4272  -50.1046 H         1 UNK         0.0800 
    133 H133        2.8888  -13.3015  -48.6143 H         1 UNK         0.0800 
    134 H134        2.6540  -14.6906  -51.6554 H         1 UNK         0.0800 
    135 H135        3.1437  -15.3635  -50.1159 H         1 UNK         0.0800 
    136 H136        0.5004  -15.7063  -52.7582 H         1 UNK         0.1150 
    137 H137        0.0657  -19.9262  -52.1548 H         1 UNK         0.1150 
    138 H138        2.7181  -17.6650  -49.6591 H         1 UNK         0.1150 
    139 H139        1.2112  -21.0567  -50.4097 H         1 UNK         0.0800 
    140 H140        2.8444  -20.4514  -50.2917 H         1 UNK         0.0800 
    141 H141       -0.6189  -19.7092  -49.0460 H         1 UNK         0.0800 
    142 H142       -0.3945  -19.0227  -47.4609 H         1 UNK         0.0800 
    143 H143       -0.4031  -22.0413  -47.9381 H         1 UNK         0.0600 
    144 H144        0.0369  -20.5586  -45.5675 H         1 UNK         0.3000 
    145 H145       -1.1043  -23.1034  -43.2636 H         1 UNK         0.0600 
    146 H146        1.2696  -23.5513  -43.8400 H         1 UNK         0.0600 
    147 H147        1.6056  -21.8274  -43.9074 H         1 UNK         0.0600 
    148 H148        1.1556  -22.5800  -42.3796 H         1 UNK         0.0600 
    149 H149       -0.2019  -20.4821  -42.7315 H         1 UNK         0.3000 
    150 H150       -3.3593  -18.8011  -42.9672 H         1 UNK         0.0600 
    151 H151       -2.6851  -18.1661  -40.6598 H         1 UNK         0.0600 
    152 H152       -1.5676  -19.5278  -40.5870 H         1 UNK         0.0600 
    153 H153       -3.2978  -19.8120  -40.7009 H         1 UNK         0.0600 
    154 H154       -0.6956  -17.9427  -42.3226 H         1 UNK         0.3000 
    155 H155        0.2825  -17.0308  -45.6244 H         1 UNK         0.0600 
    156 H156       -0.4372  -15.3618  -43.1537 H         1 UNK         0.0600 
    157 H157       -1.1212  -15.1439  -44.7627 H         1 UNK         0.0600 
    158 H158        0.5897  -14.8629  -44.4959 H         1 UNK         0.0600 
    159 H159        1.5331  -16.8262  -43.0410 H         1 UNK         0.3000 
    160 H160        3.2094  -19.9847  -43.1579 H         1 UNK         0.0600 
    161 H161        4.5562  -18.4439  -44.6039 H         1 UNK         0.0600 
    162 H162        5.1873  -18.5073  -42.9661 H         1 UNK         0.0600 
    163 H163        4.2412  -17.1151  -43.4939 H         1 UNK         0.0600 
    164 H164        3.4200  -17.9113  -41.2675 H         1 UNK         0.3000 
    165 H165        0.5624  -18.2729  -39.3878 H         1 UNK         0.0600 
    166 H166        1.7811  -19.3089  -37.4939 H         1 UNK         0.0600 
    167 H167        1.3930  -20.5265  -38.6968 H         1 UNK         0.0600 
    168 H168        3.0335  -19.9002  -38.5873 H         1 UNK         0.0600 
    169 H169        3.0861  -17.4230  -38.4758 H         1 UNK         0.3000 
    170 H170        3.1036  -15.0348  -38.1238 H         1 UNK         0.0600 
    171 H171        5.2275  -14.3836  -39.3208 H         1 UNK         0.0600 
    172 H172        5.0001  -16.1217  -39.3831 H         1 UNK         0.0600 
    173 H173        4.6375  -15.1387  -40.7981 H         1 UNK         0.0600 
    174 H174        2.0260  -13.7713  -40.4875 H         1 UNK         0.3000 
    175 H175        1.2085  -11.2645  -39.6217 H         1 UNK         0.0600 
    176 H176        3.9758   -9.9463  -39.5524 H         1 UNK         0.0600 
    177 H177        2.4755   -9.1265  -39.9835 H         1 UNK         0.0600 
    178 H178        2.6953   -9.7666  -38.3632 H         1 UNK         0.0600 
    179 H179        1.4847  -11.6787  -41.7879 H         1 UNK         0.3000 
    180 H180        4.1443  -11.6844  -44.0632 H         1 UNK         0.0600 
    181 H181        3.2780  -13.9497  -44.6624 H         1 UNK         0.0600 
    182 H182        2.5486  -14.1034  -43.0652 H         1 UNK         0.0600 
    183 H183        4.2942  -14.0043  -43.2297 H         1 UNK         0.0600 
    184 H184        2.3080  -11.0012  -45.0217 H         1 UNK         0.3000 
    185 H185       -1.0133  -11.9933  -45.0949 H         1 UNK         0.0600 
    186 H186       -0.0078   -9.1537  -44.5165 H         1 UNK         0.0600 
    187 H187       -1.5480   -9.5759  -45.2647 H         1 UNK         0.0600 
    188 H188       -1.2376  -10.0067  -43.5904 H         1 UNK         0.0600 
    189 H189        0.3717  -10.1857  -46.7700 H         1 UNK         0.3000 
    190 H190       -2.6632  -19.9195  -46.1089 H         1 UNK         0.3000 
    191 H191       -4.8517  -20.1783  -47.8959 H         1 UNK         0.0600 
    192 H192       -4.8483  -19.6233  -44.8828 H         1 UNK         0.0600 
    193 H193       -6.1973  -19.3479  -45.9760 H         1 UNK         0.0600 
    194 H194       -4.7180  -18.4168  -46.1589 H         1 UNK         0.0600 
    195 H195       -4.0420  -22.0578  -44.9300 H         1 UNK         0.3000 
    196 H196       -6.2493  -23.8164  -44.9987 H         1 UNK         0.0600 
    197 H197       -4.8662  -25.1710  -43.4076 H         1 UNK         0.0600 
    198 H198       -4.8469  -23.4638  -42.9921 H         1 UNK         0.0600 
    199 H199       -3.4560  -24.1904  -43.7943 H         1 UNK         0.0600 
    200 H200       -3.0138  -24.1213  -46.4950 H         1 UNK         0.3000 
    201 H201       -3.4957  -26.7733  -47.5780 H         1 UNK         0.0600 
    202 H202       -1.2272  -25.9214  -46.9334 H         1 UNK         0.0600 
    203 H203       -1.3201  -24.7065  -48.2067 H         1 UNK         0.0600 
    204 H204       -1.2796  -26.4211  -48.6120 H         1 UNK         0.0600 
    205 H205       -4.7714  -23.8138  -48.4865 H         1 UNK         0.3000 
    206 H206       -5.6823  -22.8772  -50.2684 H         1 UNK         0.0600 
    207 H207       -6.8376  -24.3111  -51.9165 H         1 UNK         0.0600 
    208 H208       -5.8987  -25.7124  -51.4196 H         1 UNK         0.0600 
    209 H209       -7.0469  -24.9743  -50.3042 H         1 UNK         0.0600 
    210 H210       -3.0562  -22.5351  -50.1877 H         1 UNK         0.3000 
    211 H211       -1.2418  -21.8824  -51.2367 H         1 UNK         0.0600 
    212 H212       -2.8957  -21.9243  -53.8159 H         1 UNK         0.0600 
    213 H213       -1.3417  -21.1372  -53.6168 H         1 UNK         0.0600 
    214 H214       -2.7267  -20.5773  -52.6953 H         1 UNK         0.0600 
    215 H215       -1.6416  -24.6291  -50.7275 H         1 UNK         0.3000 
    216 H216       -0.7257  -26.6364  -50.9168 H         1 UNK         0.0600 
    217 H217        1.4264  -27.0098  -52.0329 H         1 UNK         0.0600 
    218 H218        1.4941  -25.5043  -51.1303 H         1 UNK         0.0600 
    219 H219        1.3178  -25.4785  -52.8844 H         1 UNK         0.0600 
    220 H220       -2.9905  -26.3989  -51.9870 H         1 UNK         0.3000 
    221 H221       -4.5485  -27.0671  -53.3964 H         1 UNK         0.0600 
    222 H222       -2.4984  -29.1347  -54.3558 H         1 UNK         0.0600 
    223 H223       -3.5397  -29.3016  -52.9430 H         1 UNK         0.0600 
    224 H224       -4.2431  -29.2328  -54.5504 H         1 UNK         0.0600 
    225 H225       -3.6340  -24.7758  -54.2271 H         1 UNK         0.3000 
    226 H226       -3.6748  -24.9171  -57.2017 H         1 UNK         0.0600 
    227 H227       -1.3059  -24.4774  -56.4515 H         1 UNK         0.0600 
    228 H228       -2.0064  -23.1355  -57.3452 H         1 UNK         0.0600 
    229 H229       -1.8654  -23.0435  -55.5969 H         1 UNK         0.0600 
    230 H230       -5.8385  -24.7692  -55.5412 H         1 UNK         0.3000 
    231 H231       -7.7903  -23.7562  -55.2619 H         1 UNK         0.0600 
    232 H232       -6.9638  -22.1504  -57.7373 H         1 UNK         0.0600 
    233 H233       -7.6201  -23.7867  -57.7592 H         1 UNK         0.0600 
    234 H234       -8.6099  -22.4526  -57.1948 H         1 UNK         0.0600 
    235 H235       -5.7612  -22.6186  -53.6251 H         1 UNK         0.3000 
    236 H236       -5.3553  -20.9595  -52.1795 H         1 UNK         0.0600 
    237 H237       -8.2629  -20.1342  -52.6579 H         1 UNK         0.0600 
    238 H238       -7.7286  -21.3928  -51.5444 H         1 UNK         0.0600 
    239 H239       -7.2761  -19.7201  -51.2622 H         1 UNK         0.0600 
    240 H240       -4.4234  -20.5118  -54.6972 H         1 UNK         0.3000 
    241 H241       -3.2183  -19.0522  -55.7819 H         1 UNK         0.0600 
    242 H242       -6.6628  -18.3855  -57.5682 H         1 UNK         0.3800 
    243 H243       -6.4882  -19.3894  -56.1518 H         1 UNK         0.3800 
    244 H244       -2.8628  -16.7123  -55.2380 H         1 UNK         0.0800 
    245 H245       -4.2969  -16.6446  -54.2643 H         1 UNK         0.0800 
    246 H246       -0.6278  -17.0681  -54.4299 H         1 UNK         0.0800 
    247 H247       -0.7488  -18.8053  -54.2700 H         1 UNK         0.0800 
@<TRIPOS>BOND
     1    1    2 1    
     2    1  127 1    
     3    1  128 1    
     4    1  129 1    
     5    2    3 2    
     6    2    4 am   BACKBONE|DICT|INTERRES
     7    4    5 1    
     8    4  130 1    
     9    5    6 1    
    10    5   65 1    
    11    5  131 1    
    12    6    7 1    
    13    6  132 1    
    14    6  133 1    
    15    7    8 1    
    16    8    9 1    
    17    8  134 1    
    18    8  135 1    
    19    9   10 ar   
    20    9   14 ar   
    21   10   11 ar   
    22   10  136 1    
    23   11   12 ar   
    24   11  126 1    
    25   12   13 ar   
    26   12  137 1    
    27   13   14 ar   
    28   13   15 1    
    29   14  138 1    
    30   15   16 1    
    31   15  139 1    
    32   15  140 1    
    33   16   17 1    
    34   17   18 1    
    35   17  141 1    
    36   17  142 1    
    37   18   19 1    
    38   18   67 1    
    39   18  143 1    
    40   19   20 am   BACKBONE|DICT|INTERRES
    41   19  144 1    
    42   20   21 2    
    43   20   22 1    
    44   22   23 1    
    45   22   24 1    
    46   22  145 1    
    47   23  146 1    
    48   23  147 1    
    49   23  148 1    
    50   24   25 am   BACKBONE|DICT|INTERRES
    51   24  149 1    
    52   25   26 2    
    53   25   27 1    
    54   27   28 1    
    55   27   29 1    
    56   27  150 1    
    57   28  151 1    
    58   28  152 1    
    59   28  153 1    
    60   29   30 am   BACKBONE|DICT|INTERRES
    61   29  154 1    
    62   30   31 2    
    63   30   32 1    
    64   32   33 1    
    65   32   34 1    
    66   32  155 1    
    67   33  156 1    
    68   33  157 1    
    69   33  158 1    
    70   34   35 am   BACKBONE|DICT|INTERRES
    71   34  159 1    
    72   35   36 2    
    73   35   37 1    
    74   37   38 1    
    75   37   39 1    
    76   37  160 1    
    77   38  161 1    
    78   38  162 1    
    79   38  163 1    
    80   39   40 am   BACKBONE|DICT|INTERRES
    81   39  164 1    
    82   40   41 2    
    83   40   42 1    
    84   42   43 1    
    85   42   44 1    
    86   42  165 1    
    87   43  166 1    
    88   43  167 1    
    89   43  168 1    
    90   44   45 am   BACKBONE|DICT|INTERRES
    91   44  169 1    
    92   45   46 2    
    93   45   47 1    
    94   47   48 1    
    95   47   49 1    
    96   47  170 1    
    97   48  171 1    
    98   48  172 1    
    99   48  173 1    
   100   49   50 am   BACKBONE|DICT|INTERRES
   101   49  174 1    
   102   50   51 2    
   103   50   52 1    
   104   52   53 1    
   105   52   54 1    
   106   52  175 1    
   107   53  176 1    
   108   53  177 1    
   109   53  178 1    
   110   54   55 am   BACKBONE|DICT|INTERRES
   111   54  179 1    
   112   55   56 2    
   113   55   57 1    
   114   57   58 1    
   115   57   59 1    
   116   57  180 1    
   117   58  181 1    
   118   58  182 1    
   119   58  183 1    
   120   59   60 am   BACKBONE|DICT|INTERRES
   121   59  184 1    
   122   60   61 2    
   123   60   62 1    
   124   62   63 1    
   125   62   64 1    
   126   62  185 1    
   127   63  186 1    
   128   63  187 1    
   129   63  188 1    
   130   64   65 am   BACKBONE|DICT|INTERRES
   131   64  189 1    
   132   65   66 2    
   133   67   68 2    
   134   67   69 am   BACKBONE|DICT|INTERRES
   135   69   70 1    
   136   69  190 1    
   137   70   71 1    
   138   70   72 1    
   139   70  191 1    
   140   71  192 1    
   141   71  193 1    
   142   71  194 1    
   143   72   73 2    
   144   72   74 am   BACKBONE|DICT|INTERRES
   145   74   75 1    
   146   74  195 1    
   147   75   76 1    
   148   75   77 1    
   149   75  196 1    
   150   76  197 1    
   151   76  198 1    
   152   76  199 1    
   153   77   78 2    
   154   77   79 am   BACKBONE|DICT|INTERRES
   155   79   80 1    
   156   79  200 1    
   157   80   81 1    
   158   80   82 1    
   159   80  201 1    
   160   81  202 1    
   161   81  203 1    
   162   81  204 1    
   163   82   83 2    
   164   82   84 am   BACKBONE|DICT|INTERRES
   165   84   85 1    
   166   84  205 1    
   167   85   86 1    
   168   85   87 1    
   169   85  206 1    
   170   86  207 1    
   171   86  208 1    
   172   86  209 1    
   173   87   88 2    
   174   87   89 am   BACKBONE|DICT|INTERRES
   175   89   90 1    
   176   89  210 1    
   177   90   91 1    
   178   90   92 1    
   179   90  211 1    
   180   91  212 1    
   181   91  213 1    
   182   91  214 1    
   183   92   93 2    
   184   92   94 am   BACKBONE|DICT|INTERRES
   185   94   95 1    
   186   94  215 1    
   187   95   96 1    
   188   95   97 1    
   189   95  216 1    
   190   96  217 1    
   191   96  218 1    
   192   96  219 1    
   193   97   98 2    
   194   97   99 am   BACKBONE|DICT|INTERRES
   195   99  100 1    
   196   99  220 1    
   197  100  101 1    
   198  100  102 1    
   199  100  221 1    
   200  101  222 1    
   201  101  223 1    
   202  101  224 1    
   203  102  103 2    
   204  102  104 am   BACKBONE|DICT|INTERRES
   205  104  105 1    
   206  104  225 1    
   207  105  106 1    
   208  105  107 1    
   209  105  226 1    
   210  106  227 1    
   211  106  228 1    
   212  106  229 1    
   213  107  108 2    
   214  107  109 am   BACKBONE|DICT|INTERRES
   215  109  110 1    
   216  109  230 1    
   217  110  111 1    
   218  110  112 1    
   219  110  231 1    
   220  111  232 1    
   221  111  233 1    
   222  111  234 1    
   223  112  113 2    
   224  112  114 am   BACKBONE|DICT|INTERRES
   225  114  115 1    
   226  114  235 1    
   227  115  116 1    
   228  115  117 1    
   229  115  236 1    
   230  116  237 1    
   231  116  238 1    
   232  116  239 1    
   233  117  118 2    
   234  117  119 am   BACKBONE|DICT|INTERRES
   235  119  120 1    
   236  119  240 1    
   237  120  121 1    
   238  120  124 1    
   239  120  241 1    
   240  121  122 am   BACKBONE|DICT|INTERRES
   241  121  123 2    
   242  122  242 1    
   243  122  243 1    
   244  124  125 1    
   245  124  244 1    
   246  124  245 1    
   247  125  126 1    
   248  126  246 1    
   249  126  247 1    
@<TRIPOS>SUBSTRUCTURE
     1 UNK         1 GROUP             0       ****    0 ROOT    
