@<TRIPOS>MOLECULE
3R540
247   249    1
SMALL
USER_CHARGES


@<TRIPOS>ATOM
      1 CA          2.9935  -13.9299  -49.8653 C.3       0 UNK        -0.1800 
      2 C           4.0243  -14.9706  -49.4504 C.2       0 UNK         0.5000 
      3 O           5.1583  -14.6163  -49.1291 O.2       0 UNK        -0.5000 
      4 N           3.6343  -16.2503  -49.4730 N.am      1 UNK        -0.5000 
      5 CA          4.4572  -17.4078  -49.1050 C.3       1 UNK         0.1400 
      6 C6          3.7477  -18.7542  -49.4007 C.3       23 UNK        -0.0398 
      7 S7          3.0988  -18.8911  -51.1026 S.3       23 UNK        -0.2404 
      8 C8          1.3147  -19.1107  -50.8074 C.3       23 UNK        -0.0205 
      9 C9          0.5781  -17.7900  -50.6253 C.ar      23 UNK        -0.0193 
     10 C10        -0.1573  -17.2480  -51.6842 C.ar      23 UNK        -0.1150 
     11 C11        -0.8854  -16.0661  -51.5150 C.ar      23 UNK        -0.0193 
     12 C12        -0.8461  -15.4074  -50.2844 C.ar      23 UNK        -0.1150 
     13 C13        -0.1120  -15.9326  -49.2188 C.ar      23 UNK        -0.0193 
     14 C14         0.5922  -17.1283  -49.3932 C.ar      23 UNK        -0.1150 
     15 C15        -0.0787  -15.1957  -47.8877 C.3       23 UNK        -0.0205 
     16 S16        -1.7145  -15.1540  -47.0857 S.3       23 UNK        -0.2404 
     17 C17        -1.6672  -16.6555  -46.0545 C.3       23 UNK        -0.0398 
     18 CA         -1.8427  -17.9754  -46.8410 C.3       11 UNK         0.1400 
     19 N          -1.3342  -19.1146  -46.0799 N.am      11 UNK        -0.5000 
     20 C          -1.1331  -20.3457  -46.5637 C.2       10 UNK         0.5000 
     21 O          -1.3743  -20.6755  -47.7233 O.2       10 UNK        -0.5000 
     22 CA         -0.5924  -21.3913  -45.5773 C.3       10 UNK         0.1400 
     23 CB          0.9396  -21.3115  -45.4928 C.3       10 UNK        -0.1800 
     24 N          -1.1753  -21.2155  -44.2476 N.am      10 UNK        -0.5000 
     25 C          -2.4163  -21.6006  -43.9184 C.2       9 UNK         0.5000 
     26 O          -3.1673  -22.2097  -44.6798 O.2       9 UNK        -0.5000 
     27 CA         -2.9143  -21.2116  -42.5136 C.3       9 UNK         0.1400 
     28 CB         -2.4515  -22.2399  -41.4707 C.3       9 UNK        -0.1800 
     29 N          -2.4832  -19.8745  -42.1001 N.am      9 UNK        -0.5000 
     30 C          -2.8732  -18.7364  -42.6903 C.2       8 UNK         0.5000 
     31 O          -3.6395  -18.6903  -43.6521 O.2       8 UNK        -0.5000 
     32 CA         -2.2740  -17.4284  -42.1433 C.3       8 UNK         0.1400 
     33 CB         -3.0866  -16.9304  -40.9392 C.3       8 UNK        -0.1800 
     34 N          -0.8581  -17.5002  -41.7712 N.am      8 UNK        -0.5000 
     35 C           0.1490  -17.9347  -42.5429 C.2       7 UNK         0.5000 
     36 O          -0.0156  -18.4868  -43.6313 O.2       7 UNK        -0.5000 
     37 CA          1.5692  -17.6652  -42.0122 C.3       7 UNK         0.1400 
     38 CB          2.6666  -18.0836  -43.0097 C.3       7 UNK        -0.1800 
     39 N           1.6988  -16.2374  -41.7230 N.am      7 UNK        -0.5000 
     40 C           1.5640  -15.6741  -40.5137 C.2       6 UNK         0.5000 
     41 O           1.4263  -16.3243  -39.4775 O.2       6 UNK        -0.5000 
     42 CA          1.5250  -14.1333  -40.4413 C.3       6 UNK         0.1400 
     43 CB          2.8593  -13.5691  -39.9342 C.3       6 UNK        -0.1800 
     44 N           1.1882  -13.5072  -41.7214 N.am      6 UNK        -0.5000 
     45 C          -0.0461  -13.4837  -42.2469 C.2       5 UNK         0.5000 
     46 O          -1.0402  -13.9175  -41.6645 O.2       5 UNK        -0.5000 
     47 CA         -0.2011  -12.9056  -43.6694 C.3       5 UNK         0.1400 
     48 CB         -0.6866  -11.4497  -43.6091 C.3       5 UNK        -0.1800 
     49 N           1.0158  -12.9681  -44.4848 N.am      5 UNK        -0.5000 
     50 C           1.6492  -14.0964  -44.8302 C.2       4 UNK         0.5000 
     51 O           1.2825  -15.2133  -44.4666 O.2       4 UNK        -0.5000 
     52 CA          2.9107  -13.9790  -45.7049 C.3       4 UNK         0.1400 
     53 CB          3.2624  -12.5411  -46.1478 C.3       4 UNK        -0.1800 
     54 N           4.0509  -14.6285  -45.0586 N.am      4 UNK        -0.5000 
     55 C           4.6239  -14.2963  -43.8918 C.2       3 UNK         0.5000 
     56 O           4.2509  -13.3448  -43.2036 O.2       3 UNK        -0.5000 
     57 CA          5.7958  -15.1717  -43.3933 C.3       3 UNK         0.1400 
     58 CB          5.6376  -15.5372  -41.9076 C.3       3 UNK        -0.1800 
     59 N           5.9543  -16.4067  -44.1645 N.am      3 UNK        -0.5000 
     60 C           6.7041  -16.5397  -45.2656 C.2       2 UNK         0.5000 
     61 O           7.3851  -15.6307  -45.7424 O.2       2 UNK        -0.5000 
     62 CA          6.6791  -17.9107  -45.9759 C.3       2 UNK         0.1400 
     63 CB          5.9904  -19.0341  -45.1652 C.3       2 UNK        -0.1800 
     64 N           6.0889  -17.8147  -47.3155 N.am      2 UNK        -0.5000 
     65 C           4.8613  -17.3672  -47.6168 C.2       1 UNK         0.5000 
     66 O           4.0443  -16.9807  -46.7775 O.2       1 UNK        -0.5000 
     67 C          -3.2821  -18.1926  -47.3458 C.2       11 UNK         0.5000 
     68 O          -3.5501  -17.9669  -48.5246 O.2       11 UNK        -0.5000 
     69 N          -4.1642  -18.6934  -46.4700 N.am      12 UNK        -0.5000 
     70 CA         -5.5475  -19.0438  -46.8022 C.3       12 UNK         0.1400 
     71 CB         -6.3200  -19.3055  -45.5004 C.3       12 UNK        -0.1800 
     72 C          -5.6665  -20.2552  -47.7493 C.2       12 UNK         0.5000 
     73 O          -6.6777  -20.3869  -48.4387 O.2       12 UNK        -0.5000 
     74 N          -4.6461  -21.1211  -47.7531 N.am      13 UNK        -0.5000 
     75 CA         -4.5620  -22.2991  -48.6114 C.3       13 UNK         0.1400 
     76 CB         -3.7241  -23.3651  -47.8852 C.3       13 UNK        -0.1800 
     77 C          -3.9393  -22.0015  -49.9867 C.2       13 UNK         0.5000 
     78 O          -4.1654  -22.7678  -50.9213 O.2       13 UNK        -0.5000 
     79 N          -3.1118  -20.9480  -50.0609 N.am      14 UNK        -0.5000 
     80 CA         -2.0944  -20.7094  -51.0896 C.3       14 UNK         0.1400 
     81 CB         -2.7111  -20.3608  -52.4569 C.3       14 UNK        -0.1800 
     82 C          -1.0687  -21.8627  -51.1402 C.2       14 UNK         0.5000 
     83 O          -0.7286  -22.3624  -52.2147 O.2       14 UNK        -0.5000 
     84 N          -0.6095  -22.2665  -49.9460 N.am      15 UNK        -0.5000 
     85 CA          0.3273  -23.3543  -49.6662 C.3       15 UNK         0.1400 
     86 CB          1.7598  -22.9312  -50.0623 C.3       15 UNK        -0.1800 
     87 C          -0.1381  -24.6910  -50.2847 C.2       15 UNK         0.5000 
     88 O          -1.1629  -25.2295  -49.8615 O.2       15 UNK        -0.5000 
     89 N           0.6034  -25.1903  -51.2829 N.am      16 UNK        -0.5000 
     90 CA          0.3663  -26.4518  -51.9904 C.3       16 UNK         0.1400 
     91 CB          1.5561  -26.7201  -52.9251 C.3       16 UNK        -0.1800 
     92 C          -0.9611  -26.5201  -52.7745 C.2       16 UNK         0.5000 
     93 O          -1.3948  -27.6201  -53.1190 O.2       16 UNK        -0.5000 
     94 N          -1.5932  -25.3663  -53.0321 N.am      17 UNK        -0.5000 
     95 CA         -2.9046  -25.2597  -53.6761 C.3       17 UNK         0.1400 
     96 CB         -3.0816  -23.8266  -54.1894 C.3       17 UNK        -0.1800 
     97 C          -4.0847  -25.6728  -52.7677 C.2       17 UNK         0.5000 
     98 O          -5.2093  -25.7708  -53.2644 O.2       17 UNK        -0.5000 
     99 N          -3.8213  -25.9053  -51.4713 N.am      18 UNK        -0.5000 
    100 CA        -4.6966  -26.4344  -50.4152 C.3       18 UNK         0.1400 
    101 CB        -5.1712  -27.8591  -50.7571 C.3       18 UNK        -0.1800 
    102 C         -5.8880  -25.5397  -50.0164 C.2       18 UNK         0.5000 
    103 O         -6.1402  -25.3757  -48.8226 O.2       18 UNK        -0.5000 
    104 N         -6.5922  -24.9836  -51.0042 N.am      19 UNK        -0.5000 
    105 CA        -7.7210  -24.0643  -50.8581 C.3       19 UNK         0.1400 
    106 CB        -8.9502  -24.8169  -50.3055 C.3       19 UNK        -0.1800 
    107 C         -8.0784  -23.3474  -52.1759 C.2       19 UNK         0.5000 
    108 O         -8.9947  -22.5242  -52.1706 O.2       19 UNK        -0.5000 
    109 N         -7.4067  -23.6778  -53.2909 N.am      20 UNK        -0.5000 
    110 CA        -7.7920  -23.2451  -54.6373 C.3       20 UNK         0.1400 
    111 CB        -7.1363  -24.1817  -55.6651 C.3       20 UNK        -0.1800 
    112 C         -7.4927  -21.7684  -54.9704 C.2       20 UNK         0.5000 
    113 O         -7.9686  -21.2914  -56.0024 O.2       20 UNK        -0.5000 
    114 N         -6.7238  -21.0663  -54.1292 N.am      21 UNK        -0.5000 
    115 CA        -6.3588  -19.6643  -54.3204 C.3       21 UNK         0.1400 
    116 CB        -5.1373  -19.5733  -55.2558 C.3       21 UNK        -0.1800 
    117 C         -6.0842  -18.9850  -52.9704 C.2       21 UNK         0.5000 
    118 O         -5.9320  -19.6684  -51.9566 O.2       21 UNK        -0.5000 
    119 N         -6.0260  -17.6475  -53.0042 N.am      22 UNK        -0.5000 
    120 CA        -5.6055  -16.6968  -51.9505 C.3       22 UNK         0.1400 
    121 C         -6.4271  -16.6883  -50.6252 C.2       22 UNK         0.5000 
    122 N         -7.1805  -17.7256  -50.2942 N.am      22 UNK        -0.7600 
    123 O         -6.4129  -15.6942  -49.9046 O.2       22 UNK        -0.5000 
    124 C124       -4.0807  -16.7475  -51.6578 C.3       23 UNK        -0.0398 
    125 S125       -3.0588  -16.6099  -53.1721 S.3       23 UNK        -0.2404 
    126 C126       -1.7138  -15.4941  -52.6573 C.3       23 UNK        -0.0205 
    127 H127        2.6493  -13.3714  -48.9958 H         1 UNK         0.0600 
    128 H128        2.1278  -14.3878  -50.3441 H         1 UNK         0.0600 
    129 H129        3.4330  -13.2257  -50.5716 H         1 UNK         0.0600 
    130 H130        2.6932  -16.4719  -49.7656 H         1 UNK         0.3000 
    131 H131        5.3643  -17.3585  -49.7110 H         1 UNK         0.0600 
    132 H132        2.9419  -18.9326  -48.6875 H         1 UNK         0.0800 
    133 H133        4.4477  -19.5792  -49.2571 H         1 UNK         0.0800 
    134 H134        1.1469  -19.7555  -49.9436 H         1 UNK         0.0800 
    135 H135        0.9027  -19.6470  -51.6632 H         1 UNK         0.0800 
    136 H136       -0.1856  -17.7570  -52.6375 H         1 UNK         0.1150 
    137 H137       -1.3987  -14.4886  -50.1465 H         1 UNK         0.1150 
    138 H138        1.1395  -17.5474  -48.5612 H         1 UNK         0.1150 
    139 H139        0.6520  -15.6473  -47.2163 H         1 UNK         0.0800 
    140 H140        0.2522  -14.1709  -48.0607 H         1 UNK         0.0800 
    141 H141       -2.4314  -16.5655  -45.2822 H         1 UNK         0.0800 
    142 H142       -0.7136  -16.6574  -45.5253 H         1 UNK         0.0800 
    143 H143       -1.2201  -17.9284  -47.7293 H         1 UNK         0.0600 
    144 H144       -1.0408  -18.9255  -45.1246 H         1 UNK         0.3000 
    145 H145       -0.8591  -22.3813  -45.9535 H         1 UNK         0.0600 
    146 H146        1.3369  -22.0676  -44.8156 H         1 UNK         0.0600 
    147 H147        1.2775  -20.3359  -45.1417 H         1 UNK         0.0600 
    148 H148        1.3919  -21.4807  -46.4710 H         1 UNK         0.0600 
    149 H149       -0.6507  -20.6489  -43.5948 H         1 UNK         0.3000 
    150 H150       -4.0062  -21.2189  -42.5378 H         1 UNK         0.0600 
    151 H151       -2.7757  -23.2451  -41.7436 H         1 UNK         0.0600 
    152 H152       -2.8696  -22.0207  -40.4881 H         1 UNK         0.0600 
    153 H153       -1.3649  -22.2593  -41.3774 H         1 UNK         0.0600 
    154 H154       -1.8400  -19.8186  -41.3242 H         1 UNK         0.3000 
    155 H155       -2.3539  -16.6783  -42.9313 H         1 UNK         0.0600 
    156 H156       -4.1447  -16.8429  -41.1899 H         1 UNK         0.0600 
    157 H157       -2.7494  -15.9451  -40.6163 H         1 UNK         0.0600 
    158 H158       -3.0045  -17.6087  -40.0891 H         1 UNK         0.0600 
    159 H159       -0.6135  -17.0631  -40.8941 H         1 UNK         0.3000 
    160 H160        1.6978  -18.2580  -41.1047 H         1 UNK         0.0600 
    161 H161        3.6587  -17.9346  -42.5869 H         1 UNK         0.0600 
    162 H162        2.5834  -19.1414  -43.2619 H         1 UNK         0.0600 
    163 H163        2.6074  -17.5191  -43.9414 H         1 UNK         0.0600 
    164 H164        1.7066  -15.6383  -42.5424 H         1 UNK         0.3000 
    165 H165        0.7552  -13.8655  -39.7143 H         1 UNK         0.0600 
    166 H166        2.8007  -12.4903  -39.7892 H         1 UNK         0.0600 
    167 H167        3.1342  -14.0115  -38.9758 H         1 UNK         0.0600 
    168 H168        3.6698  -13.7678  -40.6323 H         1 UNK         0.0600 
    169 H169        1.9591  -13.1459  -42.2682 H         1 UNK         0.3000 
    170 H170       -0.9649  -13.4999  -44.1758 H         1 UNK         0.0600 
    171 H171        0.0523  -10.7989  -43.1400 H         1 UNK         0.0600 
    172 H172       -0.8940  -11.0610  -44.6063 H         1 UNK         0.0600 
    173 H173       -1.6091  -11.3686  -43.0326 H         1 UNK         0.0600 
    174 H174        1.3934  -12.0865  -44.7999 H         1 UNK         0.3000 
    175 H175        2.7082  -14.5568  -46.6066 H         1 UNK         0.0600 
    176 H176        3.4773  -11.8851  -45.3038 H         1 UNK         0.0600 
    177 H177        4.1403  -12.5420  -46.7943 H         1 UNK         0.0600 
    178 H178        2.4481  -12.0944  -46.7194 H         1 UNK         0.0600 
    179 H179        4.3612  -15.4769  -45.5220 H         1 UNK         0.3000 
    180 H180        6.7030  -14.5719  -43.4894 H         1 UNK         0.0600 
    181 H181        6.4134  -16.2313  -41.5839 H         1 UNK         0.0600 
    182 H182        4.6696  -15.9929  -41.7006 H         1 UNK         0.0600 
    183 H183        5.7253  -14.6497  -41.2807 H         1 UNK         0.0600 
    184 H184        5.4017  -17.1966  -43.8658 H         1 UNK         0.3000 
    185 H185        7.7222  -18.1989  -46.1142 H         1 UNK         0.0600 
    186 H186        6.0781  -19.9908  -45.6803 H         1 UNK         0.0600 
    187 H187        6.4559  -19.1572  -44.1865 H         1 UNK         0.0600 
    188 H188        4.9278  -18.8454  -45.0093 H         1 UNK         0.0600 
    189 H189        6.7015  -18.0845  -48.0724 H         1 UNK         0.3000 
    190 H190       -3.8833  -18.8268  -45.5007 H         1 UNK         0.3000 
    191 H191       -6.0020  -18.1879  -47.3060 H         1 UNK         0.0600 
    192 H192       -6.3116  -18.4277  -44.8538 H         1 UNK         0.0600 
    193 H193       -5.8898  -20.1372  -44.9405 H         1 UNK         0.0600 
    194 H194       -7.3632  -19.5493  -45.7050 H         1 UNK         0.0600 
    195 H195       -3.8632  -20.9484  -47.1388 H         1 UNK         0.3000 
    196 H196       -5.5623  -22.7013  -48.7764 H         1 UNK         0.0600 
    197 H197       -4.2133  -23.6909  -46.9672 H         1 UNK         0.0600 
    198 H198       -2.7331  -22.9957  -47.6237 H         1 UNK         0.0600 
    199 H199       -3.5805  -24.2479  -48.5080 H         1 UNK         0.0600 
    200 H200       -3.0057  -20.3885  -49.2245 H         1 UNK         0.3000 
    201 H201       -1.5386  -19.8324  -50.7583 H         1 UNK         0.0600 
    202 H202       -3.2058  -19.3968  -52.4164 H         1 UNK         0.0600 
    203 H203       -3.4586  -21.0824  -52.7752 H         1 UNK         0.0600 
    204 H204       -1.9528  -20.2920  -53.2374 H         1 UNK         0.0600 
    205 H205       -0.9642  -21.7776  -49.1265 H         1 UNK         0.3000 
    206 H206        0.3145  -23.5012  -48.5853 H         1 UNK         0.0600 
    207 H207        1.8423  -22.6895  -51.1226 H         1 UNK         0.0600 
    208 H208        2.0708  -22.0494  -49.5021 H         1 UNK         0.0600 
    209 H209        2.4813  -23.7180  -49.8388 H         1 UNK         0.0600 
    210 H210        1.4026  -24.6544  -51.5883 H         1 UNK         0.3000 
    211 H211        0.3346  -27.2460  -51.2419 H         1 UNK         0.0600 
    212 H212        1.6548  -25.9411  -53.6823 H         1 UNK         0.0600 
    213 H213        1.4394  -27.6713  -53.4463 H         1 UNK         0.0600 
    214 H214        2.4926  -26.7703  -52.3692 H         1 UNK         0.0600 
    215 H215       -1.1751  -24.4987  -52.7150 H         1 UNK         0.3000 
    216 H216       -2.9185  -25.9283  -54.5392 H         1 UNK         0.0600 
    217 H217       -4.0266  -23.7004  -54.7148 H         1 UNK         0.0600 
    218 H218       -2.2837  -23.5469  -54.8773 H         1 UNK         0.0600 
    219 H219       -3.0719  -23.1247  -53.3610 H         1 UNK         0.0600 
    220 H220       -2.8785  -25.7019  -51.1598 H         1 UNK         0.3000 
    221 H221       -4.0605  -26.5101  -49.5319 H         1 UNK         0.0600 
    222 H222       -5.8165  -27.8743  -51.6358 H         1 UNK         0.0600 
    223 H223       -4.3257  -28.5195  -50.9505 H         1 UNK         0.0600 
    224 H224       -5.7377  -28.2892  -49.9302 H         1 UNK         0.0600 
    225 H225       -6.2850  -25.2059  -51.9460 H         1 UNK         0.3000 
    226 H226       -7.4379  -23.2847  -50.1488 H         1 UNK         0.0600 
    227 H227       -8.7593  -25.2331  -49.3167 H         1 UNK         0.0600 
    228 H228       -9.8097  -24.1529  -50.2060 H         1 UNK         0.0600 
    229 H229       -9.2425  -25.6366  -50.9626 H         1 UNK         0.0600 
    230 H230       -6.6427  -24.3402  -53.2524 H         1 UNK         0.3000 
    231 H231       -8.8732  -23.3697  -54.7284 H         1 UNK         0.0600 
    232 H232       -7.4648  -23.9449  -56.6778 H         1 UNK         0.0600 
    233 H233       -7.3993  -25.2226  -55.4758 H         1 UNK         0.0600 
    234 H234       -6.0505  -24.1034  -55.6485 H         1 UNK         0.0600 
    235 H235       -6.4084  -21.4806  -53.2612 H         1 UNK         0.3000 
    236 H236       -7.1979  -19.1351  -54.7773 H         1 UNK         0.0600 
    237 H237       -4.2913  -20.1401  -54.8679 H         1 UNK         0.0600 
    238 H238       -5.3697  -19.9627  -56.2470 H         1 UNK         0.0600 
    239 H239       -4.8085  -18.5416  -55.3855 H         1 UNK         0.0600 
    240 H240       -6.2092  -17.2055  -53.8931 H         1 UNK         0.3000 
    241 H241       -5.8003  -15.7181  -52.3912 H         1 UNK         0.0600 
    242 H242       -7.0685  -18.5896  -50.8143 H         1 UNK         0.3800 
    243 H243       -7.7214  -17.7116  -49.4458 H         1 UNK         0.3800 
    244 H244       -3.8248  -17.6737  -51.1435 H         1 UNK         0.0800 
    245 H245       -3.8044  -15.9438  -50.9731 H         1 UNK         0.0800 
    246 H246       -2.1393  -14.5263  -52.3873 H         1 UNK         0.0800 
    247 H247       -1.0598  -15.3138  -53.5113 H         1 UNK         0.0800 
@<TRIPOS>BOND
     1    1    2 1    
     2    1  127 1    
     3    1  128 1    
     4    1  129 1    
     5    2    3 2    
     6    2    4 am   BACKBONE|DICT|INTERRES
     7    4    5 1    
     8    4  130 1    
     9    5    6 1    
    10    5   65 1    
    11    5  131 1    
    12    6    7 1    
    13    6  132 1    
    14    6  133 1    
    15    7    8 1    
    16    8    9 1    
    17    8  134 1    
    18    8  135 1    
    19    9   10 ar   
    20    9   14 ar   
    21   10   11 ar   
    22   10  136 1    
    23   11   12 ar   
    24   11  126 1    
    25   12   13 ar   
    26   12  137 1    
    27   13   14 ar   
    28   13   15 1    
    29   14  138 1    
    30   15   16 1    
    31   15  139 1    
    32   15  140 1    
    33   16   17 1    
    34   17   18 1    
    35   17  141 1    
    36   17  142 1    
    37   18   19 1    
    38   18   67 1    
    39   18  143 1    
    40   19   20 am   BACKBONE|DICT|INTERRES
    41   19  144 1    
    42   20   21 2    
    43   20   22 1    
    44   22   23 1    
    45   22   24 1    
    46   22  145 1    
    47   23  146 1    
    48   23  147 1    
    49   23  148 1    
    50   24   25 am   BACKBONE|DICT|INTERRES
    51   24  149 1    
    52   25   26 2    
    53   25   27 1    
    54   27   28 1    
    55   27   29 1    
    56   27  150 1    
    57   28  151 1    
    58   28  152 1    
    59   28  153 1    
    60   29   30 am   BACKBONE|DICT|INTERRES
    61   29  154 1    
    62   30   31 2    
    63   30   32 1    
    64   32   33 1    
    65   32   34 1    
    66   32  155 1    
    67   33  156 1    
    68   33  157 1    
    69   33  158 1    
    70   34   35 am   BACKBONE|DICT|INTERRES
    71   34  159 1    
    72   35   36 2    
    73   35   37 1    
    74   37   38 1    
    75   37   39 1    
    76   37  160 1    
    77   38  161 1    
    78   38  162 1    
    79   38  163 1    
    80   39   40 am   BACKBONE|DICT|INTERRES
    81   39  164 1    
    82   40   41 2    
    83   40   42 1    
    84   42   43 1    
    85   42   44 1    
    86   42  165 1    
    87   43  166 1    
    88   43  167 1    
    89   43  168 1    
    90   44   45 am   BACKBONE|DICT|INTERRES
    91   44  169 1    
    92   45   46 2    
    93   45   47 1    
    94   47   48 1    
    95   47   49 1    
    96   47  170 1    
    97   48  171 1    
    98   48  172 1    
    99   48  173 1    
   100   49   50 am   BACKBONE|DICT|INTERRES
   101   49  174 1    
   102   50   51 2    
   103   50   52 1    
   104   52   53 1    
   105   52   54 1    
   106   52  175 1    
   107   53  176 1    
   108   53  177 1    
   109   53  178 1    
   110   54   55 am   BACKBONE|DICT|INTERRES
   111   54  179 1    
   112   55   56 2    
   113   55   57 1    
   114   57   58 1    
   115   57   59 1    
   116   57  180 1    
   117   58  181 1    
   118   58  182 1    
   119   58  183 1    
   120   59   60 am   BACKBONE|DICT|INTERRES
   121   59  184 1    
   122   60   61 2    
   123   60   62 1    
   124   62   63 1    
   125   62   64 1    
   126   62  185 1    
   127   63  186 1    
   128   63  187 1    
   129   63  188 1    
   130   64   65 am   BACKBONE|DICT|INTERRES
   131   64  189 1    
   132   65   66 2    
   133   67   68 2    
   134   67   69 am   BACKBONE|DICT|INTERRES
   135   69   70 1    
   136   69  190 1    
   137   70   71 1    
   138   70   72 1    
   139   70  191 1    
   140   71  192 1    
   141   71  193 1    
   142   71  194 1    
   143   72   73 2    
   144   72   74 am   BACKBONE|DICT|INTERRES
   145   74   75 1    
   146   74  195 1    
   147   75   76 1    
   148   75   77 1    
   149   75  196 1    
   150   76  197 1    
   151   76  198 1    
   152   76  199 1    
   153   77   78 2    
   154   77   79 am   BACKBONE|DICT|INTERRES
   155   79   80 1    
   156   79  200 1    
   157   80   81 1    
   158   80   82 1    
   159   80  201 1    
   160   81  202 1    
   161   81  203 1    
   162   81  204 1    
   163   82   83 2    
   164   82   84 am   BACKBONE|DICT|INTERRES
   165   84   85 1    
   166   84  205 1    
   167   85   86 1    
   168   85   87 1    
   169   85  206 1    
   170   86  207 1    
   171   86  208 1    
   172   86  209 1    
   173   87   88 2    
   174   87   89 am   BACKBONE|DICT|INTERRES
   175   89   90 1    
   176   89  210 1    
   177   90   91 1    
   178   90   92 1    
   179   90  211 1    
   180   91  212 1    
   181   91  213 1    
   182   91  214 1    
   183   92   93 2    
   184   92   94 am   BACKBONE|DICT|INTERRES
   185   94   95 1    
   186   94  215 1    
   187   95   96 1    
   188   95   97 1    
   189   95  216 1    
   190   96  217 1    
   191   96  218 1    
   192   96  219 1    
   193   97   98 2    
   194   97   99 am   BACKBONE|DICT|INTERRES
   195   99  100 1    
   196   99  220 1    
   197  100  101 1    
   198  100  102 1    
   199  100  221 1    
   200  101  222 1    
   201  101  223 1    
   202  101  224 1    
   203  102  103 2    
   204  102  104 am   BACKBONE|DICT|INTERRES
   205  104  105 1    
   206  104  225 1    
   207  105  106 1    
   208  105  107 1    
   209  105  226 1    
   210  106  227 1    
   211  106  228 1    
   212  106  229 1    
   213  107  108 2    
   214  107  109 am   BACKBONE|DICT|INTERRES
   215  109  110 1    
   216  109  230 1    
   217  110  111 1    
   218  110  112 1    
   219  110  231 1    
   220  111  232 1    
   221  111  233 1    
   222  111  234 1    
   223  112  113 2    
   224  112  114 am   BACKBONE|DICT|INTERRES
   225  114  115 1    
   226  114  235 1    
   227  115  116 1    
   228  115  117 1    
   229  115  236 1    
   230  116  237 1    
   231  116  238 1    
   232  116  239 1    
   233  117  118 2    
   234  117  119 am   BACKBONE|DICT|INTERRES
   235  119  120 1    
   236  119  240 1    
   237  120  121 1    
   238  120  124 1    
   239  120  241 1    
   240  121  122 am   BACKBONE|DICT|INTERRES
   241  121  123 2    
   242  122  242 1    
   243  122  243 1    
   244  124  125 1    
   245  124  244 1    
   246  124  245 1    
   247  125  126 1    
   248  126  246 1    
   249  126  247 1    
@<TRIPOS>SUBSTRUCTURE
     1 UNK         1 GROUP             0       ****    0 ROOT    
