@<TRIPOS>MOLECULE
3R540
247   249    1
SMALL
USER_CHARGES


@<TRIPOS>ATOM
      1 CA          4.6354  -15.5175  -45.5823 C.3       0 UNK        -0.1800 
      2 C           3.2080  -15.6161  -46.0996 C.2       0 UNK         0.5000 
      3 O           2.2719  -15.6942  -45.3051 O.2       0 UNK        -0.5000 
      4 N           3.0308  -15.5844  -47.4275 N.am      1 UNK        -0.5000 
      5 CA          1.7291  -15.6457  -48.1120 C.3       1 UNK         0.1400 
      6 C6          1.8768  -15.8227  -49.6421 C.3       23 UNK        -0.0398 
      7 S7          2.7958  -17.3305  -50.0958 S.3       23 UNK        -0.2404 
      8 C8          1.4357  -18.5423  -50.1215 C.3       23 UNK        -0.0205 
      9 C9          1.8736  -19.9380  -50.5527 C.ar      23 UNK        -0.0193 
     10 C10         1.0861  -20.6544  -51.4563 C.ar      23 UNK        -0.1150 
     11 C11         1.4514  -21.9368  -51.8742 C.ar      23 UNK        -0.0193 
     12 C12         2.6214  -22.5102  -51.3688 C.ar      23 UNK        -0.1150 
     13 C13         3.4189  -21.8104  -50.4580 C.ar      23 UNK        -0.0193 
     14 C14         3.0360  -20.5294  -50.0481 C.ar      23 UNK        -0.1150 
     15 C15         4.7141  -22.4204  -49.9447 C.3       23 UNK        -0.0205 
     16 S16         4.7025  -22.6725  -48.1438 S.3       23 UNK        -0.2404 
     17 C17         3.5278  -24.0605  -47.9505 C.3       23 UNK        -0.0398 
     18 CA          2.4864  -23.8515  -46.8223 C.3       11 UNK         0.1400 
     19 N           3.1224  -23.4900  -45.5471 N.am      11 UNK        -0.5000 
     20 C           2.5287  -23.4723  -44.3476 C.2       10 UNK         0.5000 
     21 O           1.3509  -23.7815  -44.1737 O.2       10 UNK        -0.5000 
     22 CA          3.3600  -22.9530  -43.1598 C.3       10 UNK         0.1400 
     23 CB          4.4279  -23.9701  -42.7133 C.3       10 UNK        -0.1800 
     24 N           3.9192  -21.6149  -43.4002 N.am      10 UNK        -0.5000 
     25 C           4.8925  -21.2462  -44.2479 C.2       9 UNK         0.5000 
     26 O           5.5600  -22.0501  -44.8977 O.2       9 UNK        -0.5000 
     27 CA          5.1284  -19.7359  -44.4654 C.3       9 UNK         0.1400 
     28 CB          4.8937  -19.3763  -45.9431 C.3       9 UNK        -0.1800 
     29 N           4.2688  -18.8915  -43.6276 N.am      9 UNK        -0.5000 
     30 C           4.5945  -18.4616  -42.4003 C.2       8 UNK         0.5000 
     31 O           5.6834  -18.6797  -41.8685 O.2       8 UNK        -0.5000 
     32 CA          3.5151  -17.6848  -41.6155 C.3       8 UNK         0.1400 
     33 CB          3.6803  -16.1718  -41.8109 C.3       8 UNK        -0.1800 
     34 N           2.1311  -18.0610  -41.9276 N.am      8 UNK        -0.5000 
     35 C           1.6185  -19.2895  -41.7679 C.2       7 UNK         0.5000 
     36 O           2.2848  -20.2652  -41.4224 O.2       7 UNK        -0.5000 
     37 CA          0.1119  -19.4356  -42.0390 C.3       7 UNK         0.1400 
     38 CB         -0.4175  -20.8605  -41.7940 C.3       7 UNK        -0.1800 
     39 N          -0.6603  -18.4403  -41.2985 N.am      7 UNK        -0.5000 
     40 C          -0.7819  -18.2894  -39.9714 C.2       6 UNK         0.5000 
     41 O          -0.2986  -19.0530  -39.1354 O.2       6 UNK        -0.5000 
     42 CA         -1.5757  -17.0551  -39.4998 C.3       6 UNK         0.1400 
     43 CB         -0.6128  -15.9201  -39.1166 C.3       6 UNK        -0.1800 
     44 N          -2.4947  -16.5692  -40.5324 N.am      6 UNK        -0.5000 
     45 C          -3.7268  -17.0550  -40.7416 C.2       5 UNK         0.5000 
     46 O          -4.2687  -17.8864  -40.0127 O.2       5 UNK        -0.5000 
     47 CA         -4.4687  -16.5418  -41.9923 C.3       5 UNK         0.1400 
     48 CB         -5.2263  -15.2431  -41.6772 C.3       5 UNK        -0.1800 
     49 N          -3.5726  -16.3139  -43.1289 N.am      5 UNK        -0.5000 
     50 C          -2.9296  -17.2821  -43.7985 C.2       4 UNK         0.5000 
     51 O          -3.0795  -18.4822  -43.5737 O.2       4 UNK        -0.5000 
     52 CA         -1.9119  -16.8387  -44.8679 C.3       4 UNK         0.1400 
     53 CB         -2.5448  -16.8783  -46.2668 C.3       4 UNK        -0.1800 
     54 N          -1.3330  -15.5111  -44.6340 N.am      4 UNK        -0.5000 
     55 C          -0.5785  -15.1723  -43.5780 C.2       3 UNK         0.5000 
     56 O          -0.2822  -15.9623  -42.6800 O.2       3 UNK        -0.5000 
     57 CA         -0.0942  -13.7134  -43.5236 C.3       3 UNK         0.1400 
     58 CB          0.9779  -13.4723  -42.4474 C.3       3 UNK        -0.1800 
     59 N           0.4460  -13.3351  -44.8239 N.am      3 UNK        -0.5000 
     60 C           0.0558  -12.2895  -45.5643 C.2       2 UNK         0.5000 
     61 O          -0.8111  -11.4893  -45.2115 O.2       2 UNK        -0.5000 
     62 CA          0.7399  -12.1014  -46.9357 C.3       2 UNK         0.1400 
     63 CB          1.7509  -10.9457  -46.8770 C.3       2 UNK        -0.1800 
     64 N           1.4282  -13.3028  -47.4133 N.am      2 UNK        -0.5000 
     65 C           0.8227  -14.4333  -47.8045 C.2       1 UNK         0.5000 
     66 O          -0.3991  -14.5517  -47.8928 O.2       1 UNK        -0.5000 
     67 C           1.3580  -22.8798  -47.2411 C.2       11 UNK         0.5000 
     68 O           0.4605  -23.2744  -47.9868 O.2       11 UNK        -0.5000 
     69 N           1.3839  -21.6506  -46.7036 N.am      12 UNK        -0.5000 
     70 CA          0.3551  -20.6251  -46.8809 C.3       12 UNK         0.1400 
     71 CB          0.8852  -19.2838  -46.3510 C.3       12 UNK        -0.1800 
     72 C          -1.0062  -20.9714  -46.2399 C.2       12 UNK         0.5000 
     73 O          -2.0017  -20.3375  -46.5916 O.2       12 UNK        -0.5000 
     74 N          -1.0499  -21.9891  -45.3613 N.am      13 UNK        -0.5000 
     75 CA         -2.2615  -22.5236  -44.7214 C.3       13 UNK         0.1400 
     76 CB         -1.8724  -23.6762  -43.7812 C.3       13 UNK        -0.1800 
     77 C          -3.3453  -23.0163  -45.7032 C.2       13 UNK         0.5000 
     78 O          -4.5071  -23.1323  -45.3120 O.2       13 UNK        -0.5000 
     79 N          -2.9542  -23.2830  -46.9574 N.am      14 UNK        -0.5000 
     80 CA         -3.8378  -23.6252  -48.0703 C.3       14 UNK         0.1400 
     81 CB         -2.9697  -24.0132  -49.2786 C.3       14 UNK        -0.1800 
     82 C          -4.8213  -22.5029  -48.4652 C.2       14 UNK         0.5000 
     83 O          -5.8250  -22.8068  -49.1098 O.2       14 UNK        -0.5000 
     84 N          -4.5160  -21.2445  -48.0960 N.am      15 UNK        -0.5000 
     85 CA         -5.2560  -20.0210  -48.4374 C.3       15 UNK         0.1400 
     86 CB         -6.6371  -19.9959  -47.7512 C.3       15 UNK        -0.1800 
     87 C          -5.3354  -19.8292  -49.9647 C.2       15 UNK         0.5000 
     88 O          -6.4179  -19.6637  -50.5295 O.2       15 UNK        -0.5000 
     89 N          -4.1619  -19.9132  -50.6040 N.am      16 UNK        -0.5000 
     90 CA         -3.9591  -20.0768  -52.0438 C.3       16 UNK         0.1400 
     91 CB         -2.4537  -20.1099  -52.3159 C.3       16 UNK        -0.1800 
     92 C          -4.6362  -19.0435  -52.9579 C.2       16 UNK         0.5000 
     93 O          -4.9821  -19.3916  -54.0874 O.2       16 UNK        -0.5000 
     94 N          -4.8170  -17.8131  -52.4633 N.am      17 UNK        -0.5000 
     95 CA         -5.5071  -16.7336  -53.1702 C.3       17 UNK         0.1400 
     96 CB         -5.1756  -15.3962  -52.4910 C.3       17 UNK        -0.1800 
     97 C          -7.0326  -16.9411  -53.2382 C.2       17 UNK         0.5000 
     98 O          -7.6537  -16.5320  -54.2193 O.2       17 UNK        -0.5000 
     99 N          -7.6050  -17.5761  -52.2066 N.am      18 UNK        -0.5000 
    100 CA        -9.0253  -17.9165  -52.1258 C.3       18 UNK         0.1400 
    101 CB        -9.4686  -17.9040  -50.6542 C.3       18 UNK        -0.1800 
    102 C         -9.3014  -19.2869  -52.7646 C.2       18 UNK         0.5000 
    103 O        -10.3153  -19.4505  -53.4438 O.2       18 UNK        -0.5000 
    104 N         -8.3833  -20.2398  -52.5507 N.am      19 UNK        -0.5000 
    105 CA        -8.4386  -21.5972  -53.0961 C.3       19 UNK         0.1400 
    106 CB        -7.4551  -22.4817  -52.3146 C.3       19 UNK        -0.1800 
    107 C         -8.1401  -21.6710  -54.6072 C.2       19 UNK         0.5000 
    108 O         -8.4788  -22.6763  -55.2327 O.2       19 UNK        -0.5000 
    109 N         -7.5051  -20.6224  -55.1541 N.am      20 UNK        -0.5000 
    110 CA        -7.0225  -20.4882  -56.5330 C.3       20 UNK         0.1400 
    111 CB        -8.1954  -20.4681  -57.5355 C.3       20 UNK        -0.1800 
    112 C         -5.9407  -21.5368  -56.8675 C.2       20 UNK         0.5000 
    113 O         -5.9946  -22.1808  -57.9174 O.2       20 UNK        -0.5000 
    114 N         -4.9887  -21.6935  -55.9392 N.am      21 UNK        -0.5000 
    115 CA        -3.8457  -22.5963  -56.0421 C.3       21 UNK         0.1400 
    116 CB        -3.5903  -23.2384  -54.6626 C.3       21 UNK        -0.1800 
    117 C         -2.6447  -21.8136  -56.6051 C.2       21 UNK         0.5000 
    118 O         -2.6355  -21.4967  -57.7954 O.2       21 UNK        -0.5000 
    119 N         -1.6658  -21.4976  -55.7480 N.am      22 UNK        -0.5000 
    120 CA        -0.4710  -20.6989  -56.0766 C.3       22 UNK         0.1400 
    121 C         -0.7506  -19.1998  -56.4062 C.2       22 UNK         0.5000 
    122 N         -1.9342  -18.6602  -56.1365 N.am      22 UNK        -0.7600 
    123 O          0.1280  -18.5124  -56.9191 O.2       22 UNK        -0.5000 
    124 C124        0.6182  -20.8012  -54.9758 C.3       23 UNK        -0.0398 
    125 S125        1.1238  -22.5141  -54.5847 S.3       23 UNK        -0.2404 
    126 C126        0.5779  -22.7096  -52.8556 C.3       23 UNK        -0.0205 
    127 H127        4.7858  -14.5587  -45.0866 H         1 UNK         0.0600 
    128 H128        5.3646  -15.6058  -46.3877 H         1 UNK         0.0600 
    129 H129        4.8323  -16.3065  -44.8579 H         1 UNK         0.0600 
    130 H130        3.8373  -15.5369  -48.0341 H         1 UNK         0.3000 
    131 H131        1.2055  -16.5207  -47.7226 H         1 UNK         0.0600 
    132 H132        2.4007  -14.9680  -50.0737 H         1 UNK         0.0800 
    133 H133        0.8990  -15.8503  -50.1272 H         1 UNK         0.0800 
    134 H134        0.6586  -18.1713  -50.7918 H         1 UNK         0.0800 
    135 H135        0.9863  -18.6008  -49.1321 H         1 UNK         0.0800 
    136 H136        0.1859  -20.2032  -51.8376 H         1 UNK         0.1150 
    137 H137        2.9131  -23.4993  -51.6929 H         1 UNK         0.1150 
    138 H138        3.6513  -19.9911  -49.3408 H         1 UNK         0.1150 
    139 H139        4.9275  -23.3691  -50.4398 H         1 UNK         0.0800 
    140 H140        5.5383  -21.7523  -50.1977 H         1 UNK         0.0800 
    141 H141        4.1162  -24.9521  -47.7310 H         1 UNK         0.0800 
    142 H142        3.0299  -24.2692  -48.8991 H         1 UNK         0.0800 
    143 H143        1.9969  -24.8144  -46.6614 H         1 UNK         0.0600 
    144 H144        4.0873  -23.1746  -45.6010 H         1 UNK         0.3000 
    145 H145        2.6674  -22.8329  -42.3253 H         1 UNK         0.0600 
    146 H146        3.9620  -24.9086  -42.4108 H         1 UNK         0.0600 
    147 H147        4.9921  -23.5972  -41.8585 H         1 UNK         0.0600 
    148 H148        5.1369  -24.2047  -43.5072 H         1 UNK         0.0600 
    149 H149        3.4589  -20.8850  -42.8655 H         1 UNK         0.3000 
    150 H150        6.1768  -19.5351  -44.2357 H         1 UNK         0.0600 
    151 H151        3.8816  -19.6188  -46.2617 H         1 UNK         0.0600 
    152 H152        5.5751  -19.9275  -46.5926 H         1 UNK         0.0600 
    153 H153        5.0648  -18.3181  -46.1321 H         1 UNK         0.0600 
    154 H154        3.3589  -18.6529  -43.9929 H         1 UNK         0.3000 
    155 H155        3.6757  -17.9039  -40.5579 H         1 UNK         0.0600 
    156 H156        3.0217  -15.6171  -41.1425 H         1 UNK         0.0600 
    157 H157        3.4511  -15.8737  -42.8333 H         1 UNK         0.0600 
    158 H158        4.7017  -15.8550  -41.5960 H         1 UNK         0.0600 
    159 H159        1.5089  -17.3102  -42.2039 H         1 UNK         0.3000 
    160 H160       -0.0359  -19.2119  -43.0961 H         1 UNK         0.0600 
    161 H161       -0.2902  -21.1749  -40.7580 H         1 UNK         0.0600 
    162 H162        0.1181  -21.5757  -42.4183 H         1 UNK         0.0600 
    163 H163       -1.4765  -20.9332  -42.0409 H         1 UNK         0.0600 
    164 H164       -1.0267  -17.6857  -41.8647 H         1 UNK         0.3000 
    165 H165       -2.1428  -17.3376  -38.6104 H         1 UNK         0.0600 
    166 H166       -1.1557  -15.0406  -38.7701 H         1 UNK         0.0600 
    167 H167        0.0525  -16.2303  -38.3098 H         1 UNK         0.0600 
    168 H168        0.0129  -15.6203  -39.9577 H         1 UNK         0.0600 
    169 H169       -2.1159  -15.9029  -41.1902 H         1 UNK         0.3000 
    170 H170       -5.1982  -17.3015  -42.2812 H         1 UNK         0.0600 
    171 H171       -4.5469  -14.4354  -41.4018 H         1 UNK         0.0600 
    172 H172       -5.9185  -15.3873  -40.8465 H         1 UNK         0.0600 
    173 H173       -5.8135  -14.9113  -42.5337 H         1 UNK         0.0600 
    174 H174       -3.4036  -15.3544  -43.3921 H         1 UNK         0.3000 
    175 H175       -1.0960  -17.5616  -44.8385 H         1 UNK         0.0600 
    176 H176       -3.0221  -17.8405  -46.4554 H         1 UNK         0.0600 
    177 H177       -3.3054  -16.1062  -46.3870 H         1 UNK         0.0600 
    178 H178       -1.7933  -16.7357  -47.0430 H         1 UNK         0.0600 
    179 H179       -1.5009  -14.8151  -45.3470 H         1 UNK         0.3000 
    180 H180       -0.9676  -13.1078  -43.2747 H         1 UNK         0.0600 
    181 H181        1.8802  -14.0472  -42.6521 H         1 UNK         0.0600 
    182 H182        0.6185  -13.7534  -41.4572 H         1 UNK         0.0600 
    183 H183        1.2578  -12.4199  -42.4032 H         1 UNK         0.0600 
    184 H184        1.1349  -13.9784  -45.2007 H         1 UNK         0.3000 
    185 H185       -0.0377  -11.8424  -47.6574 H         1 UNK         0.0600 
    186 H186        2.1935  -10.7579  -47.8554 H         1 UNK         0.0600 
    187 H187        1.2696  -10.0205  -46.5573 H         1 UNK         0.0600 
    188 H188        2.5597  -11.1543  -46.1755 H         1 UNK         0.0600 
    189 H189        2.4368  -13.2935  -47.3680 H         1 UNK         0.3000 
    190 H190        2.1600  -21.4207  -46.1031 H         1 UNK         0.3000 
    191 H191        0.1772  -20.5228  -47.9530 H         1 UNK         0.0600 
    192 H192        1.7913  -18.9823  -46.8746 H         1 UNK         0.0600 
    193 H193        0.1566  -18.4899  -46.5117 H         1 UNK         0.0600 
    194 H194        1.1066  -19.3247  -45.2845 H         1 UNK         0.0600 
    195 H195       -0.1886  -22.4733  -45.1398 H         1 UNK         0.3000 
    196 H196       -2.7015  -21.7197  -44.1278 H         1 UNK         0.0600 
    197 H197       -2.7474  -24.0754  -43.2665 H         1 UNK         0.0600 
    198 H198       -1.1711  -23.3565  -43.0135 H         1 UNK         0.0600 
    199 H199       -1.4111  -24.4991  -44.3288 H         1 UNK         0.0600 
    200 H200       -1.9732  -23.1807  -47.1798 H         1 UNK         0.3000 
    201 H201       -4.4305  -24.4934  -47.7751 H         1 UNK         0.0600 
    202 H202       -3.5875  -24.3043  -50.1293 H         1 UNK         0.0600 
    203 H203       -2.3216  -24.8581  -49.0447 H         1 UNK         0.0600 
    204 H204       -2.3359  -23.1855  -49.6007 H         1 UNK         0.0600 
    205 H205       -3.6657  -21.0997  -47.5606 H         1 UNK         0.3000 
    206 H206       -4.6760  -19.1845  -48.0451 H         1 UNK         0.0600 
    207 H207       -6.5426  -20.1271  -46.6733 H         1 UNK         0.0600 
    208 H208       -7.1379  -19.0421  -47.9211 H         1 UNK         0.0600 
    209 H209       -7.2950  -20.7796  -48.1281 H         1 UNK         0.0600 
    210 H210       -3.3387  -20.0382  -50.0338 H         1 UNK         0.3000 
    211 H211       -4.3734  -21.0499  -52.3079 H         1 UNK         0.0600 
    212 H212       -1.9694  -19.1898  -51.9860 H         1 UNK         0.0600 
    213 H213       -2.2431  -20.2255  -53.3777 H         1 UNK         0.0600 
    214 H214       -1.9918  -20.9457  -51.7919 H         1 UNK         0.0600 
    215 H215       -4.4953  -17.6180  -51.5269 H         1 UNK         0.3000 
    216 H216       -5.1311  -16.6971  -54.1951 H         1 UNK         0.0600 
    217 H217       -5.6563  -14.5655  -53.0094 H         1 UNK         0.0600 
    218 H218       -4.1023  -15.2054  -52.4991 H         1 UNK         0.0600 
    219 H219       -5.5134  -15.3759  -51.4540 H         1 UNK         0.0600 
    220 H220       -7.0144  -17.9513  -51.4735 H         1 UNK         0.3000 
    221 H221       -9.6136  -17.1678  -52.6608 H         1 UNK         0.0600 
    222 H222       -8.9245  -18.6385  -50.0592 H         1 UNK         0.0600 
    223 H223       -9.3086  -16.9243  -50.2038 H         1 UNK         0.0600 
    224 H224      -10.5313  -18.1331  -50.5659 H         1 UNK         0.0600 
    225 H225       -7.6116  -20.0336  -51.9211 H         1 UNK         0.3000 
    226 H226       -9.4464  -21.9876  -52.9407 H         1 UNK         0.0600 
    227 H227       -7.5078  -23.5184  -52.6493 H         1 UNK         0.0600 
    228 H228       -6.4259  -22.1485  -52.4427 H         1 UNK         0.0600 
    229 H229       -7.6779  -22.4729  -51.2474 H         1 UNK         0.0600 
    230 H230       -7.2299  -19.8753  -54.5312 H         1 UNK         0.3000 
    231 H231       -6.5299  -19.5162  -56.5885 H         1 UNK         0.0600 
    232 H232       -8.7083  -21.4289  -57.5843 H         1 UNK         0.0600 
    233 H233       -7.8430  -20.2360  -58.5410 H         1 UNK         0.0600 
    234 H234       -8.9299  -19.7091  -57.2659 H         1 UNK         0.0600 
    235 H235       -5.0039  -21.0586  -55.1477 H         1 UNK         0.3000 
    236 H236       -4.0649  -23.4022  -56.7456 H         1 UNK         0.0600 
    237 H237       -3.3949  -22.4983  -53.8883 H         1 UNK         0.0600 
    238 H238       -4.4539  -23.8225  -54.3436 H         1 UNK         0.0600 
    239 H239       -2.7391  -23.9199  -54.6977 H         1 UNK         0.0600 
    240 H240       -1.7292  -21.8314  -54.7996 H         1 UNK         0.3000 
    241 H241       -0.0499  -21.1271  -56.9883 H         1 UNK         0.0600 
    242 H242       -2.0936  -17.6914  -56.3631 H         1 UNK         0.3800 
    243 H243       -2.6782  -19.2096  -55.7391 H         1 UNK         0.3800 
    244 H244        0.2744  -20.2988  -54.0739 H         1 UNK         0.0800 
    245 H245        1.5187  -20.2680  -55.2857 H         1 UNK         0.0800 
    246 H246       -0.4656  -22.4108  -52.7638 H         1 UNK         0.0800 
    247 H247        0.6054  -23.7705  -52.6022 H         1 UNK         0.0800 
@<TRIPOS>BOND
     1    1    2 1    
     2    1  127 1    
     3    1  128 1    
     4    1  129 1    
     5    2    3 2    
     6    2    4 am   BACKBONE|DICT|INTERRES
     7    4    5 1    
     8    4  130 1    
     9    5    6 1    
    10    5   65 1    
    11    5  131 1    
    12    6    7 1    
    13    6  132 1    
    14    6  133 1    
    15    7    8 1    
    16    8    9 1    
    17    8  134 1    
    18    8  135 1    
    19    9   10 ar   
    20    9   14 ar   
    21   10   11 ar   
    22   10  136 1    
    23   11   12 ar   
    24   11  126 1    
    25   12   13 ar   
    26   12  137 1    
    27   13   14 ar   
    28   13   15 1    
    29   14  138 1    
    30   15   16 1    
    31   15  139 1    
    32   15  140 1    
    33   16   17 1    
    34   17   18 1    
    35   17  141 1    
    36   17  142 1    
    37   18   19 1    
    38   18   67 1    
    39   18  143 1    
    40   19   20 am   BACKBONE|DICT|INTERRES
    41   19  144 1    
    42   20   21 2    
    43   20   22 1    
    44   22   23 1    
    45   22   24 1    
    46   22  145 1    
    47   23  146 1    
    48   23  147 1    
    49   23  148 1    
    50   24   25 am   BACKBONE|DICT|INTERRES
    51   24  149 1    
    52   25   26 2    
    53   25   27 1    
    54   27   28 1    
    55   27   29 1    
    56   27  150 1    
    57   28  151 1    
    58   28  152 1    
    59   28  153 1    
    60   29   30 am   BACKBONE|DICT|INTERRES
    61   29  154 1    
    62   30   31 2    
    63   30   32 1    
    64   32   33 1    
    65   32   34 1    
    66   32  155 1    
    67   33  156 1    
    68   33  157 1    
    69   33  158 1    
    70   34   35 am   BACKBONE|DICT|INTERRES
    71   34  159 1    
    72   35   36 2    
    73   35   37 1    
    74   37   38 1    
    75   37   39 1    
    76   37  160 1    
    77   38  161 1    
    78   38  162 1    
    79   38  163 1    
    80   39   40 am   BACKBONE|DICT|INTERRES
    81   39  164 1    
    82   40   41 2    
    83   40   42 1    
    84   42   43 1    
    85   42   44 1    
    86   42  165 1    
    87   43  166 1    
    88   43  167 1    
    89   43  168 1    
    90   44   45 am   BACKBONE|DICT|INTERRES
    91   44  169 1    
    92   45   46 2    
    93   45   47 1    
    94   47   48 1    
    95   47   49 1    
    96   47  170 1    
    97   48  171 1    
    98   48  172 1    
    99   48  173 1    
   100   49   50 am   BACKBONE|DICT|INTERRES
   101   49  174 1    
   102   50   51 2    
   103   50   52 1    
   104   52   53 1    
   105   52   54 1    
   106   52  175 1    
   107   53  176 1    
   108   53  177 1    
   109   53  178 1    
   110   54   55 am   BACKBONE|DICT|INTERRES
   111   54  179 1    
   112   55   56 2    
   113   55   57 1    
   114   57   58 1    
   115   57   59 1    
   116   57  180 1    
   117   58  181 1    
   118   58  182 1    
   119   58  183 1    
   120   59   60 am   BACKBONE|DICT|INTERRES
   121   59  184 1    
   122   60   61 2    
   123   60   62 1    
   124   62   63 1    
   125   62   64 1    
   126   62  185 1    
   127   63  186 1    
   128   63  187 1    
   129   63  188 1    
   130   64   65 am   BACKBONE|DICT|INTERRES
   131   64  189 1    
   132   65   66 2    
   133   67   68 2    
   134   67   69 am   BACKBONE|DICT|INTERRES
   135   69   70 1    
   136   69  190 1    
   137   70   71 1    
   138   70   72 1    
   139   70  191 1    
   140   71  192 1    
   141   71  193 1    
   142   71  194 1    
   143   72   73 2    
   144   72   74 am   BACKBONE|DICT|INTERRES
   145   74   75 1    
   146   74  195 1    
   147   75   76 1    
   148   75   77 1    
   149   75  196 1    
   150   76  197 1    
   151   76  198 1    
   152   76  199 1    
   153   77   78 2    
   154   77   79 am   BACKBONE|DICT|INTERRES
   155   79   80 1    
   156   79  200 1    
   157   80   81 1    
   158   80   82 1    
   159   80  201 1    
   160   81  202 1    
   161   81  203 1    
   162   81  204 1    
   163   82   83 2    
   164   82   84 am   BACKBONE|DICT|INTERRES
   165   84   85 1    
   166   84  205 1    
   167   85   86 1    
   168   85   87 1    
   169   85  206 1    
   170   86  207 1    
   171   86  208 1    
   172   86  209 1    
   173   87   88 2    
   174   87   89 am   BACKBONE|DICT|INTERRES
   175   89   90 1    
   176   89  210 1    
   177   90   91 1    
   178   90   92 1    
   179   90  211 1    
   180   91  212 1    
   181   91  213 1    
   182   91  214 1    
   183   92   93 2    
   184   92   94 am   BACKBONE|DICT|INTERRES
   185   94   95 1    
   186   94  215 1    
   187   95   96 1    
   188   95   97 1    
   189   95  216 1    
   190   96  217 1    
   191   96  218 1    
   192   96  219 1    
   193   97   98 2    
   194   97   99 am   BACKBONE|DICT|INTERRES
   195   99  100 1    
   196   99  220 1    
   197  100  101 1    
   198  100  102 1    
   199  100  221 1    
   200  101  222 1    
   201  101  223 1    
   202  101  224 1    
   203  102  103 2    
   204  102  104 am   BACKBONE|DICT|INTERRES
   205  104  105 1    
   206  104  225 1    
   207  105  106 1    
   208  105  107 1    
   209  105  226 1    
   210  106  227 1    
   211  106  228 1    
   212  106  229 1    
   213  107  108 2    
   214  107  109 am   BACKBONE|DICT|INTERRES
   215  109  110 1    
   216  109  230 1    
   217  110  111 1    
   218  110  112 1    
   219  110  231 1    
   220  111  232 1    
   221  111  233 1    
   222  111  234 1    
   223  112  113 2    
   224  112  114 am   BACKBONE|DICT|INTERRES
   225  114  115 1    
   226  114  235 1    
   227  115  116 1    
   228  115  117 1    
   229  115  236 1    
   230  116  237 1    
   231  116  238 1    
   232  116  239 1    
   233  117  118 2    
   234  117  119 am   BACKBONE|DICT|INTERRES
   235  119  120 1    
   236  119  240 1    
   237  120  121 1    
   238  120  124 1    
   239  120  241 1    
   240  121  122 am   BACKBONE|DICT|INTERRES
   241  121  123 2    
   242  122  242 1    
   243  122  243 1    
   244  124  125 1    
   245  124  244 1    
   246  124  245 1    
   247  125  126 1    
   248  126  246 1    
   249  126  247 1    
@<TRIPOS>SUBSTRUCTURE
     1 UNK         1 GROUP             0       ****    0 ROOT    
