@<TRIPOS>MOLECULE
3R540
247   249    1
SMALL
USER_CHARGES


@<TRIPOS>ATOM
      1 CA          3.7804  -20.7912  -45.6114 C.3       0 UNK        -0.1800 
      2 C           3.5409  -19.3220  -45.3004 C.2       0 UNK         0.5000 
      3 O           3.4090  -18.9580  -44.1323 O.2       0 UNK        -0.5000 
      4 N           3.5102  -18.4680  -46.3338 N.am      1 UNK        -0.5000 
      5 CA          3.2552  -17.0218  -46.2340 C.3       1 UNK         0.1400 
      6 C6          3.0574  -16.3624  -47.6203 C.3       23 UNK        -0.0398 
      7 S7          4.5120  -16.5008  -48.7177 S.3       23 UNK        -0.2404 
      8 C8          3.7982  -16.0043  -50.3219 C.3       23 UNK        -0.0205 
      9 C9          2.6875  -16.9314  -50.8029 C.ar      23 UNK        -0.0193 
     10 C10         1.5011  -16.3960  -51.3173 C.ar      23 UNK        -0.1150 
     11 C11         0.4799  -17.2383  -51.7670 C.ar      23 UNK        -0.0193 
     12 C12         0.6470  -18.6219  -51.6847 C.ar      23 UNK        -0.1150 
     13 C13         1.8136  -19.1709  -51.1508 C.ar      23 UNK        -0.0193 
     14 C14         2.8409  -18.3207  -50.7383 C.ar      23 UNK        -0.1150 
     15 C15         1.9570  -20.6799  -51.0131 C.3       23 UNK        -0.0205 
     16 S16         2.1934  -21.2037  -49.2820 S.3       23 UNK        -0.2404 
     17 C17         0.7632  -20.4489  -48.4334 C.3       23 UNK        -0.0398 
     18 CA          0.3382  -21.2584  -47.1821 C.3       11 UNK         0.1400 
     19 N          -0.1353  -20.3871  -46.0987 N.am      11 UNK        -0.5000 
     20 C          -0.3257  -20.7857  -44.8308 C.2       10 UNK         0.5000 
     21 O          -0.1174  -21.9336  -44.4378 O.2       10 UNK        -0.5000 
     22 CA         -0.8920  -19.7419  -43.8551 C.3       10 UNK         0.1400 
     23 CB          0.2061  -18.7875  -43.3662 C.3       10 UNK        -0.1800 
     24 N          -1.9813  -18.9904  -44.4800 N.am      10 UNK        -0.5000 
     25 C          -3.2466  -19.4331  -44.5338 C.2       9 UNK         0.5000 
     26 O          -3.6396  -20.4359  -43.9380 O.2       9 UNK        -0.5000 
     27 CA         -4.2416  -18.6614  -45.4225 C.3       9 UNK         0.1400 
     28 CB         -5.1907  -17.7909  -44.5856 C.3       9 UNK        -0.1800 
     29 N          -3.5923  -17.8412  -46.4475 N.am      9 UNK        -0.5000 
     30 C          -3.0187  -18.3444  -47.5499 C.2       8 UNK         0.5000 
     31 O          -2.9897  -19.5443  -47.8062 O.2       8 UNK        -0.5000 
     32 CA         -2.3119  -17.3632  -48.5018 C.3       8 UNK         0.1400 
     33 CB         -3.3092  -16.8312  -49.5419 C.3       8 UNK        -0.1800 
     34 N          -1.6820  -16.2382  -47.8099 N.am      8 UNK        -0.5000 
     35 C          -0.7361  -16.3422  -46.8663 C.2       7 UNK         0.5000 
     36 O          -0.2561  -17.4173  -46.5008 O.2       7 UNK        -0.5000 
     37 CA         -0.2841  -15.0378  -46.1760 C.3       7 UNK         0.1400 
     38 CB         -0.5676  -13.7668  -47.0047 C.3       7 UNK        -0.1800 
     39 N          -0.8445  -14.8950  -44.8278 N.am      7 UNK        -0.5000 
     40 C          -2.1366  -14.9594  -44.4673 C.2       6 UNK         0.5000 
     41 O          -3.0600  -15.2055  -45.2440 O.2       6 UNK        -0.5000 
     42 CA         -2.4531  -14.6855  -42.9858 C.3       6 UNK         0.1400 
     43 CB         -2.3659  -15.9731  -42.1535 C.3       6 UNK        -0.1800 
     44 N          -1.5625  -13.6898  -42.3933 N.am      6 UNK        -0.5000 
     45 C          -1.5865  -12.3756  -42.6356 C.2       5 UNK         0.5000 
     46 O          -2.3959  -11.8344  -43.3892 O.2       5 UNK        -0.5000 
     47 CA         -0.5248  -11.5190  -41.9165 C.3       5 UNK         0.1400 
     48 CB         -0.8349  -11.3897  -40.4124 C.3       5 UNK        -0.1800 
     49 N           0.8653  -11.9447  -42.1415 N.am      5 UNK        -0.5000 
     50 C           1.4773  -13.0808  -41.7749 C.2       4 UNK         0.5000 
     51 O           0.9108  -14.0091  -41.1927 O.2       4 UNK        -0.5000 
     52 CA          2.9652  -13.1819  -42.1671 C.3       4 UNK         0.1400 
     53 CB          3.8290  -12.1501  -41.4122 C.3       4 UNK        -0.1800 
     54 N           3.5199  -14.5331  -42.0369 N.am      4 UNK        -0.5000 
     55 C           3.7697  -15.2406  -40.9217 C.2       3 UNK         0.5000 
     56 O           3.5820  -14.8256  -39.7771 O.2       3 UNK        -0.5000 
     57 CA          4.3514  -16.6601  -41.1121 C.3       3 UNK         0.1400 
     58 CB          3.2407  -17.7114  -40.9655 C.3       3 UNK        -0.1800 
     59 N           5.0148  -16.8545  -42.4040 N.am      3 UNK        -0.5000 
     60 C           6.1254  -16.2146  -42.8038 C.2       2 UNK         0.5000 
     61 O           6.7998  -15.4991  -42.0623 O.2       2 UNK        -0.5000 
     62 CA          6.5380  -16.3593  -44.2851 C.3       2 UNK         0.1400 
     63 CB          7.7439  -17.3018  -44.4182 C.3       2 UNK        -0.1800 
     64 N           5.4699  -16.8380  -45.1666 N.am      2 UNK        -0.5000 
     65 C           4.2846  -16.2468  -45.3800 C.2       1 UNK         0.5000 
     66 O           3.9654  -15.1618  -44.8920 O.2       1 UNK        -0.5000 
     67 C          -0.6608  -22.3886  -47.5238 C.2       11 UNK         0.5000 
     68 O          -0.2416  -23.4695  -47.9419 O.2       11 UNK        -0.5000 
     69 N          -1.9598  -22.1494  -47.2843 N.am      12 UNK        -0.5000 
     70 CA         -3.0699  -23.0922  -47.4472 C.3       12 UNK         0.1400 
     71 CB         -4.3893  -22.4139  -47.0539 C.3       12 UNK        -0.1800 
     72 C          -2.9216  -24.4277  -46.6980 C.2       12 UNK         0.5000 
     73 O          -3.5146  -25.4160  -47.1294 O.2       12 UNK        -0.5000 
     74 N          -2.1084  -24.4506  -45.6336 N.am      13 UNK        -0.5000 
     75 CA         -1.7473  -25.6535  -44.8833 C.3       13 UNK         0.1400 
     76 CB         -0.9460  -25.2383  -43.6402 C.3       13 UNK        -0.1800 
     77 C          -0.9589  -26.6930  -45.7094 C.2       13 UNK         0.5000 
     78 O          -0.9741  -27.8709  -45.3489 O.2       13 UNK        -0.5000 
     79 N          -0.2934  -26.2516  -46.7868 N.am      14 UNK        -0.5000 
     80 CA          0.4858  -27.0996  -47.6877 C.3       14 UNK         0.1400 
     81 CB          1.9730  -26.7308  -47.5604 C.3       14 UNK        -0.1800 
     82 C           0.0238  -26.9680  -49.1482 C.2       14 UNK         0.5000 
     83 O          -0.0905  -27.9822  -49.8374 O.2       14 UNK        -0.5000 
     84 N          -0.2072  -25.7314  -49.6077 N.am      15 UNK        -0.5000 
     85 CA         -0.4050  -25.4070  -51.0222 C.3       15 UNK         0.1400 
     86 CB          0.2819  -24.0583  -51.2965 C.3       15 UNK        -0.1800 
     87 C          -1.8811  -25.3341  -51.4531 C.2       15 UNK         0.5000 
     88 O          -2.1401  -25.2539  -52.6540 O.2       15 UNK        -0.5000 
     89 N          -2.8137  -25.2990  -50.4863 N.am      16 UNK        -0.5000 
     90 CA         -4.2519  -25.0180  -50.6608 C.3       16 UNK         0.1400 
     91 CB         -4.9501  -26.1434  -51.4507 C.3       16 UNK        -0.1800 
     92 C          -4.5306  -23.6147  -51.2555 C.2       16 UNK         0.5000 
     93 O          -5.5631  -23.3950  -51.8910 O.2       16 UNK        -0.5000 
     94 N          -3.5925  -22.6850  -51.0266 N.am      17 UNK        -0.5000 
     95 CA         -3.5160  -21.3467  -51.6081 C.3       17 UNK         0.1400 
     96 CB         -2.2715  -20.6487  -51.0555 C.3       17 UNK        -0.1800 
     97 C          -4.7514  -20.4592  -51.3994 C.2       17 UNK         0.5000 
     98 O          -5.0826  -19.6867  -52.2963 O.2       17 UNK        -0.5000 
     99 N          -5.4145  -20.5850  -50.2435 N.am      18 UNK        -0.5000 
    100 CA        -6.6336  -19.8409  -49.9202 C.3       18 UNK         0.1400 
    101 CB        -6.9264  -19.9594  -48.4185 C.3       18 UNK        -0.1800 
    102 C         -7.8490  -20.2930  -50.7510 C.2       18 UNK         0.5000 
    103 O         -8.6772  -19.4572  -51.1122 O.2       18 UNK        -0.5000 
    104 N         -7.9199  -21.5946  -51.0648 N.am      19 UNK        -0.5000 
    105 CA        -8.9485  -22.1774  -51.9285 C.3       19 UNK         0.1400 
    106 CB        -9.0522  -23.6866  -51.6582 C.3       19 UNK        -0.1800 
    107 C         -8.6553  -21.9047  -53.4141 C.2       19 UNK         0.5000 
    108 O         -9.5816  -21.6509  -54.1844 O.2       19 UNK        -0.5000 
    109 N         -7.3663  -21.9318  -53.7785 N.am      20 UNK        -0.5000 
    110 CA        -6.8632  -21.6270  -55.1190 C.3       20 UNK         0.1400 
    111 CB        -5.4493  -22.2144  -55.2514 C.3       20 UNK        -0.1800 
    112 C         -6.8462  -20.1195  -55.4507 C.2       20 UNK         0.5000 
    113 O         -6.6006  -19.7671  -56.6050 O.2       20 UNK        -0.5000 
    114 N         -7.0496  -19.2596  -54.4402 N.am      21 UNK        -0.5000 
    115 CA        -6.9640  -17.7930  -54.4784 C.3       21 UNK         0.1400 
    116 CB        -8.1330  -17.2041  -55.2940 C.3       21 UNK        -0.1800 
    117 C         -5.5803  -17.2924  -54.9522 C.2       21 UNK         0.5000 
    118 O         -5.4895  -16.3262  -55.7114 O.2       21 UNK        -0.5000 
    119 N         -4.5294  -17.9980  -54.5146 N.am      22 UNK        -0.5000 
    120 CA        -3.1305  -17.8604  -54.9510 C.3       22 UNK         0.1400 
    121 C         -2.8614  -18.2713  -56.4365 C.2       22 UNK         0.5000 
    122 N         -3.7946  -18.8993  -57.1435 N.am      22 UNK        -0.7600 
    123 O         -1.7739  -18.0489  -56.9605 O.2       22 UNK        -0.5000 
    124 C124       -2.5209  -16.4788  -54.5678 C.3       23 UNK        -0.0398 
    125 S125       -0.7446  -16.5822  -54.1505 S.3       23 UNK        -0.2404 
    126 C126       -0.8097  -16.6693  -52.3364 C.3       23 UNK        -0.0205 
    127 H127        2.9932  -21.4001  -45.1670 H         1 UNK         0.0600 
    128 H128        4.7345  -21.1106  -45.1929 H         1 UNK         0.0600 
    129 H129        3.7974  -20.9816  -46.6843 H         1 UNK         0.0600 
    130 H130        3.6604  -18.8158  -47.2703 H         1 UNK         0.3000 
    131 H131        2.3099  -16.9277  -45.6973 H         1 UNK         0.0600 
    132 H132        2.1994  -16.8253  -48.1092 H         1 UNK         0.0800 
    133 H133        2.8034  -15.3063  -47.5147 H         1 UNK         0.0800 
    134 H134        3.4366  -14.9781  -50.2395 H         1 UNK         0.0800 
    135 H135        4.5909  -15.9942  -51.0708 H         1 UNK         0.0800 
    136 H136        1.3740  -15.3242  -51.3776 H         1 UNK         0.1150 
    137 H137       -0.1317  -19.2717  -52.0489 H         1 UNK         0.1150 
    138 H138        3.7522  -18.7455  -50.3417 H         1 UNK         0.1150 
    139 H139        1.0867  -21.1922  -51.4233 H         1 UNK         0.0800 
    140 H140        2.8129  -21.0112  -51.6023 H         1 UNK         0.0800 
    141 H141        1.0722  -19.4420  -48.1476 H         1 UNK         0.0800 
    142 H142       -0.0659  -20.3140  -49.1283 H         1 UNK         0.0800 
    143 H143        1.2245  -21.7578  -46.7867 H         1 UNK         0.0600 
    144 H144       -0.2983  -19.4126  -46.3306 H         1 UNK         0.3000 
    145 H145       -1.2723  -20.2752  -42.9810 H         1 UNK         0.0600 
    146 H146        1.0292  -19.3475  -42.9212 H         1 UNK         0.0600 
    147 H147        0.6207  -18.1828  -44.1719 H         1 UNK         0.0600 
    148 H148       -0.1693  -18.1156  -42.5978 H         1 UNK         0.0600 
    149 H149       -1.7189  -18.1868  -45.0349 H         1 UNK         0.3000 
    150 H150       -4.8509  -19.4150  -45.9234 H         1 UNK         0.0600 
    151 H151       -5.6947  -18.3840  -43.8214 H         1 UNK         0.0600 
    152 H152       -5.9641  -17.3446  -45.2110 H         1 UNK         0.0600 
    153 H153       -4.6665  -16.9824  -44.0799 H         1 UNK         0.0600 
    154 H154       -3.5294  -16.8440  -46.2625 H         1 UNK         0.3000 
    155 H155       -1.5260  -17.9125  -49.0247 H         1 UNK         0.0600 
    156 H156       -2.8333  -16.1343  -50.2305 H         1 UNK         0.0600 
    157 H157       -4.1433  -16.3110  -49.0690 H         1 UNK         0.0600 
    158 H158       -3.7258  -17.6459  -50.1362 H         1 UNK         0.0600 
    159 H159       -2.0510  -15.3208  -48.0134 H         1 UNK         0.3000 
    160 H160        0.7959  -15.1117  -46.0530 H         1 UNK         0.0600 
    161 H161       -1.6349  -13.5643  -47.1017 H         1 UNK         0.0600 
    162 H162       -0.1481  -13.8476  -48.0086 H         1 UNK         0.0600 
    163 H163       -0.1129  -12.8929  -46.5379 H         1 UNK         0.0600 
    164 H164       -0.1749  -14.7104  -44.0955 H         1 UNK         0.3000 
    165 H165       -3.4782  -14.3126  -42.9340 H         1 UNK         0.0600 
    166 H166       -1.3317  -16.2850  -42.0151 H         1 UNK         0.0600 
    167 H167       -2.7993  -15.8264  -41.1641 H         1 UNK         0.0600 
    168 H168       -2.9002  -16.7988  -42.6220 H         1 UNK         0.0600 
    169 H169       -0.8204  -14.0306  -41.7853 H         1 UNK         0.3000 
    170 H170       -0.5957  -10.5176  -42.3446 H         1 UNK         0.0600 
    171 H171       -1.8388  -10.9933  -40.2554 H         1 UNK         0.0600 
    172 H172       -0.7804  -12.3489  -39.8970 H         1 UNK         0.0600 
    173 H173       -0.1373  -10.7088  -39.9248 H         1 UNK         0.0600 
    174 H174        1.4207  -11.2695  -42.6487 H         1 UNK         0.3000 
    175 H175        3.0252  -12.9501  -43.2316 H         1 UNK         0.0600 
    176 H176        3.7355  -12.2522  -40.3307 H         1 UNK         0.0600 
    177 H177        4.8832  -12.2557  -41.6691 H         1 UNK         0.0600 
    178 H178        3.5374  -11.1304  -41.6652 H         1 UNK         0.0600 
    179 H179        3.7152  -14.9821  -42.9257 H         1 UNK         0.3000 
    180 H180        5.0897  -16.8248  -40.3248 H         1 UNK         0.0600 
    181 H181        2.4724  -17.5878  -41.7296 H         1 UNK         0.0600 
    182 H182        2.7524  -17.6330  -39.9934 H         1 UNK         0.0600 
    183 H183        3.6379  -18.7231  -41.0508 H         1 UNK         0.0600 
    184 H184        4.5359  -17.4554  -43.0660 H         1 UNK         0.3000 
    185 H185        6.8338  -15.3686  -44.6356 H         1 UNK         0.0600 
    186 H186        8.1006  -17.3444  -45.4475 H         1 UNK         0.0600 
    187 H187        8.5771  -16.9619  -43.8016 H         1 UNK         0.0600 
    188 H188        7.4962  -18.3169  -44.1050 H         1 UNK         0.0600 
    189 H189        5.6257  -17.7319  -45.6089 H         1 UNK         0.3000 
    190 H190       -2.2248  -21.2020  -47.0358 H         1 UNK         0.3000 
    191 H191       -3.1164  -23.3350  -48.5046 H         1 UNK         0.0600 
    192 H192       -5.2358  -23.0891  -47.1869 H         1 UNK         0.0600 
    193 H193       -4.5816  -21.5367  -47.6663 H         1 UNK         0.0600 
    194 H194       -4.3816  -22.1002  -46.0100 H         1 UNK         0.0600 
    195 H195       -1.6509  -23.5922  -45.3550 H         1 UNK         0.3000 
    196 H196       -2.6717  -26.1311  -44.5525 H         1 UNK         0.0600 
    197 H197       -0.6952  -26.1054  -43.0277 H         1 UNK         0.0600 
    198 H198       -1.5154  -24.5516  -43.0136 H         1 UNK         0.0600 
    199 H199       -0.0111  -24.7463  -43.9122 H         1 UNK         0.0600 
    200 H200       -0.3371  -25.2648  -47.0155 H         1 UNK         0.3000 
    201 H201        0.3774  -28.1517  -47.4161 H         1 UNK         0.0600 
    202 H202        2.3340  -26.9031  -46.5463 H         1 UNK         0.0600 
    203 H203        2.1515  -25.6826  -47.8048 H         1 UNK         0.0600 
    204 H204        2.5857  -27.3350  -48.2308 H         1 UNK         0.0600 
    205 H205       -0.1008  -24.9360  -48.9816 H         1 UNK         0.3000 
    206 H206        0.0788  -26.1613  -51.6465 H         1 UNK         0.0600 
    207 H207        1.3435  -24.0990  -51.0516 H         1 UNK         0.0600 
    208 H208        0.2034  -23.7800  -52.3483 H         1 UNK         0.0600 
    209 H209       -0.1631  -23.2545  -50.7097 H         1 UNK         0.0600 
    210 H210       -2.5026  -25.4375  -49.5347 H         1 UNK         0.3000 
    211 H211       -4.6854  -25.0096  -49.6601 H         1 UNK         0.0600 
    212 H212       -4.6362  -26.1642  -52.4945 H         1 UNK         0.0600 
    213 H213       -6.0330  -26.0133  -51.4408 H         1 UNK         0.0600 
    214 H214       -4.7379  -27.1201  -51.0159 H         1 UNK         0.0600 
    215 H215       -2.7791  -22.9778  -50.5094 H         1 UNK         0.3000 
    216 H216       -3.3847  -21.4671  -52.6843 H         1 UNK         0.0600 
    217 H217       -2.2373  -19.6051  -51.3679 H         1 UNK         0.0600 
    218 H218       -1.3640  -21.1364  -51.4087 H         1 UNK         0.0600 
    219 H219       -2.2580  -20.6654  -49.9675 H         1 UNK         0.0600 
    220 H220       -5.0628  -21.2253  -49.5491 H         1 UNK         0.3000 
    221 H221       -6.4566  -18.7865  -50.1445 H         1 UNK         0.0600 
    222 H222       -7.0630  -20.9970  -48.1117 H         1 UNK         0.0600 
    223 H223       -6.1134  -19.5345  -47.8326 H         1 UNK         0.0600 
    224 H224       -7.8335  -19.4153  -48.1524 H         1 UNK         0.0600 
    225 H225       -7.1643  -22.2067  -50.7885 H         1 UNK         0.3000 
    226 H226       -9.9123  -21.7243  -51.6861 H         1 UNK         0.0600 
    227 H227       -9.2916  -23.8840  -50.6133 H         1 UNK         0.0600 
    228 H228       -9.8409  -24.1359  -52.2629 H         1 UNK         0.0600 
    229 H229       -8.1236  -24.2074  -51.8937 H         1 UNK         0.0600 
    230 H230       -6.6787  -22.2190  -53.0892 H         1 UNK         0.3000 
    231 H231       -7.5079  -22.1170  -55.8515 H         1 UNK         0.0600 
    232 H232       -5.0644  -22.0873  -56.2641 H         1 UNK         0.0600 
    233 H233       -5.4409  -23.2824  -55.0320 H         1 UNK         0.0600 
    234 H234       -4.7497  -21.7273  -54.5728 H         1 UNK         0.0600 
    235 H235       -7.1696  -19.6586  -53.5196 H         1 UNK         0.3000 
    236 H236       -7.0738  -17.4539  -53.4473 H         1 UNK         0.0600 
    237 H237       -9.0921  -17.5670  -54.9243 H         1 UNK         0.0600 
    238 H238       -8.1497  -16.1159  -55.2241 H         1 UNK         0.0600 
    239 H239       -8.0611  -17.4634  -56.3506 H         1 UNK         0.0600 
    240 H240       -4.7142  -18.7418  -53.8451 H         1 UNK         0.3000 
    241 H241       -2.6114  -18.6203  -54.3657 H         1 UNK         0.0600 
    242 H242       -4.7181  -19.0844  -56.7689 H         1 UNK         0.3800 
    243 H243       -3.5893  -19.1608  -58.0946 H         1 UNK         0.3800 
    244 H244       -2.6571  -15.7571  -55.3748 H         1 UNK         0.0800 
    245 H245       -3.0446  -16.0552  -53.7096 H         1 UNK         0.0800 
    246 H246       -1.6470  -17.2991  -52.0336 H         1 UNK         0.0800 
    247 H247       -1.0035  -15.6751  -51.9312 H         1 UNK         0.0800 
@<TRIPOS>BOND
     1    1    2 1    
     2    1  127 1    
     3    1  128 1    
     4    1  129 1    
     5    2    3 2    
     6    2    4 am   BACKBONE|DICT|INTERRES
     7    4    5 1    
     8    4  130 1    
     9    5    6 1    
    10    5   65 1    
    11    5  131 1    
    12    6    7 1    
    13    6  132 1    
    14    6  133 1    
    15    7    8 1    
    16    8    9 1    
    17    8  134 1    
    18    8  135 1    
    19    9   10 ar   
    20    9   14 ar   
    21   10   11 ar   
    22   10  136 1    
    23   11   12 ar   
    24   11  126 1    
    25   12   13 ar   
    26   12  137 1    
    27   13   14 ar   
    28   13   15 1    
    29   14  138 1    
    30   15   16 1    
    31   15  139 1    
    32   15  140 1    
    33   16   17 1    
    34   17   18 1    
    35   17  141 1    
    36   17  142 1    
    37   18   19 1    
    38   18   67 1    
    39   18  143 1    
    40   19   20 am   BACKBONE|DICT|INTERRES
    41   19  144 1    
    42   20   21 2    
    43   20   22 1    
    44   22   23 1    
    45   22   24 1    
    46   22  145 1    
    47   23  146 1    
    48   23  147 1    
    49   23  148 1    
    50   24   25 am   BACKBONE|DICT|INTERRES
    51   24  149 1    
    52   25   26 2    
    53   25   27 1    
    54   27   28 1    
    55   27   29 1    
    56   27  150 1    
    57   28  151 1    
    58   28  152 1    
    59   28  153 1    
    60   29   30 am   BACKBONE|DICT|INTERRES
    61   29  154 1    
    62   30   31 2    
    63   30   32 1    
    64   32   33 1    
    65   32   34 1    
    66   32  155 1    
    67   33  156 1    
    68   33  157 1    
    69   33  158 1    
    70   34   35 am   BACKBONE|DICT|INTERRES
    71   34  159 1    
    72   35   36 2    
    73   35   37 1    
    74   37   38 1    
    75   37   39 1    
    76   37  160 1    
    77   38  161 1    
    78   38  162 1    
    79   38  163 1    
    80   39   40 am   BACKBONE|DICT|INTERRES
    81   39  164 1    
    82   40   41 2    
    83   40   42 1    
    84   42   43 1    
    85   42   44 1    
    86   42  165 1    
    87   43  166 1    
    88   43  167 1    
    89   43  168 1    
    90   44   45 am   BACKBONE|DICT|INTERRES
    91   44  169 1    
    92   45   46 2    
    93   45   47 1    
    94   47   48 1    
    95   47   49 1    
    96   47  170 1    
    97   48  171 1    
    98   48  172 1    
    99   48  173 1    
   100   49   50 am   BACKBONE|DICT|INTERRES
   101   49  174 1    
   102   50   51 2    
   103   50   52 1    
   104   52   53 1    
   105   52   54 1    
   106   52  175 1    
   107   53  176 1    
   108   53  177 1    
   109   53  178 1    
   110   54   55 am   BACKBONE|DICT|INTERRES
   111   54  179 1    
   112   55   56 2    
   113   55   57 1    
   114   57   58 1    
   115   57   59 1    
   116   57  180 1    
   117   58  181 1    
   118   58  182 1    
   119   58  183 1    
   120   59   60 am   BACKBONE|DICT|INTERRES
   121   59  184 1    
   122   60   61 2    
   123   60   62 1    
   124   62   63 1    
   125   62   64 1    
   126   62  185 1    
   127   63  186 1    
   128   63  187 1    
   129   63  188 1    
   130   64   65 am   BACKBONE|DICT|INTERRES
   131   64  189 1    
   132   65   66 2    
   133   67   68 2    
   134   67   69 am   BACKBONE|DICT|INTERRES
   135   69   70 1    
   136   69  190 1    
   137   70   71 1    
   138   70   72 1    
   139   70  191 1    
   140   71  192 1    
   141   71  193 1    
   142   71  194 1    
   143   72   73 2    
   144   72   74 am   BACKBONE|DICT|INTERRES
   145   74   75 1    
   146   74  195 1    
   147   75   76 1    
   148   75   77 1    
   149   75  196 1    
   150   76  197 1    
   151   76  198 1    
   152   76  199 1    
   153   77   78 2    
   154   77   79 am   BACKBONE|DICT|INTERRES
   155   79   80 1    
   156   79  200 1    
   157   80   81 1    
   158   80   82 1    
   159   80  201 1    
   160   81  202 1    
   161   81  203 1    
   162   81  204 1    
   163   82   83 2    
   164   82   84 am   BACKBONE|DICT|INTERRES
   165   84   85 1    
   166   84  205 1    
   167   85   86 1    
   168   85   87 1    
   169   85  206 1    
   170   86  207 1    
   171   86  208 1    
   172   86  209 1    
   173   87   88 2    
   174   87   89 am   BACKBONE|DICT|INTERRES
   175   89   90 1    
   176   89  210 1    
   177   90   91 1    
   178   90   92 1    
   179   90  211 1    
   180   91  212 1    
   181   91  213 1    
   182   91  214 1    
   183   92   93 2    
   184   92   94 am   BACKBONE|DICT|INTERRES
   185   94   95 1    
   186   94  215 1    
   187   95   96 1    
   188   95   97 1    
   189   95  216 1    
   190   96  217 1    
   191   96  218 1    
   192   96  219 1    
   193   97   98 2    
   194   97   99 am   BACKBONE|DICT|INTERRES
   195   99  100 1    
   196   99  220 1    
   197  100  101 1    
   198  100  102 1    
   199  100  221 1    
   200  101  222 1    
   201  101  223 1    
   202  101  224 1    
   203  102  103 2    
   204  102  104 am   BACKBONE|DICT|INTERRES
   205  104  105 1    
   206  104  225 1    
   207  105  106 1    
   208  105  107 1    
   209  105  226 1    
   210  106  227 1    
   211  106  228 1    
   212  106  229 1    
   213  107  108 2    
   214  107  109 am   BACKBONE|DICT|INTERRES
   215  109  110 1    
   216  109  230 1    
   217  110  111 1    
   218  110  112 1    
   219  110  231 1    
   220  111  232 1    
   221  111  233 1    
   222  111  234 1    
   223  112  113 2    
   224  112  114 am   BACKBONE|DICT|INTERRES
   225  114  115 1    
   226  114  235 1    
   227  115  116 1    
   228  115  117 1    
   229  115  236 1    
   230  116  237 1    
   231  116  238 1    
   232  116  239 1    
   233  117  118 2    
   234  117  119 am   BACKBONE|DICT|INTERRES
   235  119  120 1    
   236  119  240 1    
   237  120  121 1    
   238  120  124 1    
   239  120  241 1    
   240  121  122 am   BACKBONE|DICT|INTERRES
   241  121  123 2    
   242  122  242 1    
   243  122  243 1    
   244  124  125 1    
   245  124  244 1    
   246  124  245 1    
   247  125  126 1    
   248  126  246 1    
   249  126  247 1    
@<TRIPOS>SUBSTRUCTURE
     1 UNK         1 GROUP             0       ****    0 ROOT    
