@<TRIPOS>MOLECULE
3R540
247   249    1
SMALL
USER_CHARGES


@<TRIPOS>ATOM
      1 CA          2.5223  -16.5395  -47.2334 C.3       0 UNK        -0.1800 
      2 C           1.6081  -15.4123  -46.7776 C.2       0 UNK         0.5000 
      3 O           1.9503  -14.6811  -45.8502 O.2       0 UNK        -0.5000 
      4 N           0.4575  -15.2534  -47.4466 N.am      1 UNK        -0.5000 
      5 CA         -0.5932  -14.2625  -47.1538 C.3       1 UNK         0.1400 
      6 C6         -1.9116  -14.5836  -47.9009 C.3       23 UNK        -0.0398 
      7 S7         -2.7015  -16.1090  -47.2859 S.3       23 UNK        -0.2404 
      8 C8         -3.5330  -16.7271  -48.7859 C.3       23 UNK        -0.0205 
      9 C9         -2.8178  -17.9062  -49.4365 C.ar      23 UNK        -0.0193 
     10 C10        -3.5677  -18.9859  -49.9082 C.ar      23 UNK        -0.1150 
     11 C11        -2.9450  -20.0672  -50.5346 C.ar      23 UNK        -0.0193 
     12 C12        -1.5548  -20.0748  -50.6787 C.ar      23 UNK        -0.1150 
     13 C13        -0.7889  -19.0011  -50.2131 C.ar      23 UNK        -0.0193 
     14 C14        -1.4290  -17.9189  -49.6027 C.ar      23 UNK        -0.1150 
     15 C15         0.7228  -18.9744  -50.4015 C.3       23 UNK        -0.0205 
     16 S16         1.5977  -20.3526  -49.5901 S.3       23 UNK        -0.2404 
     17 C17         1.1376  -20.1882  -47.8272 C.3       23 UNK        -0.0398 
     18 CA          0.7742  -21.5603  -47.2066 C.3       11 UNK         0.1400 
     19 N           0.8675  -21.5700  -45.7432 N.am      11 UNK        -0.5000 
     20 C           0.8044  -22.6828  -44.9946 C.2       10 UNK         0.5000 
     21 O           0.6891  -23.8150  -45.4609 O.2       10 UNK        -0.5000 
     22 CA          0.8138  -22.5096  -43.4671 C.3       10 UNK         0.1400 
     23 CB          2.2266  -22.1926  -42.9577 C.3       10 UNK        -0.1800 
     24 N          -0.1259  -21.4847  -43.0182 N.am      10 UNK        -0.5000 
     25 C          -1.4535  -21.5416  -43.1986 C.2       9 UNK         0.5000 
     26 O          -2.0345  -22.4864  -43.7323 O.2       9 UNK        -0.5000 
     27 CA         -2.2651  -20.3194  -42.7386 C.3       9 UNK         0.1400 
     28 CB         -2.5742  -20.4012  -41.2362 C.3       9 UNK        -0.1800 
     29 N          -1.5848  -19.0584  -43.0280 N.am      9 UNK        -0.5000 
     30 C          -1.3412  -18.5875  -44.2588 C.2       8 UNK         0.5000 
     31 O          -1.6663  -19.1670  -45.2959 O.2       8 UNK        -0.5000 
     32 CA         -0.5461  -17.2723  -44.3267 C.3       8 UNK         0.1400 
     33 CB         -1.3814  -16.0942  -43.7995 C.3       8 UNK        -0.1800 
     34 N           0.6999  -17.3422  -43.5649 N.am      8 UNK        -0.5000 
     35 C           1.7031  -18.2009  -43.8017 C.2       7 UNK         0.5000 
     36 O           1.7174  -18.9958  -44.7409 O.2       7 UNK        -0.5000 
     37 CA          2.8696  -18.2075  -42.7923 C.3       7 UNK         0.1400 
     38 CB          3.9443  -17.1970  -43.2211 C.3       7 UNK        -0.1800 
     39 N           2.4558  -17.9086  -41.4201 N.am      7 UNK        -0.5000 
     40 C           1.4976  -18.5415  -40.7268 C.2       6 UNK         0.5000 
     41 O           0.9339  -19.5617  -41.1229 O.2       6 UNK        -0.5000 
     42 CA          1.0470  -17.9024  -39.3955 C.3       6 UNK         0.1400 
     43 CB          1.5324  -18.7461  -38.2073 C.3       6 UNK        -0.1800 
     44 N           1.4720  -16.5099  -39.1949 N.am      6 UNK        -0.5000 
     45 C           1.1892  -15.4676  -39.9906 C.2       5 UNK         0.5000 
     46 O           0.5416  -15.5638  -41.0365 O.2       5 UNK        -0.5000 
     47 CA          1.8107  -14.1213  -39.5665 C.3       5 UNK         0.1400 
     48 CB          3.3444  -14.1738  -39.6878 C.3       5 UNK        -0.1800 
     49 N           1.3394  -12.9930  -40.3657 N.am      5 UNK        -0.5000 
     50 C           0.1097  -12.4621  -40.3477 C.2       4 UNK         0.5000 
     51 O          -0.7892  -12.8465  -39.5980 O.2       4 UNK        -0.5000 
     52 CA         -0.1497  -11.2771  -41.3047 C.3       4 UNK         0.1400 
     53 CB         -0.3935   -9.9836  -40.5100 C.3       4 UNK        -0.1800 
     54 N           0.9584  -11.0479  -42.2399 N.am      4 UNK        -0.5000 
     55 C           1.1250  -11.7068  -43.3928 C.2       3 UNK         0.5000 
     56 O           0.3202  -12.5315  -43.8310 O.2       3 UNK        -0.5000 
     57 CA          2.4370  -11.4272  -44.1451 C.3       3 UNK         0.1400 
     58 CB          3.5554  -12.3381  -43.6112 C.3       3 UNK        -0.1800 
     59 N           2.2557  -11.6978  -45.5668 N.am      3 UNK        -0.5000 
     60 C           2.0826  -10.7675  -46.5162 C.2       2 UNK         0.5000 
     61 O           2.1864   -9.5567  -46.3147 O.2       2 UNK        -0.5000 
     62 CA          1.7131  -11.2663  -47.9308 C.3       2 UNK         0.1400 
     63 CB          2.9665  -11.3630  -48.8138 C.3       2 UNK        -0.1800 
     64 N           1.0438  -12.5676  -47.9121 N.am      2 UNK        -0.5000 
     65 C          -0.1693  -12.7927  -47.3879 C.2       1 UNK         0.5000 
     66 O          -0.9371  -11.8855  -47.0634 O.2       1 UNK        -0.5000 
     67 C          -0.5953  -22.0721  -47.6925 C.2       11 UNK         0.5000 
     68 O          -0.6356  -22.9224  -48.5807 O.2       11 UNK        -0.5000 
     69 N          -1.6821  -21.6043  -47.0607 N.am      12 UNK        -0.5000 
     70 CA         -3.0486  -22.0293  -47.3652 C.3       12 UNK         0.1400 
     71 CB         -4.0449  -21.1966  -46.5465 C.3       12 UNK        -0.1800 
     72 C          -3.2903  -23.5388  -47.1736 C.2       12 UNK         0.5000 
     73 O          -4.0279  -24.1350  -47.9587 O.2       12 UNK        -0.5000 
     74 N          -2.6544  -24.1273  -46.1530 N.am      13 UNK        -0.5000 
     75 CA         -2.6965  -25.5577  -45.8711 C.3       13 UNK         0.1400 
     76 CB         -2.3400  -25.7936  -44.3943 C.3       13 UNK        -0.1800 
     77 C          -1.7710  -26.3702  -46.7952 C.2       13 UNK         0.5000 
     78 O          -2.2264  -27.3337  -47.4128 O.2       13 UNK        -0.5000 
     79 N          -0.4833  -26.0020  -46.8412 N.am      14 UNK        -0.5000 
     80 CA          0.5721  -26.8000  -47.4690 C.3       14 UNK         0.1400 
     81 CB          1.9271  -26.4243  -46.8493 C.3       14 UNK        -0.1800 
     82 C           0.6392  -26.6638  -48.9986 C.2       14 UNK         0.5000 
     83 O           1.0504  -27.6148  -49.6649 O.2       14 UNK        -0.5000 
     84 N           0.2605  -25.4968  -49.5289 N.am      15 UNK        -0.5000 
     85 CA          0.3495  -25.1497  -50.9435 C.3       15 UNK         0.1400 
     86 CB          1.5048  -24.1528  -51.1431 C.3       15 UNK        -0.1800 
     87 C          -1.0076  -24.6040  -51.4068 C.2       15 UNK         0.5000 
     88 O          -1.0863  -23.4887  -51.9275 O.2       15 UNK        -0.5000 
     89 N          -2.0543  -25.4175  -51.2031 N.am      16 UNK        -0.5000 
     90 CA         -3.4835  -25.1627  -51.4337 C.3       16 UNK         0.1400 
     91 CB         -4.2797  -26.3255  -50.8143 C.3       16 UNK        -0.1800 
     92 C          -3.9010  -24.8825  -52.9017 C.2       16 UNK         0.5000 
     93 O          -4.9637  -25.3281  -53.3381 O.2       16 UNK        -0.5000 
     94 N          -3.0728  -24.1326  -53.6308 N.am      17 UNK        -0.5000 
     95 CA         -3.2661  -23.6748  -55.0040 C.3       17 UNK         0.1400 
     96 CB         -3.0424  -24.8416  -55.9849 C.3       17 UNK        -0.1800 
     97 C          -2.3533  -22.4845  -55.3641 C.2       17 UNK         0.5000 
     98 O          -2.5680  -21.8807  -56.4155 O.2       17 UNK        -0.5000 
     99 N          -1.3498  -22.1578  -54.5305 N.am      18 UNK        -0.5000 
    100 CA        -0.2846  -21.2016  -54.8560 C.3       18 UNK         0.1400 
    101 CB         0.8256  -21.2920  -53.7989 C.3       18 UNK        -0.1800 
    102 C         -0.7421  -19.7428  -55.0487 C.2       18 UNK         0.5000 
    103 O         -0.1176  -19.0219  -55.8282 O.2       18 UNK        -0.5000 
    104 N         -1.8235  -19.3374  -54.3704 N.am      19 UNK        -0.5000 
    105 CA        -2.4392  -18.0142  -54.5207 C.3       19 UNK         0.1400 
    106 CB        -2.9077  -17.5121  -53.1458 C.3       19 UNK        -0.1800 
    107 C         -3.6008  -18.0128  -55.5355 C.2       19 UNK         0.5000 
    108 O         -4.2682  -16.9867  -55.6764 O.2       19 UNK        -0.5000 
    109 N         -3.8446  -19.1511  -56.2050 N.am      20 UNK        -0.5000 
    110 CA        -4.9106  -19.4533  -57.1697 C.3       20 UNK         0.1400 
    111 CB        -4.8594  -18.5214  -58.3955 C.3       20 UNK        -0.1800 
    112 C         -6.3184  -19.4939  -56.5458 C.2       20 UNK         0.5000 
    113 O         -7.0214  -20.4933  -56.6976 O.2       20 UNK        -0.5000 
    114 N         -6.6920  -18.4411  -55.8102 N.am      21 UNK        -0.5000 
    115 CA        -7.9535  -18.2841  -55.0809 C.3       21 UNK         0.1400 
    116 CB        -8.2386  -16.7798  -54.9220 C.3       21 UNK        -0.1800 
    117 C         -7.9586  -19.0343  -53.7279 C.2       21 UNK         0.5000 
    118 O         -8.4692  -18.5158  -52.7306 O.2       21 UNK        -0.5000 
    119 N         -7.3783  -20.2396  -53.7152 N.am      22 UNK        -0.5000 
    120 CA        -7.2332  -21.1128  -52.5403 C.3       22 UNK         0.1400 
    121 C         -8.4811  -21.9960  -52.2452 C.2       22 UNK         0.5000 
    122 N         -9.5057  -22.0127  -53.0896 N.am      22 UNK        -0.7600 
    123 O         -8.5266  -22.6715  -51.2213 O.2       22 UNK        -0.5000 
    124 C124       -5.9508  -21.9756  -52.6485 C.3       23 UNK        -0.0398 
    125 S125       -4.4378  -20.9526  -52.6936 S.3       23 UNK        -0.2404 
    126 C126       -3.7826  -21.2351  -51.0220 C.3       23 UNK        -0.0205 
    127 H127        3.3725  -16.1347  -47.7818 H         1 UNK         0.0600 
    128 H128        2.9034  -17.0883  -46.3734 H         1 UNK         0.0600 
    129 H129        2.0005  -17.2454  -47.8785 H         1 UNK         0.0600 
    130 H130        0.2510  -15.8788  -48.2096 H         1 UNK         0.3000 
    131 H131       -0.7970  -14.3244  -46.0839 H         1 UNK         0.0600 
    132 H132       -2.6429  -13.7831  -47.7736 H         1 UNK         0.0800 
    133 H133       -1.7274  -14.6598  -48.9736 H         1 UNK         0.0800 
    134 H134       -3.6494  -15.9288  -49.5195 H         1 UNK         0.0800 
    135 H135       -4.5435  -17.0207  -48.4979 H         1 UNK         0.0800 
    136 H136       -4.6429  -18.9844  -49.7969 H         1 UNK         0.1150 
    137 H137       -1.0700  -20.9206  -51.1434 H         1 UNK         0.1150 
    138 H138       -0.8450  -17.0795  -49.2614 H         1 UNK         0.1150 
    139 H139        1.1436  -18.0353  -50.0409 H         1 UNK         0.0800 
    140 H140        0.9382  -19.0081  -51.4701 H         1 UNK         0.0800 
    141 H141        0.3297  -19.4667  -47.6932 H         1 UNK         0.0800 
    142 H142        2.0033  -19.7687  -47.3138 H         1 UNK         0.0800 
    143 H143        1.5193  -22.2809  -47.5525 H         1 UNK         0.0600 
    144 H144        0.9840  -20.6678  -45.2886 H         1 UNK         0.3000 
    145 H145        0.5004  -23.4562  -43.0218 H         1 UNK         0.0600 
    146 H146        2.2381  -22.0532  -41.8765 H         1 UNK         0.0600 
    147 H147        2.9131  -23.0076  -43.1897 H         1 UNK         0.0600 
    148 H148        2.6261  -21.2910  -43.4190 H         1 UNK         0.0600 
    149 H149        0.2630  -20.6911  -42.5163 H         1 UNK         0.3000 
    150 H150       -3.2118  -20.3234  -43.2825 H         1 UNK         0.0600 
    151 H151       -1.6652  -20.3811  -40.6340 H         1 UNK         0.0600 
    152 H152       -3.1047  -21.3240  -40.9982 H         1 UNK         0.0600 
    153 H153       -3.2064  -19.5721  -40.9178 H         1 UNK         0.0600 
    154 H154       -1.2241  -18.5470  -42.2365 H         1 UNK         0.3000 
    155 H155       -0.3005  -17.0880  -45.3727 H         1 UNK         0.0600 
    156 H156       -2.3130  -15.9893  -44.3550 H         1 UNK         0.0600 
    157 H157       -0.8357  -15.1549  -43.8896 H         1 UNK         0.0600 
    158 H158       -1.6414  -16.2193  -42.7478 H         1 UNK         0.0600 
    159 H159        0.7674  -16.7262  -42.7613 H         1 UNK         0.3000 
    160 H160        3.3146  -19.2028  -42.7927 H         1 UNK         0.0600 
    161 H161        3.5574  -16.1766  -43.2285 H         1 UNK         0.0600 
    162 H162        4.3068  -17.4164  -44.2262 H         1 UNK         0.0600 
    163 H163        4.8053  -17.2263  -42.5532 H         1 UNK         0.0600 
    164 H164        2.8556  -17.0809  -41.0054 H         1 UNK         0.3000 
    165 H165       -0.0447  -17.9115  -39.3968 H         1 UNK         0.0600 
    166 H166        1.1341  -18.3689  -37.2652 H         1 UNK         0.0600 
    167 H167        2.6208  -18.7503  -38.1360 H         1 UNK         0.0600 
    168 H168        1.2059  -19.7828  -38.3027 H         1 UNK         0.0600 
    169 H169        2.0268  -16.3410  -38.3680 H         1 UNK         0.3000 
    170 H170        1.5425  -13.9376  -38.5241 H         1 UNK         0.0600 
    171 H171        3.7711  -14.9515  -39.0535 H         1 UNK         0.0600 
    172 H172        3.6601  -14.3758  -40.7126 H         1 UNK         0.0600 
    173 H173        3.7961  -13.2305  -39.3797 H         1 UNK         0.0600 
    174 H174        1.9924  -12.6213  -41.0367 H         1 UNK         0.3000 
    175 H175       -1.0571  -11.5053  -41.8680 H         1 UNK         0.0600 
    176 H176        0.4759   -9.7083  -39.9116 H         1 UNK         0.0600 
    177 H177       -0.6225   -9.1500  -41.1743 H         1 UNK         0.0600 
    178 H178       -1.2385  -10.0948  -39.8292 H         1 UNK         0.0600 
    179 H179        1.6577  -10.3795  -41.9479 H         1 UNK         0.3000 
    180 H180        2.7253  -10.3862  -43.9851 H         1 UNK         0.0600 
    181 H181        3.2937  -13.3936  -43.7025 H         1 UNK         0.0600 
    182 H182        3.7583  -12.1387  -42.5585 H         1 UNK         0.0600 
    183 H183        4.4861  -12.1778  -44.1558 H         1 UNK         0.0600 
    184 H184        2.0874  -12.6733  -45.7960 H         1 UNK         0.3000 
    185 H185        1.0334  -10.5362  -48.3750 H         1 UNK         0.0600 
    186 H186        2.7106  -11.6558  -49.8323 H         1 UNK         0.0600 
    187 H187        3.4778  -10.4011  -48.8720 H         1 UNK         0.0600 
    188 H188        3.6791  -12.0904  -48.4228 H         1 UNK         0.0600 
    189 H189        1.6073  -13.3689  -48.1544 H         1 UNK         0.3000 
    190 H190       -1.5761  -20.8889  -46.3477 H         1 UNK         0.3000 
    191 H191       -3.2196  -21.8158  -48.4176 H         1 UNK         0.0600 
    192 H192       -5.0729  -21.4730  -46.7834 H         1 UNK         0.0600 
    193 H193       -3.9361  -20.1328  -46.7605 H         1 UNK         0.0600 
    194 H194       -3.9026  -21.3403  -45.4755 H         1 UNK         0.0600 
    195 H195       -2.1100  -23.5508  -45.5203 H         1 UNK         0.3000 
    196 H196       -3.7175  -25.9135  -46.0256 H         1 UNK         0.0600 
    197 H197       -1.3462  -25.4152  -44.1515 H         1 UNK         0.0600 
    198 H198       -3.0527  -25.2975  -43.7352 H         1 UNK         0.0600 
    199 H199       -2.3570  -26.8568  -44.1518 H         1 UNK         0.0600 
    200 H200       -0.1766  -25.1811  -46.3221 H         1 UNK         0.3000 
    201 H201        0.3860  -27.8521  -47.2422 H         1 UNK         0.0600 
    202 H202        2.1957  -25.3901  -47.0686 H         1 UNK         0.0600 
    203 H203        2.7243  -27.0587  -47.2386 H         1 UNK         0.0600 
    204 H204        1.9142  -26.5452  -45.7660 H         1 UNK         0.0600 
    205 H205       -0.1019  -24.7589  -48.9294 H         1 UNK         0.3000 
    206 H206        0.5555  -26.0332  -51.5507 H         1 UNK         0.0600 
    207 H207        2.4458  -24.5589  -50.7722 H         1 UNK         0.0600 
    208 H208        1.6440  -23.9268  -52.1995 H         1 UNK         0.0600 
    209 H209        1.3181  -23.2126  -50.6233 H         1 UNK         0.0600 
    210 H210       -1.8505  -26.3084  -50.7738 H         1 UNK         0.3000 
    211 H211       -3.7442  -24.2714  -50.8643 H         1 UNK         0.0600 
    212 H212       -5.3534  -26.1375  -50.8575 H         1 UNK         0.0600 
    213 H213       -4.0241  -26.4620  -49.7627 H         1 UNK         0.0600 
    214 H214       -4.0863  -27.2651  -51.3330 H         1 UNK         0.0600 
    215 H215       -2.2435  -23.7979  -53.1462 H         1 UNK         0.3000 
    216 H216       -4.2938  -23.3229  -55.1089 H         1 UNK         0.0600 
    217 H217       -2.0385  -25.2564  -55.8877 H         1 UNK         0.0600 
    218 H218       -3.1661  -24.5166  -57.0188 H         1 UNK         0.0600 
    219 H219       -3.7559  -25.6481  -55.8165 H         1 UNK         0.0600 
    220 H220       -1.2346  -22.6455  -53.6494 H         1 UNK         0.3000 
    221 H221        0.1474  -21.5168  -55.8082 H         1 UNK         0.0600 
    222 H222        1.2907  -22.2766  -53.8094 H         1 UNK         0.0600 
    223 H223        0.4467  -21.1112  -52.7945 H         1 UNK         0.0600 
    224 H224        1.6139  -20.5624  -53.9890 H         1 UNK         0.0600 
    225 H225       -2.2915  -19.9886  -53.7537 H         1 UNK         0.3000 
    226 H226       -1.6993  -17.3010  -54.8892 H         1 UNK         0.0600 
    227 H227       -3.7133  -18.1241  -52.7420 H         1 UNK         0.0600 
    228 H228       -2.0881  -17.5140  -52.4286 H         1 UNK         0.0600 
    229 H229       -3.2780  -16.4882  -53.2059 H         1 UNK         0.0600 
    230 H230       -3.2324  -19.9369  -56.0160 H         1 UNK         0.3000 
    231 H231       -4.7005  -20.4628  -57.5265 H         1 UNK         0.0600 
    232 H232       -3.8749  -18.5411  -58.8630 H         1 UNK         0.0600 
    233 H233       -5.0879  -17.4871  -58.1379 H         1 UNK         0.0600 
    234 H234       -5.5834  -18.8342  -59.1489 H         1 UNK         0.0600 
    235 H235       -6.0073  -17.6974  -55.6988 H         1 UNK         0.3000 
    236 H236       -8.7579  -18.7123  -55.6824 H         1 UNK         0.0600 
    237 H237       -8.2616  -16.2792  -55.8902 H         1 UNK         0.0600 
    238 H238       -9.2060  -16.6085  -54.4484 H         1 UNK         0.0600 
    239 H239       -7.4789  -16.2914  -54.3103 H         1 UNK         0.0600 
    240 H240       -7.0218  -20.6002  -54.5926 H         1 UNK         0.3000 
    241 H241       -7.1185  -20.4760  -51.6605 H         1 UNK         0.0600 
    242 H242      -10.3103  -22.5841  -52.8834 H         1 UNK         0.3800 
    243 H243       -9.4849  -21.4619  -53.9325 H         1 UNK         0.3800 
    244 H244       -5.9860  -22.5838  -53.5532 H         1 UNK         0.0800 
    245 H245       -5.8818  -22.6814  -51.8190 H         1 UNK         0.0800 
    246 H246       -3.1791  -22.1403  -51.0189 H         1 UNK         0.0800 
    247 H247       -4.6045  -21.4028  -50.3244 H         1 UNK         0.0800 
@<TRIPOS>BOND
     1    1    2 1    
     2    1  127 1    
     3    1  128 1    
     4    1  129 1    
     5    2    3 2    
     6    2    4 am   BACKBONE|DICT|INTERRES
     7    4    5 1    
     8    4  130 1    
     9    5    6 1    
    10    5   65 1    
    11    5  131 1    
    12    6    7 1    
    13    6  132 1    
    14    6  133 1    
    15    7    8 1    
    16    8    9 1    
    17    8  134 1    
    18    8  135 1    
    19    9   10 ar   
    20    9   14 ar   
    21   10   11 ar   
    22   10  136 1    
    23   11   12 ar   
    24   11  126 1    
    25   12   13 ar   
    26   12  137 1    
    27   13   14 ar   
    28   13   15 1    
    29   14  138 1    
    30   15   16 1    
    31   15  139 1    
    32   15  140 1    
    33   16   17 1    
    34   17   18 1    
    35   17  141 1    
    36   17  142 1    
    37   18   19 1    
    38   18   67 1    
    39   18  143 1    
    40   19   20 am   BACKBONE|DICT|INTERRES
    41   19  144 1    
    42   20   21 2    
    43   20   22 1    
    44   22   23 1    
    45   22   24 1    
    46   22  145 1    
    47   23  146 1    
    48   23  147 1    
    49   23  148 1    
    50   24   25 am   BACKBONE|DICT|INTERRES
    51   24  149 1    
    52   25   26 2    
    53   25   27 1    
    54   27   28 1    
    55   27   29 1    
    56   27  150 1    
    57   28  151 1    
    58   28  152 1    
    59   28  153 1    
    60   29   30 am   BACKBONE|DICT|INTERRES
    61   29  154 1    
    62   30   31 2    
    63   30   32 1    
    64   32   33 1    
    65   32   34 1    
    66   32  155 1    
    67   33  156 1    
    68   33  157 1    
    69   33  158 1    
    70   34   35 am   BACKBONE|DICT|INTERRES
    71   34  159 1    
    72   35   36 2    
    73   35   37 1    
    74   37   38 1    
    75   37   39 1    
    76   37  160 1    
    77   38  161 1    
    78   38  162 1    
    79   38  163 1    
    80   39   40 am   BACKBONE|DICT|INTERRES
    81   39  164 1    
    82   40   41 2    
    83   40   42 1    
    84   42   43 1    
    85   42   44 1    
    86   42  165 1    
    87   43  166 1    
    88   43  167 1    
    89   43  168 1    
    90   44   45 am   BACKBONE|DICT|INTERRES
    91   44  169 1    
    92   45   46 2    
    93   45   47 1    
    94   47   48 1    
    95   47   49 1    
    96   47  170 1    
    97   48  171 1    
    98   48  172 1    
    99   48  173 1    
   100   49   50 am   BACKBONE|DICT|INTERRES
   101   49  174 1    
   102   50   51 2    
   103   50   52 1    
   104   52   53 1    
   105   52   54 1    
   106   52  175 1    
   107   53  176 1    
   108   53  177 1    
   109   53  178 1    
   110   54   55 am   BACKBONE|DICT|INTERRES
   111   54  179 1    
   112   55   56 2    
   113   55   57 1    
   114   57   58 1    
   115   57   59 1    
   116   57  180 1    
   117   58  181 1    
   118   58  182 1    
   119   58  183 1    
   120   59   60 am   BACKBONE|DICT|INTERRES
   121   59  184 1    
   122   60   61 2    
   123   60   62 1    
   124   62   63 1    
   125   62   64 1    
   126   62  185 1    
   127   63  186 1    
   128   63  187 1    
   129   63  188 1    
   130   64   65 am   BACKBONE|DICT|INTERRES
   131   64  189 1    
   132   65   66 2    
   133   67   68 2    
   134   67   69 am   BACKBONE|DICT|INTERRES
   135   69   70 1    
   136   69  190 1    
   137   70   71 1    
   138   70   72 1    
   139   70  191 1    
   140   71  192 1    
   141   71  193 1    
   142   71  194 1    
   143   72   73 2    
   144   72   74 am   BACKBONE|DICT|INTERRES
   145   74   75 1    
   146   74  195 1    
   147   75   76 1    
   148   75   77 1    
   149   75  196 1    
   150   76  197 1    
   151   76  198 1    
   152   76  199 1    
   153   77   78 2    
   154   77   79 am   BACKBONE|DICT|INTERRES
   155   79   80 1    
   156   79  200 1    
   157   80   81 1    
   158   80   82 1    
   159   80  201 1    
   160   81  202 1    
   161   81  203 1    
   162   81  204 1    
   163   82   83 2    
   164   82   84 am   BACKBONE|DICT|INTERRES
   165   84   85 1    
   166   84  205 1    
   167   85   86 1    
   168   85   87 1    
   169   85  206 1    
   170   86  207 1    
   171   86  208 1    
   172   86  209 1    
   173   87   88 2    
   174   87   89 am   BACKBONE|DICT|INTERRES
   175   89   90 1    
   176   89  210 1    
   177   90   91 1    
   178   90   92 1    
   179   90  211 1    
   180   91  212 1    
   181   91  213 1    
   182   91  214 1    
   183   92   93 2    
   184   92   94 am   BACKBONE|DICT|INTERRES
   185   94   95 1    
   186   94  215 1    
   187   95   96 1    
   188   95   97 1    
   189   95  216 1    
   190   96  217 1    
   191   96  218 1    
   192   96  219 1    
   193   97   98 2    
   194   97   99 am   BACKBONE|DICT|INTERRES
   195   99  100 1    
   196   99  220 1    
   197  100  101 1    
   198  100  102 1    
   199  100  221 1    
   200  101  222 1    
   201  101  223 1    
   202  101  224 1    
   203  102  103 2    
   204  102  104 am   BACKBONE|DICT|INTERRES
   205  104  105 1    
   206  104  225 1    
   207  105  106 1    
   208  105  107 1    
   209  105  226 1    
   210  106  227 1    
   211  106  228 1    
   212  106  229 1    
   213  107  108 2    
   214  107  109 am   BACKBONE|DICT|INTERRES
   215  109  110 1    
   216  109  230 1    
   217  110  111 1    
   218  110  112 1    
   219  110  231 1    
   220  111  232 1    
   221  111  233 1    
   222  111  234 1    
   223  112  113 2    
   224  112  114 am   BACKBONE|DICT|INTERRES
   225  114  115 1    
   226  114  235 1    
   227  115  116 1    
   228  115  117 1    
   229  115  236 1    
   230  116  237 1    
   231  116  238 1    
   232  116  239 1    
   233  117  118 2    
   234  117  119 am   BACKBONE|DICT|INTERRES
   235  119  120 1    
   236  119  240 1    
   237  120  121 1    
   238  120  124 1    
   239  120  241 1    
   240  121  122 am   BACKBONE|DICT|INTERRES
   241  121  123 2    
   242  122  242 1    
   243  122  243 1    
   244  124  125 1    
   245  124  244 1    
   246  124  245 1    
   247  125  126 1    
   248  126  246 1    
   249  126  247 1    
@<TRIPOS>SUBSTRUCTURE
     1 UNK         1 GROUP             0       ****    0 ROOT    
