@<TRIPOS>MOLECULE
3R540
247   249    1
SMALL
USER_CHARGES


@<TRIPOS>ATOM
      1 CA          0.0531  -11.7845  -43.5964 C.3       0 UNK        -0.1800 
      2 C          -0.6459  -11.3576  -44.8794 C.2       0 UNK         0.5000 
      3 O          -0.1815  -10.4388  -45.5529 O.2       0 UNK        -0.5000 
      4 N          -1.7593  -12.0199  -45.2175 N.am      1 UNK        -0.5000 
      5 CA         -2.5278  -11.8086  -46.4527 C.3       1 UNK         0.1400 
      6 C6         -3.9833  -12.3258  -46.3222 C.3       23 UNK        -0.0398 
      7 S7         -4.1298  -14.0375  -45.6880 S.3       23 UNK        -0.2404 
      8 C8         -5.1095  -14.8554  -46.9857 C.3       23 UNK        -0.0205 
      9 C9         -4.2338  -15.4341  -48.0858 C.ar      23 UNK        -0.0193 
     10 C10        -4.0034  -14.7202  -49.2654 C.ar      23 UNK        -0.1150 
     11 C11        -3.2117  -15.2669  -50.2796 C.ar      23 UNK        -0.0193 
     12 C12        -2.6663  -16.5430  -50.1141 C.ar      23 UNK        -0.1150 
     13 C13        -2.9077  -17.2784  -48.9509 C.ar      23 UNK        -0.0193 
     14 C14        -3.6762  -16.7065  -47.9314 C.ar      23 UNK        -0.1150 
     15 C15        -2.3226  -18.6781  -48.8075 C.3       23 UNK        -0.0205 
     16 S16        -3.5760  -19.9111  -48.3166 S.3       23 UNK        -0.2404 
     17 C17        -3.2780  -20.0587  -46.5233 C.3       23 UNK        -0.0398 
     18 CA         -2.8608  -21.5015  -46.1180 C.3       11 UNK         0.1400 
     19 N          -1.5836  -21.5134  -45.3941 N.am      11 UNK        -0.5000 
     20 C          -0.8587  -22.5942  -45.0730 C.2       10 UNK         0.5000 
     21 O          -1.1718  -23.7408  -45.3861 O.2       10 UNK        -0.5000 
     22 CA          0.3886  -22.3702  -44.1968 C.3       10 UNK         0.1400 
     23 CB          1.6564  -22.3676  -45.0625 C.3       10 UNK        -0.1800 
     24 N           0.3330  -21.1451  -43.3909 N.am      10 UNK        -0.5000 
     25 C          -0.5712  -20.8996  -42.4297 C.2       9 UNK         0.5000 
     26 O          -1.4511  -21.6978  -42.1055 O.2       9 UNK        -0.5000 
     27 CA         -0.5162  -19.5160  -41.7550 C.3       9 UNK         0.1400 
     28 CB          0.5808  -19.4710  -40.6809 C.3       9 UNK        -0.1800 
     29 N          -0.3087  -18.4334  -42.7180 N.am      9 UNK        -0.5000 
     30 C          -1.2018  -18.0581  -43.6453 C.2       8 UNK         0.5000 
     31 O          -2.3318  -18.5368  -43.7367 O.2       8 UNK        -0.5000 
     32 CA         -0.7371  -17.0129  -44.6782 C.3       8 UNK         0.1400 
     33 CB         -0.8812  -15.5856  -44.1309 C.3       8 UNK        -0.1800 
     34 N           0.6434  -17.2355  -45.1103 N.am      8 UNK        -0.5000 
     35 C           1.0573  -18.3114  -45.7953 C.2       7 UNK         0.5000 
     36 O           0.3044  -19.2032  -46.1842 O.2       7 UNK        -0.5000 
     37 CA          2.5718  -18.4370  -46.0398 C.3       7 UNK         0.1400 
     38 CB          3.0054  -17.6747  -47.3015 C.3       7 UNK        -0.1800 
     39 N           3.3535  -17.9796  -44.8904 N.am      7 UNK        -0.5000 
     40 C           3.4254  -18.6334  -43.7220 C.2       6 UNK         0.5000 
     41 O           2.8678  -19.7083  -43.5070 O.2       6 UNK        -0.5000 
     42 CA          4.2137  -17.9489  -42.5905 C.3       6 UNK         0.1400 
     43 CB          5.7182  -18.2211  -42.7363 C.3       6 UNK        -0.1800 
     44 N           3.9838  -16.5047  -42.5439 N.am      6 UNK        -0.5000 
     45 C           2.8072  -15.9319  -42.2516 C.2       5 UNK         0.5000 
     46 O           1.8016  -16.5643  -41.9318 O.2       5 UNK        -0.5000 
     47 CA          2.7268  -14.4004  -42.4017 C.3       5 UNK         0.1400 
     48 CB          3.1084  -13.7035  -41.0882 C.3       5 UNK        -0.1800 
     49 N           3.5664  -13.8877  -43.4897 N.am      5 UNK        -0.5000 
     50 C           3.3917  -14.1925  -44.7815 C.2       4 UNK         0.5000 
     51 O           2.4735  -14.9073  -45.1956 O.2       4 UNK        -0.5000 
     52 CA          4.4504  -13.6677  -45.7599 C.3       4 UNK         0.1400 
     53 CB          5.7522  -14.4825  -45.6416 C.3       4 UNK        -0.1800 
     54 N           3.9173  -13.7830  -47.1098 N.am      4 UNK        -0.5000 
     55 C           4.3276  -13.1106  -48.1904 C.2       3 UNK         0.5000 
     56 O           5.2695  -12.3170  -48.1845 O.2       3 UNK        -0.5000 
     57 CA          3.5548  -13.3626  -49.5038 C.3       3 UNK         0.1400 
     58 CB          4.3359  -14.3327  -50.4039 C.3       3 UNK        -0.1800 
     59 N           2.2025  -13.8947  -49.3014 N.am      3 UNK        -0.5000 
     60 C           1.1927  -13.2216  -48.7327 C.2       2 UNK         0.5000 
     61 O           1.2881  -12.0453  -48.3761 O.2       2 UNK        -0.5000 
     62 CA         -0.1189  -14.0063  -48.5138 C.3       2 UNK         0.1400 
     63 CB          0.1399  -15.4570  -48.0713 C.3       2 UNK        -0.1800 
     64 N          -0.9454  -13.3707  -47.4934 N.am      2 UNK        -0.5000 
     65 C          -1.8269  -12.3858  -47.7026 C.2       1 UNK         0.5000 
     66 O          -2.0966  -11.9279  -48.8144 O.2       1 UNK        -0.5000 
     67 C          -4.0101  -22.2426  -45.3902 C.2       11 UNK         0.5000 
     68 O          -5.0601  -22.4584  -45.9934 O.2       11 UNK        -0.5000 
     69 N          -3.8091  -22.6350  -44.1243 N.am      12 UNK        -0.5000 
     70 CA         -4.7076  -23.5135  -43.3755 C.3       12 UNK         0.1400 
     71 CB         -4.4395  -23.3208  -41.8747 C.3       12 UNK        -0.1800 
     72 C          -4.5700  -25.0049  -43.7591 C.2       12 UNK         0.5000 
     73 O          -5.4186  -25.8004  -43.3534 O.2       12 UNK        -0.5000 
     74 N          -3.5148  -25.3721  -44.4991 N.am      13 UNK        -0.5000 
     75 CA         -3.1788  -26.7424  -44.8842 C.3       13 UNK         0.1400 
     76 CB         -2.0843  -27.2570  -43.9304 C.3       13 UNK        -0.1800 
     77 C          -2.7233  -26.7903  -46.3543 C.2       13 UNK         0.5000 
     78 O          -2.7741  -25.7730  -47.0475 O.2       13 UNK        -0.5000 
     79 N          -2.2963  -27.9780  -46.8116 N.am      14 UNK        -0.5000 
     80 CA         -1.6882  -28.2543  -48.1227 C.3       14 UNK         0.1400 
     81 CB         -0.2843  -27.6169  -48.1979 C.3       14 UNK        -0.1800 
     82 C          -2.5860  -27.8559  -49.3135 C.2       14 UNK         0.5000 
     83 O          -2.1295  -27.1774  -50.2360 O.2       14 UNK        -0.5000 
     84 N          -3.8672  -28.2503  -49.2418 N.am      15 UNK        -0.5000 
     85 CA         -4.9435  -27.8986  -50.1807 C.3       15 UNK         0.1400 
     86 CB         -4.7085  -28.5519  -51.5593 C.3       15 UNK        -0.1800 
     87 C          -5.1591  -26.3721  -50.2657 C.2       15 UNK         0.5000 
     88 O          -5.3094  -25.8208  -51.3571 O.2       15 UNK        -0.5000 
     89 N          -5.1133  -25.7224  -49.0940 N.am      16 UNK        -0.5000 
     90 CA         -5.1100  -24.2750  -48.8742 C.3       16 UNK         0.1400 
     91 CB         -6.4754  -23.6568  -49.2394 C.3       16 UNK        -0.1800 
     92 C          -3.9235  -23.5927  -49.5822 C.2       16 UNK         0.5000 
     93 O          -4.1278  -22.6738  -50.3719 O.2       16 UNK        -0.5000 
     94 N          -2.7120  -24.1106  -49.3318 N.am      17 UNK        -0.5000 
     95 CA         -1.4400  -23.7618  -49.9772 C.3       17 UNK         0.1400 
     96 CB         -0.9122  -22.4169  -49.4404 C.3       17 UNK        -0.1800 
     97 C          -1.5230  -23.8045  -51.5199 C.2       17 UNK         0.5000 
     98 O          -1.1274  -22.8491  -52.1900 O.2       17 UNK        -0.5000 
     99 N          -2.0725  -24.9124  -52.0394 N.am      18 UNK        -0.5000 
    100 CA        -2.3911  -25.1716  -53.4468 C.3       18 UNK         0.1400 
    101 CB        -1.0996  -25.3382  -54.2745 C.3       18 UNK        -0.1800 
    102 C         -3.3630  -24.1246  -54.0357 C.2       18 UNK         0.5000 
    103 O         -3.0625  -23.4995  -55.0548 O.2       18 UNK        -0.5000 
    104 N         -4.5147  -23.9625  -53.3678 N.am      19 UNK        -0.5000 
    105 CA        -5.6133  -23.0442  -53.6883 C.3       19 UNK         0.1400 
    106 CB        -6.3181  -23.4744  -54.9916 C.3       19 UNK        -0.1800 
    107 C         -5.1890  -21.5591  -53.6888 C.2       19 UNK         0.5000 
    108 O         -5.5576  -20.8058  -54.5931 O.2       19 UNK        -0.5000 
    109 N         -4.4191  -21.1738  -52.6634 N.am      20 UNK        -0.5000 
    110 CA        -3.8683  -19.8563  -52.3295 C.3       20 UNK         0.1400 
    111 CB        -4.9921  -18.8419  -52.0500 C.3       20 UNK        -0.1800 
    112 C         -2.8413  -19.2965  -53.3324 C.2       20 UNK         0.5000 
    113 O         -1.7851  -18.8238  -52.9085 O.2       20 UNK        -0.5000 
    114 N         -3.1680  -19.3532  -54.6302 N.am      21 UNK        -0.5000 
    115 CA        -2.4345  -18.8750  -55.8067 C.3       21 UNK         0.1400 
    116 CB        -1.0827  -19.5986  -55.9607 C.3       21 UNK        -0.1800 
    117 C         -2.2740  -17.3428  -55.8606 C.2       21 UNK         0.5000 
    118 O         -2.7280  -16.7211  -56.8219 O.2       21 UNK        -0.5000 
    119 N         -1.6437  -16.7702  -54.8290 N.am      22 UNK        -0.5000 
    120 CA        -1.4121  -15.3305  -54.6108 C.3       22 UNK         0.1400 
    121 C         -0.4848  -14.6398  -55.6588 C.2       22 UNK         0.5000 
    122 N          0.3105  -15.3770  -56.4244 N.am      22 UNK        -0.7600 
    123 O         -0.4558  -13.4161  -55.7612 O.2       22 UNK        -0.5000 
    124 C124       -2.7235  -14.5318  -54.3511 C.3       23 UNK        -0.0398 
    125 S125       -3.7290  -15.2314  -52.9968 S.3       23 UNK        -0.2404 
    126 C126       -2.9204  -14.4814  -51.5484 C.3       23 UNK        -0.0205 
    127 H127        1.0890  -12.0487  -43.8082 H         1 UNK         0.0600 
    128 H128       -0.4312  -12.6460  -43.1361 H         1 UNK         0.0600 
    129 H129        0.0500  -10.9665  -42.8762 H         1 UNK         0.0600 
    130 H130       -2.1166  -12.7467  -44.6131 H         1 UNK         0.3000 
    131 H131       -2.5900  -10.7306  -46.6173 H         1 UNK         0.0600 
    132 H132       -4.5235  -11.6823  -45.6268 H         1 UNK         0.0800 
    133 H133       -4.5122  -12.2255  -47.2715 H         1 UNK         0.0800 
    134 H134       -5.6844  -15.6606  -46.5257 H         1 UNK         0.0800 
    135 H135       -5.8464  -14.1651  -47.3988 H         1 UNK         0.0800 
    136 H136       -4.4300  -13.7350  -49.3891 H         1 UNK         0.1150 
    137 H137       -2.0607  -16.9664  -50.9034 H         1 UNK         0.1150 
    138 H138       -3.8574  -17.2585  -47.0206 H         1 UNK         0.1150 
    139 H139       -1.8923  -19.0023  -49.7559 H         1 UNK         0.0800 
    140 H140       -1.4924  -18.6551  -48.1021 H         1 UNK         0.0800 
    141 H141       -4.1751  -19.7217  -46.0002 H         1 UNK         0.0800 
    142 H142       -2.5109  -19.3403  -46.2382 H         1 UNK         0.0800 
    143 H143       -2.6842  -22.0868  -47.0216 H         1 UNK         0.0600 
    144 H144       -1.2147  -20.6103  -45.1259 H         1 UNK         0.3000 
    145 H145        0.4533  -23.2132  -43.5059 H         1 UNK         0.0600 
    146 H146        2.5543  -22.2763  -44.4513 H         1 UNK         0.0600 
    147 H147        1.7430  -23.2957  -45.6290 H         1 UNK         0.0600 
    148 H148        1.6500  -21.5479  -45.7799 H         1 UNK         0.0600 
    149 H149        1.0662  -20.4624  -43.5588 H         1 UNK         0.3000 
    150 H150       -1.4766  -19.3486  -41.2628 H         1 UNK         0.0600 
    151 H151        0.4321  -20.2556  -39.9380 H         1 UNK         0.0600 
    152 H152        0.5751  -18.5172  -40.1530 H         1 UNK         0.0600 
    153 H153        1.5735  -19.6082  -41.1097 H         1 UNK         0.0600 
    154 H154        0.5752  -17.9369  -42.6624 H         1 UNK         0.3000 
    155 H155       -1.3797  -17.1027  -45.5567 H         1 UNK         0.0600 
    156 H156       -1.9217  -15.3676  -43.8884 H         1 UNK         0.0600 
    157 H157       -0.5519  -14.8483  -44.8621 H         1 UNK         0.0600 
    158 H158       -0.2974  -15.4404  -43.2227 H         1 UNK         0.0600 
    159 H159        1.3220  -16.5199  -44.8729 H         1 UNK         0.3000 
    160 H160        2.7916  -19.4939  -46.2015 H         1 UNK         0.0600 
    161 H161        2.8973  -16.5981  -47.1863 H         1 UNK         0.0600 
    162 H162        2.4098  -17.9761  -48.1642 H         1 UNK         0.0600 
    163 H163        4.0492  -17.8777  -47.5413 H         1 UNK         0.0600 
    164 H164        3.7963  -17.0773  -44.9711 H         1 UNK         0.3000 
    165 H165        3.8779  -18.3773  -41.6437 H         1 UNK         0.0600 
    166 H166        6.2769  -17.8052  -41.8977 H         1 UNK         0.0600 
    167 H167        5.9197  -19.2930  -42.7599 H         1 UNK         0.0600 
    168 H168        6.1203  -17.7909  -43.6545 H         1 UNK         0.0600 
    169 H169        4.7612  -15.9097  -42.7875 H         1 UNK         0.3000 
    170 H170        1.6896  -14.1501  -42.6299 H         1 UNK         0.0600 
    171 H171        2.4847  -14.0546  -40.2649 H         1 UNK         0.0600 
    172 H172        4.1478  -13.8932  -40.8174 H         1 UNK         0.0600 
    173 H173        2.9706  -12.6244  -41.1607 H         1 UNK         0.0600 
    174 H174        4.3418  -13.2985  -43.2219 H         1 UNK         0.3000 
    175 H175        4.6423  -12.6169  -45.5337 H         1 UNK         0.0600 
    176 H176        5.5885  -15.5366  -45.8694 H         1 UNK         0.0600 
    177 H177        6.5154  -14.1104  -46.3252 H         1 UNK         0.0600 
    178 H178        6.1681  -14.4224  -44.6354 H         1 UNK         0.0600 
    179 H179        3.1003  -14.3752  -47.1753 H         1 UNK         0.3000 
    180 H180        3.4694  -12.4056  -50.0227 H         1 UNK         0.0600 
    181 H181        4.4392  -15.3154  -49.9416 H         1 UNK         0.0600 
    182 H182        5.3404  -13.9574  -50.6042 H         1 UNK         0.0600 
    183 H183        3.8420  -14.4633  -51.3670 H         1 UNK         0.0600 
    184 H184        2.0532  -14.8527  -49.5817 H         1 UNK         0.3000 
    185 H185       -0.6617  -14.0229  -49.4601 H         1 UNK         0.0600 
    186 H186        0.5679  -16.0567  -48.8747 H         1 UNK         0.0600 
    187 H187        0.8201  -15.4912  -47.2226 H         1 UNK         0.0600 
    188 H188       -0.7827  -15.9474  -47.7654 H         1 UNK         0.0600 
    189 H189       -0.7637  -13.6393  -46.5394 H         1 UNK         0.3000 
    190 H190       -2.9367  -22.3932  -43.6700 H         1 UNK         0.3000 
    191 H191       -5.7391  -23.2166  -43.5758 H         1 UNK         0.0600 
    192 H192       -4.5609  -22.2777  -41.5819 H         1 UNK         0.0600 
    193 H193       -5.1329  -23.9099  -41.2732 H         1 UNK         0.0600 
    194 H194       -3.4282  -23.6286  -41.6055 H         1 UNK         0.0600 
    195 H195       -2.8750  -24.6669  -44.8551 H         1 UNK         0.3000 
    196 H196       -4.0576  -27.3847  -44.8021 H         1 UNK         0.0600 
    197 H197       -1.8422  -28.3029  -44.1200 H         1 UNK         0.0600 
    198 H198       -2.4056  -27.1885  -42.8908 H         1 UNK         0.0600 
    199 H199       -1.1641  -26.6798  -44.0326 H         1 UNK         0.0600 
    200 H200       -2.3260  -28.7664  -46.1802 H         1 UNK         0.3000 
    201 H201       -1.5616  -29.3358  -48.1875 H         1 UNK         0.0600 
    202 H202        0.3464  -27.9573  -47.3768 H         1 UNK         0.0600 
    203 H203       -0.3306  -26.5284  -48.1533 H         1 UNK         0.0600 
    204 H204        0.2205  -27.8861  -49.1265 H         1 UNK         0.0600 
    205 H205       -4.1466  -28.7959  -48.4383 H         1 UNK         0.3000 
    206 H206       -5.8647  -28.3152  -49.7711 H         1 UNK         0.0600 
    207 H207       -4.5724  -29.6292  -51.4661 H         1 UNK         0.0600 
    208 H208       -5.5623  -28.3891  -52.2181 H         1 UNK         0.0600 
    209 H209       -3.8296  -28.1454  -52.0600 H         1 UNK         0.0600 
    210 H210       -4.9224  -26.2738  -48.2700 H         1 UNK         0.3000 
    211 H211       -4.9536  -24.1422  -47.8063 H         1 UNK         0.0600 
    212 H212       -6.6894  -23.7394  -50.3052 H         1 UNK         0.0600 
    213 H213       -6.4995  -22.5972  -48.9816 H         1 UNK         0.0600 
    214 H214       -7.2852  -24.1417  -48.6947 H         1 UNK         0.0600 
    215 H215       -2.6601  -24.8509  -48.6340 H         1 UNK         0.3000 
    216 H216       -0.7272  -24.5349  -49.6877 H         1 UNK         0.0600 
    217 H217        0.0667  -22.1843  -49.8606 H         1 UNK         0.0600 
    218 H218       -0.7973  -22.4398  -48.3573 H         1 UNK         0.0600 
    219 H219       -1.5801  -21.5951  -49.6963 H         1 UNK         0.0600 
    220 H220       -2.3213  -25.6558  -51.3909 H         1 UNK         0.3000 
    221 H221       -2.9190  -26.1261  -53.4681 H         1 UNK         0.0600 
    222 H222       -0.5241  -24.4134  -54.3222 H         1 UNK         0.0600 
    223 H223       -0.4582  -26.1110  -53.8509 H         1 UNK         0.0600 
    224 H224       -1.3296  -25.6327  -55.2990 H         1 UNK         0.0600 
    225 H225       -4.6722  -24.5433  -52.5460 H         1 UNK         0.3000 
    226 H226       -6.3352  -23.1491  -52.8772 H         1 UNK         0.0600 
    227 H227       -6.6328  -24.5169  -54.9432 H         1 UNK         0.0600 
    228 H228       -7.2117  -22.8748  -55.1686 H         1 UNK         0.0600 
    229 H229       -5.6699  -23.3591  -55.8608 H         1 UNK         0.0600 
    230 H230       -4.2060  -21.8818  -51.9600 H         1 UNK         0.3000 
    231 H231       -3.3299  -20.0099  -51.3942 H         1 UNK         0.0600 
    232 H232       -5.5914  -18.6392  -52.9377 H         1 UNK         0.0600 
    233 H233       -4.5819  -17.8909  -51.7116 H         1 UNK         0.0600 
    234 H234       -5.6584  -19.2016  -51.2659 H         1 UNK         0.0600 
    235 H235       -4.0744  -19.7712  -54.8311 H         1 UNK         0.3000 
    236 H236       -3.0487  -19.1556  -56.6637 H         1 UNK         0.0600 
    237 H237       -1.2201  -20.6797  -55.9963 H         1 UNK         0.0600 
    238 H238       -0.5871  -19.3027  -56.8860 H         1 UNK         0.0600 
    239 H239       -0.3999  -19.3774  -55.1401 H         1 UNK         0.0600 
    240 H240       -1.3745  -17.3847  -54.0652 H         1 UNK         0.3000 
    241 H241       -0.8304  -15.2864  -53.6904 H         1 UNK         0.0600 
    242 H242        0.9154  -14.9258  -57.0928 H         1 UNK         0.3800 
    243 H243        0.3078  -16.3812  -56.3465 H         1 UNK         0.3800 
    244 H244       -2.5045  -13.4904  -54.1093 H         1 UNK         0.0800 
    245 H245       -3.3354  -14.5087  -55.2538 H         1 UNK         0.0800 
    246 H246       -1.8408  -14.4523  -51.6971 H         1 UNK         0.0800 
    247 H247       -3.2458  -13.4445  -51.4494 H         1 UNK         0.0800 
@<TRIPOS>BOND
     1    1    2 1    
     2    1  127 1    
     3    1  128 1    
     4    1  129 1    
     5    2    3 2    
     6    2    4 am   BACKBONE|DICT|INTERRES
     7    4    5 1    
     8    4  130 1    
     9    5    6 1    
    10    5   65 1    
    11    5  131 1    
    12    6    7 1    
    13    6  132 1    
    14    6  133 1    
    15    7    8 1    
    16    8    9 1    
    17    8  134 1    
    18    8  135 1    
    19    9   10 ar   
    20    9   14 ar   
    21   10   11 ar   
    22   10  136 1    
    23   11   12 ar   
    24   11  126 1    
    25   12   13 ar   
    26   12  137 1    
    27   13   14 ar   
    28   13   15 1    
    29   14  138 1    
    30   15   16 1    
    31   15  139 1    
    32   15  140 1    
    33   16   17 1    
    34   17   18 1    
    35   17  141 1    
    36   17  142 1    
    37   18   19 1    
    38   18   67 1    
    39   18  143 1    
    40   19   20 am   BACKBONE|DICT|INTERRES
    41   19  144 1    
    42   20   21 2    
    43   20   22 1    
    44   22   23 1    
    45   22   24 1    
    46   22  145 1    
    47   23  146 1    
    48   23  147 1    
    49   23  148 1    
    50   24   25 am   BACKBONE|DICT|INTERRES
    51   24  149 1    
    52   25   26 2    
    53   25   27 1    
    54   27   28 1    
    55   27   29 1    
    56   27  150 1    
    57   28  151 1    
    58   28  152 1    
    59   28  153 1    
    60   29   30 am   BACKBONE|DICT|INTERRES
    61   29  154 1    
    62   30   31 2    
    63   30   32 1    
    64   32   33 1    
    65   32   34 1    
    66   32  155 1    
    67   33  156 1    
    68   33  157 1    
    69   33  158 1    
    70   34   35 am   BACKBONE|DICT|INTERRES
    71   34  159 1    
    72   35   36 2    
    73   35   37 1    
    74   37   38 1    
    75   37   39 1    
    76   37  160 1    
    77   38  161 1    
    78   38  162 1    
    79   38  163 1    
    80   39   40 am   BACKBONE|DICT|INTERRES
    81   39  164 1    
    82   40   41 2    
    83   40   42 1    
    84   42   43 1    
    85   42   44 1    
    86   42  165 1    
    87   43  166 1    
    88   43  167 1    
    89   43  168 1    
    90   44   45 am   BACKBONE|DICT|INTERRES
    91   44  169 1    
    92   45   46 2    
    93   45   47 1    
    94   47   48 1    
    95   47   49 1    
    96   47  170 1    
    97   48  171 1    
    98   48  172 1    
    99   48  173 1    
   100   49   50 am   BACKBONE|DICT|INTERRES
   101   49  174 1    
   102   50   51 2    
   103   50   52 1    
   104   52   53 1    
   105   52   54 1    
   106   52  175 1    
   107   53  176 1    
   108   53  177 1    
   109   53  178 1    
   110   54   55 am   BACKBONE|DICT|INTERRES
   111   54  179 1    
   112   55   56 2    
   113   55   57 1    
   114   57   58 1    
   115   57   59 1    
   116   57  180 1    
   117   58  181 1    
   118   58  182 1    
   119   58  183 1    
   120   59   60 am   BACKBONE|DICT|INTERRES
   121   59  184 1    
   122   60   61 2    
   123   60   62 1    
   124   62   63 1    
   125   62   64 1    
   126   62  185 1    
   127   63  186 1    
   128   63  187 1    
   129   63  188 1    
   130   64   65 am   BACKBONE|DICT|INTERRES
   131   64  189 1    
   132   65   66 2    
   133   67   68 2    
   134   67   69 am   BACKBONE|DICT|INTERRES
   135   69   70 1    
   136   69  190 1    
   137   70   71 1    
   138   70   72 1    
   139   70  191 1    
   140   71  192 1    
   141   71  193 1    
   142   71  194 1    
   143   72   73 2    
   144   72   74 am   BACKBONE|DICT|INTERRES
   145   74   75 1    
   146   74  195 1    
   147   75   76 1    
   148   75   77 1    
   149   75  196 1    
   150   76  197 1    
   151   76  198 1    
   152   76  199 1    
   153   77   78 2    
   154   77   79 am   BACKBONE|DICT|INTERRES
   155   79   80 1    
   156   79  200 1    
   157   80   81 1    
   158   80   82 1    
   159   80  201 1    
   160   81  202 1    
   161   81  203 1    
   162   81  204 1    
   163   82   83 2    
   164   82   84 am   BACKBONE|DICT|INTERRES
   165   84   85 1    
   166   84  205 1    
   167   85   86 1    
   168   85   87 1    
   169   85  206 1    
   170   86  207 1    
   171   86  208 1    
   172   86  209 1    
   173   87   88 2    
   174   87   89 am   BACKBONE|DICT|INTERRES
   175   89   90 1    
   176   89  210 1    
   177   90   91 1    
   178   90   92 1    
   179   90  211 1    
   180   91  212 1    
   181   91  213 1    
   182   91  214 1    
   183   92   93 2    
   184   92   94 am   BACKBONE|DICT|INTERRES
   185   94   95 1    
   186   94  215 1    
   187   95   96 1    
   188   95   97 1    
   189   95  216 1    
   190   96  217 1    
   191   96  218 1    
   192   96  219 1    
   193   97   98 2    
   194   97   99 am   BACKBONE|DICT|INTERRES
   195   99  100 1    
   196   99  220 1    
   197  100  101 1    
   198  100  102 1    
   199  100  221 1    
   200  101  222 1    
   201  101  223 1    
   202  101  224 1    
   203  102  103 2    
   204  102  104 am   BACKBONE|DICT|INTERRES
   205  104  105 1    
   206  104  225 1    
   207  105  106 1    
   208  105  107 1    
   209  105  226 1    
   210  106  227 1    
   211  106  228 1    
   212  106  229 1    
   213  107  108 2    
   214  107  109 am   BACKBONE|DICT|INTERRES
   215  109  110 1    
   216  109  230 1    
   217  110  111 1    
   218  110  112 1    
   219  110  231 1    
   220  111  232 1    
   221  111  233 1    
   222  111  234 1    
   223  112  113 2    
   224  112  114 am   BACKBONE|DICT|INTERRES
   225  114  115 1    
   226  114  235 1    
   227  115  116 1    
   228  115  117 1    
   229  115  236 1    
   230  116  237 1    
   231  116  238 1    
   232  116  239 1    
   233  117  118 2    
   234  117  119 am   BACKBONE|DICT|INTERRES
   235  119  120 1    
   236  119  240 1    
   237  120  121 1    
   238  120  124 1    
   239  120  241 1    
   240  121  122 am   BACKBONE|DICT|INTERRES
   241  121  123 2    
   242  122  242 1    
   243  122  243 1    
   244  124  125 1    
   245  124  244 1    
   246  124  245 1    
   247  125  126 1    
   248  126  246 1    
   249  126  247 1    
@<TRIPOS>SUBSTRUCTURE
     1 UNK         1 GROUP             0       ****    0 ROOT    
