@<TRIPOS>MOLECULE
3R540
247   249    1
SMALL
USER_CHARGES


@<TRIPOS>ATOM
      1 CA          1.5088  -11.9418  -51.1440 C.3       0 UNK        -0.1800 
      2 C           1.4406  -12.9326  -49.9911 C.2       0 UNK         0.5000 
      3 O           0.9733  -14.0522  -50.1807 O.2       0 UNK        -0.5000 
      4 N           1.8922  -12.5132  -48.8006 N.am      1 UNK        -0.5000 
      5 CA          1.9818  -13.2814  -47.5442 C.3       1 UNK         0.1400 
      6 C6          2.8188  -14.5878  -47.6318 C.3       23 UNK        -0.0398 
      7 S7          4.4178  -14.4069  -48.4929 S.3       23 UNK        -0.2404 
      8 C8          5.0353  -16.1293  -48.5002 C.3       23 UNK        -0.0205 
      9 C9          4.2014  -17.1635  -49.2653 C.ar      23 UNK        -0.0193 
     10 C10         3.2027  -16.8158  -50.1843 C.ar      23 UNK        -0.1150 
     11 C11         2.4706  -17.7906  -50.8696 C.ar      23 UNK        -0.0193 
     12 C12         2.7769  -19.1413  -50.6527 C.ar      23 UNK        -0.1150 
     13 C13         3.7823  -19.5087  -49.7550 C.ar      23 UNK        -0.0193 
     14 C14         4.4791  -18.5176  -49.0593 C.ar      23 UNK        -0.1150 
     15 C15         4.1491  -20.9735  -49.5643 C.3       23 UNK        -0.0205 
     16 S16         3.3168  -21.7113  -48.1257 S.3       23 UNK        -0.2404 
     17 C17         1.6425  -21.9951  -48.7898 C.3       23 UNK        -0.0398 
     18 CA          0.8121  -22.9277  -47.8798 C.3       11 UNK         0.1400 
     19 N           0.5121  -22.3238  -46.5796 N.am      11 UNK        -0.5000 
     20 C          -0.0108  -22.9825  -45.5365 C.2       10 UNK         0.5000 
     21 O          -0.2527  -24.1903  -45.5423 O.2       10 UNK        -0.5000 
     22 CA         -0.3784  -22.1365  -44.3035 C.3       10 UNK         0.1400 
     23 CB          0.8672  -21.7907  -43.4737 C.3       10 UNK        -0.1800 
     24 N          -1.0865  -20.9095  -44.6747 N.am      10 UNK        -0.5000 
     25 C          -2.3134  -20.8867  -45.2149 C.2       9 UNK         0.5000 
     26 O          -2.9963  -21.8946  -45.3921 O.2       9 UNK        -0.5000 
     27 CA         -2.8529  -19.5201  -45.6739 C.3       9 UNK         0.1400 
     28 CB         -3.5615  -18.7909  -44.5233 C.3       9 UNK        -0.1800 
     29 N          -1.8012  -18.6673  -46.2247 N.am      9 UNK        -0.5000 
     30 C          -1.2017  -18.8754  -47.4063 C.2       8 UNK         0.5000 
     31 O          -1.4859  -19.7971  -48.1681 O.2       8 UNK        -0.5000 
     32 CA         -0.0573  -17.9178  -47.7773 C.3       8 UNK         0.1400 
     33 CB         -0.6305  -16.6406  -48.3997 C.3       8 UNK        -0.1800 
     34 N           0.7908  -17.5789  -46.6323 N.am      8 UNK        -0.5000 
     35 C           1.5029  -18.4822  -45.9405 C.2       7 UNK         0.5000 
     36 O           1.5404  -19.6770  -46.2238 O.2       7 UNK        -0.5000 
     37 CA          2.2306  -17.9952  -44.6761 C.3       7 UNK         0.1400 
     38 CB          3.7009  -17.6708  -44.9709 C.3       7 UNK        -0.1800 
     39 N           1.5844  -16.8410  -44.0517 N.am      7 UNK        -0.5000 
     40 C           0.3732  -16.8654  -43.4783 C.2       6 UNK         0.5000 
     41 O          -0.3382  -17.8710  -43.4571 O.2       6 UNK        -0.5000 
     42 CA         -0.1496  -15.5436  -42.8763 C.3       6 UNK         0.1400 
     43 CB         -0.9479  -15.7632  -41.5757 C.3       6 UNK        -0.1800 
     44 N           0.8813  -14.5108  -42.6969 N.am      6 UNK        -0.5000 
     45 C           1.9363  -14.5336  -41.8677 C.2       5 UNK         0.5000 
     46 O           2.2179  -15.4707  -41.1214 O.2       5 UNK        -0.5000 
     47 CA          2.8308  -13.2799  -41.8911 C.3       5 UNK         0.1400 
     48 CB          3.8271  -13.3602  -43.0594 C.3       5 UNK        -0.1800 
     49 N           2.0666  -12.0320  -41.9939 N.am      5 UNK        -0.5000 
     50 C           1.2180  -11.5730  -41.0609 C.2       4 UNK         0.5000 
     51 O           0.9991  -12.1487  -39.9956 O.2       4 UNK        -0.5000 
     52 CA          0.4724  -10.2577  -41.3661 C.3       4 UNK         0.1400 
     53 CB          1.0628   -9.1100  -40.5323 C.3       4 UNK        -0.1800 
     54 N           0.5170   -9.8729  -42.7819 N.am      4 UNK        -0.5000 
     55 C          -0.2008  -10.3599  -43.8056 C.2       3 UNK         0.5000 
     56 O           0.0178   -9.9707  -44.9524 O.2       3 UNK        -0.5000 
     57 CA         -1.3024  -11.4199  -43.5501 C.3       3 UNK         0.1400 
     58 CB         -2.6352  -10.7740  -43.1148 C.3       3 UNK        -0.1800 
     59 N          -1.4753  -12.3114  -44.7059 N.am      3 UNK        -0.5000 
     60 C          -2.0791  -12.0757  -45.8797 C.2       2 UNK         0.5000 
     61 O          -2.7349  -11.0683  -46.1505 O.2       2 UNK        -0.5000 
     62 CA         -1.8479  -13.1584  -46.9498 C.3       2 UNK         0.1400 
     63 CB         -2.8284  -13.0598  -48.1319 C.3       2 UNK        -0.1800 
     64 N          -0.4825  -13.0632  -47.4616 N.am      2 UNK        -0.5000 
     65 C           0.6142  -13.5584  -46.8746 C.2       1 UNK         0.5000 
     66 O           0.5752  -14.2084  -45.8260 O.2       1 UNK        -0.5000 
     67 C          -0.4681  -23.4171  -48.5874 C.2       11 UNK         0.5000 
     68 O          -0.4638  -24.5202  -49.1316 O.2       11 UNK        -0.5000 
     69 N          -1.5567  -22.6362  -48.5121 N.am      12 UNK        -0.5000 
     70 CA         -2.8811  -23.0118  -49.0073 C.3       12 UNK         0.1400 
     71 CB         -3.8568  -21.8447  -48.8379 C.3       12 UNK        -0.1800 
     72 C          -3.4490  -24.2616  -48.3202 C.2       12 UNK         0.5000 
     73 O          -3.9597  -25.1416  -49.0095 O.2       12 UNK        -0.5000 
     74 N          -3.3238  -24.3370  -46.9880 N.am      13 UNK        -0.5000 
     75 CA         -3.7410  -25.4874  -46.1858 C.3       13 UNK         0.1400 
     76 CB         -3.6206  -25.1492  -44.6924 C.3       13 UNK        -0.1800 
     77 C          -2.9562  -26.7677  -46.5267 C.2       13 UNK         0.5000 
     78 O          -3.5533  -27.8427  -46.5891 O.2       13 UNK        -0.5000 
     79 N          -1.6472  -26.6254  -46.7783 N.am      14 UNK        -0.5000 
     80 CA         -0.7699  -27.7070  -47.2279 C.3       14 UNK         0.1400 
     81 CB          0.6951  -27.2598  -47.1079 C.3       14 UNK        -0.1800 
     82 C          -1.0891  -28.1743  -48.6622 C.2       14 UNK         0.5000 
     83 O          -1.1000  -29.3784  -48.9207 O.2       14 UNK        -0.5000 
     84 N          -1.3541  -27.2183  -49.5628 N.am      15 UNK        -0.5000 
     85 CA         -1.6952  -27.4578  -50.9673 C.3       15 UNK         0.1400 
     86 CB         -1.4870  -26.1527  -51.7536 C.3       15 UNK        -0.1800 
     87 C          -3.1310  -27.9757  -51.1851 C.2       15 UNK         0.5000 
     88 O          -3.4085  -28.5302  -52.2492 O.2       15 UNK        -0.5000 
     89 N          -4.0128  -27.7550  -50.1989 N.am      16 UNK        -0.5000 
     90 CA         -5.4700  -27.9216  -50.2462 C.3       16 UNK         0.1400 
     91 CB         -5.8677  -29.3976  -50.4576 C.3       16 UNK        -0.1800 
     92 C          -6.1110  -26.9516  -51.2633 C.2       16 UNK         0.5000 
     93 O          -6.9446  -27.3523  -52.0782 O.2       16 UNK        -0.5000 
     94 N          -5.6740  -25.6897  -51.1995 N.am      17 UNK        -0.5000 
     95 CA         -6.0675  -24.5844  -52.0679 C.3       17 UNK         0.1400 
     96 CB         -4.8035  -24.0823  -52.7908 C.3       17 UNK        -0.1800 
     97 C          -6.7104  -23.4557  -51.2403 C.2       17 UNK         0.5000 
     98 O          -6.8115  -23.5581  -50.0152 O.2       17 UNK        -0.5000 
     99 N          -7.1270  -22.3856  -51.9280 N.am      18 UNK        -0.5000 
    100 CA        -7.5687  -21.1293  -51.3204 C.3       18 UNK         0.1400 
    101 CB        -8.4121  -20.3568  -52.3465 C.3       18 UNK        -0.1800 
    102 C         -6.3604  -20.2789  -50.8884 C.2       18 UNK         0.5000 
    103 O         -5.2934  -20.3846  -51.4980 O.2       18 UNK        -0.5000 
    104 N         -6.5531  -19.4096  -49.8865 N.am      19 UNK        -0.5000 
    105 CA        -5.5227  -18.5132  -49.3412 C.3       19 UNK         0.1400 
    106 CB        -6.0921  -17.7527  -48.1348 C.3       19 UNK        -0.1800 
    107 C         -4.9311  -17.5320  -50.3722 C.2       19 UNK         0.5000 
    108 O         -3.7505  -17.1989  -50.2847 O.2       19 UNK        -0.5000 
    109 N         -5.7544  -17.1137  -51.3428 N.am      20 UNK        -0.5000 
    110 CA        -5.3488  -16.2637  -52.4626 C.3       20 UNK         0.1400 
    111 CB        -6.6023  -15.6190  -53.0740 C.3       20 UNK        -0.1800 
    112 C         -4.5555  -17.0247  -53.5441 C.2       20 UNK         0.5000 
    113 O         -3.7782  -16.4013  -54.2675 O.2       20 UNK        -0.5000 
    114 N         -4.7724  -18.3432  -53.6494 N.am      21 UNK        -0.5000 
    115 CA        -4.0836  -19.2224  -54.5945 C.3       21 UNK         0.1400 
    116 CB        -5.0014  -20.4012  -54.9557 C.3       21 UNK        -0.1800 
    117 C         -2.7433  -19.7234  -54.0300 C.2       21 UNK         0.5000 
    118 O         -1.7816  -19.8366  -54.7887 O.2       21 UNK        -0.5000 
    119 N         -2.7228  -20.0098  -52.7201 N.am      22 UNK        -0.5000 
    120 CA        -1.5736  -20.4207  -51.8929 C.3       22 UNK         0.1400 
    121 C         -0.8243  -21.7209  -52.3166 C.2       22 UNK         0.5000 
    122 N         -1.4026  -22.5725  -53.1543 N.am      22 UNK        -0.7600 
    123 O          0.2768  -21.9890  -51.8476 O.2       22 UNK        -0.5000 
    124 C124       -0.6549  -19.2361  -51.4773 C.3       23 UNK        -0.0398 
    125 S125        0.4804  -18.6050  -52.7607 S.3       23 UNK        -0.2404 
    126 C126        1.3815  -17.3131  -51.8356 C.3       23 UNK        -0.0205 
    127 H127        2.1490  -12.3335  -51.9348 H         1 UNK         0.0600 
    128 H128        1.9082  -10.9773  -50.8285 H         1 UNK         0.0600 
    129 H129        0.5135  -11.7794  -51.5586 H         1 UNK         0.0600 
    130 H130        2.2512  -11.5707  -48.7356 H         1 UNK         0.3000 
    131 H131        2.5041  -12.6196  -46.8519 H         1 UNK         0.0600 
    132 H132        3.0284  -14.9505  -46.6262 H         1 UNK         0.0800 
    133 H133        2.2460  -15.3727  -48.1214 H         1 UNK         0.0800 
    134 H134        5.1600  -16.4541  -47.4674 H         1 UNK         0.0800 
    135 H135        6.0356  -16.1207  -48.9346 H         1 UNK         0.0800 
    136 H136        2.9823  -15.7764  -50.3773 H         1 UNK         0.1150 
    137 H137        2.2497  -19.9200  -51.1839 H         1 UNK         0.1150 
    138 H138        5.2567  -18.8049  -48.3652 H         1 UNK         0.1150 
    139 H139        3.9183  -21.5481  -50.4628 H         1 UNK         0.0800 
    140 H140        5.2274  -21.0600  -49.4231 H         1 UNK         0.0800 
    141 H141        1.7545  -22.4389  -49.7797 H         1 UNK         0.0800 
    142 H142        1.1409  -21.0358  -48.9273 H         1 UNK         0.0800 
    143 H143        1.4141  -23.8184  -47.6860 H         1 UNK         0.0600 
    144 H144        0.7463  -21.3386  -46.4765 H         1 UNK         0.3000 
    145 H145       -1.0455  -22.7325  -43.6769 H         1 UNK         0.0600 
    146 H146        0.6062  -21.1976  -42.5969 H         1 UNK         0.0600 
    147 H147        1.3593  -22.6973  -43.1196 H         1 UNK         0.0600 
    148 H148        1.5997  -21.2291  -44.0529 H         1 UNK         0.0600 
    149 H149       -0.5929  -20.0355  -44.5539 H         1 UNK         0.3000 
    150 H150       -3.5907  -19.6951  -46.4587 H         1 UNK         0.0600 
    151 H151       -4.3869  -19.3894  -44.1358 H         1 UNK         0.0600 
    152 H152       -3.9785  -17.8402  -44.8560 H         1 UNK         0.0600 
    153 H153       -2.8863  -18.5898  -43.6916 H         1 UNK         0.0600 
    154 H154       -1.4622  -17.9263  -45.6284 H         1 UNK         0.3000 
    155 H155        0.5692  -18.4140  -48.5211 H         1 UNK         0.0600 
    156 H156       -1.2746  -16.8710  -49.2481 H         1 UNK         0.0600 
    157 H157       -1.2237  -16.0720  -47.6844 H         1 UNK         0.0600 
    158 H158        0.1623  -15.9983  -48.7714 H         1 UNK         0.0600 
    159 H159        0.7791  -16.6207  -46.3119 H         1 UNK         0.3000 
    160 H160        2.2089  -18.8159  -43.9563 H         1 UNK         0.0600 
    161 H161        4.2473  -17.4532  -44.0530 H         1 UNK         0.0600 
    162 H162        4.1983  -18.5132  -45.4541 H         1 UNK         0.0600 
    163 H163        3.7988  -16.8112  -45.6292 H         1 UNK         0.0600 
    164 H164        2.0935  -15.9708  -44.0490 H         1 UNK         0.3000 
    165 H165       -0.8464  -15.1467  -43.6150 H         1 UNK         0.0600 
    166 H166       -1.3219  -14.8193  -41.1790 H         1 UNK         0.0600 
    167 H167       -1.8117  -16.4059  -41.7497 H         1 UNK         0.0600 
    168 H168       -0.3420  -16.2361  -40.8026 H         1 UNK         0.0600 
    169 H169        0.8088  -13.7167  -43.3138 H         1 UNK         0.3000 
    170 H170        3.3960  -13.2553  -40.9570 H         1 UNK         0.0600 
    171 H171        4.5248  -12.5227  -43.0398 H         1 UNK         0.0600 
    172 H172        3.3218  -13.3526  -44.0262 H         1 UNK         0.0600 
    173 H173        4.4196  -14.2747  -43.0061 H         1 UNK         0.0600 
    174 H174        2.2113  -11.4758  -42.8239 H         1 UNK         0.3000 
    175 H175       -0.5635  -10.3889  -41.0542 H         1 UNK         0.0600 
    176 H176        2.1064   -8.9210  -40.7874 H         1 UNK         0.0600 
    177 H177        0.5068   -8.1847  -40.6854 H         1 UNK         0.0600 
    178 H178        1.0220   -9.3375  -39.4662 H         1 UNK         0.0600 
    179 H179        1.2051   -9.1676  -43.0011 H         1 UNK         0.3000 
    180 H180       -0.9796  -12.0795  -42.7465 H         1 UNK         0.0600 
    181 H181       -2.9668  -10.0077  -43.8156 H         1 UNK         0.0600 
    182 H182       -2.5462  -10.2910  -42.1426 H         1 UNK         0.0600 
    183 H183       -3.4267  -11.5187  -43.0316 H         1 UNK         0.0600 
    184 H184       -0.9128  -13.1513  -44.6848 H         1 UNK         0.3000 
    185 H185       -1.9947  -14.1323  -46.4783 H         1 UNK         0.0600 
    186 H186       -2.7166  -12.1205  -48.6747 H         1 UNK         0.0600 
    187 H187       -2.6723  -13.8752  -48.8392 H         1 UNK         0.0600 
    188 H188       -3.8615  -13.1218  -47.7882 H         1 UNK         0.0600 
    189 H189       -0.3587  -12.5301  -48.3094 H         1 UNK         0.3000 
    190 H190       -1.4756  -21.7102  -48.1019 H         1 UNK         0.3000 
    191 H191       -2.7860  -23.2277  -50.0729 H         1 UNK         0.0600 
    192 H192       -3.9791  -21.5623  -47.7948 H         1 UNK         0.0600 
    193 H193       -4.8428  -22.1074  -49.2131 H         1 UNK         0.0600 
    194 H194       -3.5263  -20.9688  -49.3876 H         1 UNK         0.0600 
    195 H195       -2.9431  -23.5425  -46.4827 H         1 UNK         0.3000 
    196 H196       -4.7936  -25.6780  -46.4051 H         1 UNK         0.0600 
    197 H197       -3.9485  -25.9861  -44.0747 H         1 UNK         0.0600 
    198 H198       -4.2399  -24.2906  -44.4323 H         1 UNK         0.0600 
    199 H199       -2.5933  -24.9165  -44.4119 H         1 UNK         0.0600 
    200 H200       -1.2265  -25.7101  -46.6610 H         1 UNK         0.3000 
    201 H201       -0.9168  -28.5590  -46.5607 H         1 UNK         0.0600 
    202 H202        0.9393  -26.9822  -46.0823 H         1 UNK         0.0600 
    203 H203        0.9102  -26.4019  -47.7450 H         1 UNK         0.0600 
    204 H204        1.3731  -28.0630  -47.3990 H         1 UNK         0.0600 
    205 H205       -1.2525  -26.2451  -49.2851 H         1 UNK         0.3000 
    206 H206       -1.0102  -28.2092  -51.3652 H         1 UNK         0.0600 
    207 H207       -0.4568  -25.8045  -51.6767 H         1 UNK         0.0600 
    208 H208       -1.7051  -26.2916  -52.8132 H         1 UNK         0.0600 
    209 H209       -2.1362  -25.3566  -51.3869 H         1 UNK         0.0600 
    210 H210       -3.6752  -27.2208  -49.4072 H         1 UNK         0.3000 
    211 H211       -5.8390  -27.6214  -49.2644 H         1 UNK         0.0600 
    212 H212       -5.5968  -29.7579  -51.4501 H         1 UNK         0.0600 
    213 H213       -6.9450  -29.5272  -50.3488 H         1 UNK         0.0600 
    214 H214       -5.3869  -30.0432  -49.7227 H         1 UNK         0.0600 
    215 H215       -5.0482  -25.4420  -50.4346 H         1 UNK         0.3000 
    216 H216       -6.7964  -24.9183  -52.8088 H         1 UNK         0.0600 
    217 H217       -5.0472  -23.3391  -53.5493 H         1 UNK         0.0600 
    218 H218       -4.2890  -24.8990  -53.2978 H         1 UNK         0.0600 
    219 H219       -4.0979  -23.6255  -52.0959 H         1 UNK         0.0600 
    220 H220       -6.9909  -22.3683  -52.9274 H         1 UNK         0.3000 
    221 H221       -8.1845  -21.3461  -50.4450 H         1 UNK         0.0600 
    222 H222       -7.8349  -20.1041  -53.2372 H         1 UNK         0.0600 
    223 H223       -9.2770  -20.9400  -52.6633 H         1 UNK         0.0600 
    224 H224       -8.7891  -19.4245  -51.9243 H         1 UNK         0.0600 
    225 H225       -7.4603  -19.3668  -49.4447 H         1 UNK         0.3000 
    226 H226       -4.6989  -19.1266  -48.9787 H         1 UNK         0.0600 
    227 H227       -6.4149  -18.4396  -47.3524 H         1 UNK         0.0600 
    228 H228       -5.3388  -17.0963  -47.6963 H         1 UNK         0.0600 
    229 H229       -6.9454  -17.1339  -48.4144 H         1 UNK         0.0600 
    230 H230       -6.7139  -17.4256  -51.3293 H         1 UNK         0.3000 
    231 H231       -4.7072  -15.4663  -52.0811 H         1 UNK         0.0600 
    232 H232       -6.3376  -14.9545  -53.8975 H         1 UNK         0.0600 
    233 H233       -7.1387  -15.0219  -52.3363 H         1 UNK         0.0600 
    234 H234       -7.2909  -16.3687  -53.4658 H         1 UNK         0.0600 
    235 H235       -5.3707  -18.7934  -52.9710 H         1 UNK         0.3000 
    236 H236       -3.8746  -18.6705  -55.5136 H         1 UNK         0.0600 
    237 H237       -5.9277  -20.0524  -55.4123 H         1 UNK         0.0600 
    238 H238       -4.5173  -21.0677  -55.6706 H         1 UNK         0.0600 
    239 H239       -5.2635  -20.9939  -54.0803 H         1 UNK         0.0600 
    240 H240       -3.6086  -19.9664  -52.2234 H         1 UNK         0.3000 
    241 H241       -2.0456  -20.7323  -50.9652 H         1 UNK         0.0600 
    242 H242       -2.2910  -22.3543  -53.5726 H         1 UNK         0.3800 
    243 H243       -0.9116  -23.4116  -53.4158 H         1 UNK         0.3800 
    244 H244       -1.2739  -18.4068  -51.1334 H         1 UNK         0.0800 
    245 H245       -0.0615  -19.5322  -50.6125 H         1 UNK         0.0800 
    246 H246        1.8446  -16.6486  -52.5660 H         1 UNK         0.0800 
    247 H247        0.6609  -16.7043  -51.2873 H         1 UNK         0.0800 
@<TRIPOS>BOND
     1    1    2 1    
     2    1  127 1    
     3    1  128 1    
     4    1  129 1    
     5    2    3 2    
     6    2    4 am   BACKBONE|DICT|INTERRES
     7    4    5 1    
     8    4  130 1    
     9    5    6 1    
    10    5   65 1    
    11    5  131 1    
    12    6    7 1    
    13    6  132 1    
    14    6  133 1    
    15    7    8 1    
    16    8    9 1    
    17    8  134 1    
    18    8  135 1    
    19    9   10 ar   
    20    9   14 ar   
    21   10   11 ar   
    22   10  136 1    
    23   11   12 ar   
    24   11  126 1    
    25   12   13 ar   
    26   12  137 1    
    27   13   14 ar   
    28   13   15 1    
    29   14  138 1    
    30   15   16 1    
    31   15  139 1    
    32   15  140 1    
    33   16   17 1    
    34   17   18 1    
    35   17  141 1    
    36   17  142 1    
    37   18   19 1    
    38   18   67 1    
    39   18  143 1    
    40   19   20 am   BACKBONE|DICT|INTERRES
    41   19  144 1    
    42   20   21 2    
    43   20   22 1    
    44   22   23 1    
    45   22   24 1    
    46   22  145 1    
    47   23  146 1    
    48   23  147 1    
    49   23  148 1    
    50   24   25 am   BACKBONE|DICT|INTERRES
    51   24  149 1    
    52   25   26 2    
    53   25   27 1    
    54   27   28 1    
    55   27   29 1    
    56   27  150 1    
    57   28  151 1    
    58   28  152 1    
    59   28  153 1    
    60   29   30 am   BACKBONE|DICT|INTERRES
    61   29  154 1    
    62   30   31 2    
    63   30   32 1    
    64   32   33 1    
    65   32   34 1    
    66   32  155 1    
    67   33  156 1    
    68   33  157 1    
    69   33  158 1    
    70   34   35 am   BACKBONE|DICT|INTERRES
    71   34  159 1    
    72   35   36 2    
    73   35   37 1    
    74   37   38 1    
    75   37   39 1    
    76   37  160 1    
    77   38  161 1    
    78   38  162 1    
    79   38  163 1    
    80   39   40 am   BACKBONE|DICT|INTERRES
    81   39  164 1    
    82   40   41 2    
    83   40   42 1    
    84   42   43 1    
    85   42   44 1    
    86   42  165 1    
    87   43  166 1    
    88   43  167 1    
    89   43  168 1    
    90   44   45 am   BACKBONE|DICT|INTERRES
    91   44  169 1    
    92   45   46 2    
    93   45   47 1    
    94   47   48 1    
    95   47   49 1    
    96   47  170 1    
    97   48  171 1    
    98   48  172 1    
    99   48  173 1    
   100   49   50 am   BACKBONE|DICT|INTERRES
   101   49  174 1    
   102   50   51 2    
   103   50   52 1    
   104   52   53 1    
   105   52   54 1    
   106   52  175 1    
   107   53  176 1    
   108   53  177 1    
   109   53  178 1    
   110   54   55 am   BACKBONE|DICT|INTERRES
   111   54  179 1    
   112   55   56 2    
   113   55   57 1    
   114   57   58 1    
   115   57   59 1    
   116   57  180 1    
   117   58  181 1    
   118   58  182 1    
   119   58  183 1    
   120   59   60 am   BACKBONE|DICT|INTERRES
   121   59  184 1    
   122   60   61 2    
   123   60   62 1    
   124   62   63 1    
   125   62   64 1    
   126   62  185 1    
   127   63  186 1    
   128   63  187 1    
   129   63  188 1    
   130   64   65 am   BACKBONE|DICT|INTERRES
   131   64  189 1    
   132   65   66 2    
   133   67   68 2    
   134   67   69 am   BACKBONE|DICT|INTERRES
   135   69   70 1    
   136   69  190 1    
   137   70   71 1    
   138   70   72 1    
   139   70  191 1    
   140   71  192 1    
   141   71  193 1    
   142   71  194 1    
   143   72   73 2    
   144   72   74 am   BACKBONE|DICT|INTERRES
   145   74   75 1    
   146   74  195 1    
   147   75   76 1    
   148   75   77 1    
   149   75  196 1    
   150   76  197 1    
   151   76  198 1    
   152   76  199 1    
   153   77   78 2    
   154   77   79 am   BACKBONE|DICT|INTERRES
   155   79   80 1    
   156   79  200 1    
   157   80   81 1    
   158   80   82 1    
   159   80  201 1    
   160   81  202 1    
   161   81  203 1    
   162   81  204 1    
   163   82   83 2    
   164   82   84 am   BACKBONE|DICT|INTERRES
   165   84   85 1    
   166   84  205 1    
   167   85   86 1    
   168   85   87 1    
   169   85  206 1    
   170   86  207 1    
   171   86  208 1    
   172   86  209 1    
   173   87   88 2    
   174   87   89 am   BACKBONE|DICT|INTERRES
   175   89   90 1    
   176   89  210 1    
   177   90   91 1    
   178   90   92 1    
   179   90  211 1    
   180   91  212 1    
   181   91  213 1    
   182   91  214 1    
   183   92   93 2    
   184   92   94 am   BACKBONE|DICT|INTERRES
   185   94   95 1    
   186   94  215 1    
   187   95   96 1    
   188   95   97 1    
   189   95  216 1    
   190   96  217 1    
   191   96  218 1    
   192   96  219 1    
   193   97   98 2    
   194   97   99 am   BACKBONE|DICT|INTERRES
   195   99  100 1    
   196   99  220 1    
   197  100  101 1    
   198  100  102 1    
   199  100  221 1    
   200  101  222 1    
   201  101  223 1    
   202  101  224 1    
   203  102  103 2    
   204  102  104 am   BACKBONE|DICT|INTERRES
   205  104  105 1    
   206  104  225 1    
   207  105  106 1    
   208  105  107 1    
   209  105  226 1    
   210  106  227 1    
   211  106  228 1    
   212  106  229 1    
   213  107  108 2    
   214  107  109 am   BACKBONE|DICT|INTERRES
   215  109  110 1    
   216  109  230 1    
   217  110  111 1    
   218  110  112 1    
   219  110  231 1    
   220  111  232 1    
   221  111  233 1    
   222  111  234 1    
   223  112  113 2    
   224  112  114 am   BACKBONE|DICT|INTERRES
   225  114  115 1    
   226  114  235 1    
   227  115  116 1    
   228  115  117 1    
   229  115  236 1    
   230  116  237 1    
   231  116  238 1    
   232  116  239 1    
   233  117  118 2    
   234  117  119 am   BACKBONE|DICT|INTERRES
   235  119  120 1    
   236  119  240 1    
   237  120  121 1    
   238  120  124 1    
   239  120  241 1    
   240  121  122 am   BACKBONE|DICT|INTERRES
   241  121  123 2    
   242  122  242 1    
   243  122  243 1    
   244  124  125 1    
   245  124  244 1    
   246  124  245 1    
   247  125  126 1    
   248  126  246 1    
   249  126  247 1    
@<TRIPOS>SUBSTRUCTURE
     1 UNK         1 GROUP             0       ****    0 ROOT    
