@<TRIPOS>MOLECULE
3R540
247   249    1
SMALL
USER_CHARGES


@<TRIPOS>ATOM
      1 CA          6.2737  -15.7754  -47.0125 C.3       0 UNK        -0.1800 
      2 C           5.1673  -15.4049  -46.0355 C.2       0 UNK         0.5000 
      3 O           5.3463  -15.5470  -44.8264 O.2       0 UNK        -0.5000 
      4 N           4.0219  -14.9483  -46.5575 N.am      1 UNK        -0.5000 
      5 CA          2.8527  -14.5319  -45.7784 C.3       1 UNK         0.1400 
      6 C6          1.6159  -14.2857  -46.6781 C.3       23 UNK        -0.0398 
      7 S7          0.8857  -15.8356  -47.2886 S.3       23 UNK        -0.2404 
      8 C8          1.4368  -15.8818  -49.0172 C.3       23 UNK        -0.0205 
      9 C9          0.9407  -17.1492  -49.6944 C.ar      23 UNK        -0.0193 
     10 C10        -0.3116  -17.1732  -50.3145 C.ar      23 UNK        -0.1150 
     11 C11        -0.7770  -18.3373  -50.9337 C.ar      23 UNK        -0.0193 
     12 C12         0.0154  -19.4894  -50.9145 C.ar      23 UNK        -0.1150 
     13 C13         1.2703  -19.4793  -50.2950 C.ar      23 UNK        -0.0193 
     14 C14         1.7296  -18.3026  -49.6949 C.ar      23 UNK        -0.1150 
     15 C15         2.1338  -20.7361  -50.2843 C.3       23 UNK        -0.0205 
     16 S16         2.5173  -21.3166  -48.5978 S.3       23 UNK        -0.2404 
     17 C17         0.8448  -21.5070  -47.9031 C.3       23 UNK        -0.0398 
     18 CA          0.7524  -22.6273  -46.8374 C.3       11 UNK         0.1400 
     19 N           1.5518  -22.3159  -45.6502 N.am      11 UNK        -0.5000 
     20 C           2.3792  -23.1578  -45.0186 C.2       10 UNK         0.5000 
     21 O           2.5369  -24.3353  -45.3448 O.2       10 UNK        -0.5000 
     22 CA          3.1438  -22.5735  -43.8098 C.3       10 UNK         0.1400 
     23 CB          4.4099  -23.3732  -43.4386 C.3       10 UNK        -0.1800 
     24 N           3.4357  -21.1459  -43.9778 N.am      10 UNK        -0.5000 
     25 C           4.2349  -20.5684  -44.8890 C.2       9 UNK         0.5000 
     26 O           4.9850  -21.1864  -45.6444 O.2       9 UNK        -0.5000 
     27 CA          4.1547  -19.0326  -45.0004 C.3       9 UNK         0.1400 
     28 CB          3.3369  -18.6431  -46.2413 C.3       9 UNK        -0.1800 
     29 N           3.5447  -18.4088  -43.8255 N.am      9 UNK        -0.5000 
     30 C           4.1715  -18.2036  -42.6586 C.2       8 UNK         0.5000 
     31 O           5.3546  -18.4777  -42.4554 O.2       8 UNK        -0.5000 
     32 CA          3.3141  -17.6315  -41.5144 C.3       8 UNK         0.1400 
     33 CB          3.3341  -16.0968  -41.5404 C.3       8 UNK        -0.1800 
     34 N           1.9277  -18.1024  -41.5781 N.am      8 UNK        -0.5000 
     35 C           1.5435  -19.3484  -41.2580 C.2       7 UNK         0.5000 
     36 O           2.3121  -20.2101  -40.8328 O.2       7 UNK        -0.5000 
     37 CA          0.0650  -19.7143  -41.4932 C.3       7 UNK         0.1400 
     38 CB         -0.7693  -19.4389  -40.2340 C.3       7 UNK        -0.1800 
     39 N          -0.5262  -19.0010  -42.6253 N.am      7 UNK        -0.5000 
     40 C          -0.1502  -19.1456  -43.9027 C.2       6 UNK         0.5000 
     41 O           0.6735  -19.9806  -44.2768 O.2       6 UNK        -0.5000 
     42 CA         -0.7634  -18.1813  -44.9325 C.3       6 UNK         0.1400 
     43 CB         -1.8238  -18.8956  -45.7795 C.3       6 UNK        -0.1800 
     44 N          -1.3501  -16.9714  -44.3475 N.am      6 UNK        -0.5000 
     45 C          -0.6719  -16.0061  -43.7138 C.2       5 UNK         0.5000 
     46 O           0.5508  -16.0160  -43.5496 O.2       5 UNK        -0.5000 
     47 CA         -1.5122  -14.8508  -43.1439 C.3       5 UNK         0.1400 
     48 CB         -1.0673  -14.4892  -41.7187 C.3       5 UNK        -0.1800 
     49 N          -1.4271  -13.6662  -43.9949 N.am      5 UNK        -0.5000 
     50 C          -2.0738  -13.5341  -45.1647 C.2       4 UNK         0.5000 
     51 O          -2.8030  -14.4121  -45.6279 O.2       4 UNK        -0.5000 
     52 CA         -1.9094  -12.2168  -45.9493 C.3       4 UNK         0.1400 
     53 CB         -3.2711  -11.5645  -46.2518 C.3       4 UNK        -0.1800 
     54 N          -1.0567  -11.2552  -45.2532 N.am      4 UNK        -0.5000 
     55 C          -0.2522  -10.3595  -45.8324 C.2       3 UNK         0.5000 
     56 O          -0.1433  -10.2204  -47.0510 O.2       3 UNK        -0.5000 
     57 CA          0.6010   -9.4909  -44.8872 C.3       3 UNK         0.1400 
     58 CB         -0.2625   -8.6425  -43.9314 C.3       3 UNK        -0.1800 
     59 N           1.6113  -10.2751  -44.1668 N.am      3 UNK        -0.5000 
     60 C           1.4246  -11.2353  -43.2514 C.2       2 UNK         0.5000 
     61 O           0.3235  -11.5711  -42.8077 O.2       2 UNK        -0.5000 
     62 CA          2.6736  -12.0424  -42.8685 C.3       2 UNK         0.1400 
     63 CB          2.6865  -12.4479  -41.3855 C.3       2 UNK        -0.1800 
     64 N           2.6936  -13.2377  -43.7068 N.am      2 UNK        -0.5000 
     65 C           3.1571  -13.2624  -44.9620 C.2       1 UNK         0.5000 
     66 O           3.7455  -12.3181  -45.4953 O.2       1 UNK        -0.5000 
     67 C          -0.7272  -22.8542  -46.4763 C.2       11 UNK         0.5000 
     68 O          -1.4956  -23.1922  -47.3733 O.2       11 UNK        -0.5000 
     69 N          -1.1193  -22.6423  -45.2094 N.am      12 UNK        -0.5000 
     70 CA         -2.5043  -22.5801  -44.7199 C.3       12 UNK         0.1400 
     71 CB         -2.4919  -22.4629  -43.1888 C.3       12 UNK        -0.1800 
     72 C          -3.4351  -23.7257  -45.1665 C.2       12 UNK         0.5000 
     73 O          -4.5958  -23.4701  -45.4876 O.2       12 UNK        -0.5000 
     74 N          -2.9036  -24.9543  -45.2156 N.am      13 UNK        -0.5000 
     75 CA         -3.6234  -26.1499  -45.6616 C.3       13 UNK         0.1400 
     76 CB         -2.7979  -27.3943  -45.3010 C.3       13 UNK        -0.1800 
     77 C          -3.9594  -26.1443  -47.1670 C.2       13 UNK         0.5000 
     78 O          -4.9810  -26.7087  -47.5591 O.2       13 UNK        -0.5000 
     79 N          -3.1037  -25.5085  -47.9775 N.am      14 UNK        -0.5000 
     80 CA         -3.2848  -25.3450  -49.4187 C.3       14 UNK         0.1400 
     81 CB         -1.9095  -25.3418  -50.1050 C.3       14 UNK        -0.1800 
     82 C          -4.0468  -24.0484  -49.7284 C.2       14 UNK         0.5000 
     83 O          -4.9426  -24.0517  -50.5733 O.2       14 UNK        -0.5000 
     84 N          -3.7016  -22.9641  -49.0200 N.am      15 UNK        -0.5000 
     85 CA         -4.2838  -21.6261  -49.1479 C.3       15 UNK         0.1400 
     86 CB         -3.4906  -20.6414  -48.2806 C.3       15 UNK        -0.1800 
     87 C          -5.7875  -21.5642  -48.8186 C.2       15 UNK         0.5000 
     88 O          -6.4741  -20.6765  -49.3231 O.2       15 UNK        -0.5000 
     89 N          -6.2931  -22.5467  -48.0593 N.am      16 UNK        -0.5000 
     90 CA         -7.7203  -22.8081  -47.8481 C.3       16 UNK         0.1400 
     91 CB         -7.8673  -23.9729  -46.8575 C.3       16 UNK        -0.1800 
     92 C          -8.4972  -23.1083  -49.1511 C.2       16 UNK         0.5000 
     93 O          -9.6975  -22.8410  -49.2129 O.2       16 UNK        -0.5000 
     94 N          -7.7957  -23.6228  -50.1704 N.am      17 UNK        -0.5000 
     95 CA         -8.2804  -23.8398  -51.5344 C.3       17 UNK         0.1400 
     96 CB         -8.0758  -25.3223  -51.8931 C.3       17 UNK        -0.1800 
     97 C          -7.5561  -22.9055  -52.5294 C.2       17 UNK         0.5000 
     98 O          -7.4837  -23.2150  -53.7199 O.2       17 UNK        -0.5000 
     99 N          -6.9980  -21.7938  -52.0214 N.am      18 UNK        -0.5000 
    100 CA        -6.2164  -20.7681  -52.7237 C.3       18 UNK         0.1400 
    101 CB        -7.0952  -20.0227  -53.7472 C.3       18 UNK        -0.1800 
    102 C         -4.9040  -21.2863  -53.3503 C.2       18 UNK         0.5000 
    103 O         -4.3579  -20.6351  -54.2418 O.2       18 UNK        -0.5000 
    104 N         -4.4258  -22.4591  -52.9072 N.am      19 UNK        -0.5000 
    105 CA        -3.2182  -23.1652  -53.3568 C.3       19 UNK         0.1400 
    106 CB        -1.9632  -22.4122  -52.8699 C.3       19 UNK        -0.1800 
    107 C         -3.1737  -23.4699  -54.8728 C.2       19 UNK         0.5000 
    108 O         -2.1000  -23.7555  -55.4044 O.2       19 UNK        -0.5000 
    109 N         -4.3363  -23.3790  -55.5394 N.am      20 UNK        -0.5000 
    110 CA        -4.5458  -23.4113  -56.9901 C.3       20 UNK         0.1400 
    111 CB        -4.2874  -24.8292  -57.5411 C.3       20 UNK        -0.1800 
    112 C         -3.7601  -22.3164  -57.7527 C.2       20 UNK         0.5000 
    113 O         -3.4084  -22.5237  -58.9161 O.2       20 UNK        -0.5000 
    114 N         -3.4862  -21.1790  -57.0943 N.am      21 UNK        -0.5000 
    115 CA        -2.6328  -20.1125  -57.6257 C.3       21 UNK         0.1400 
    116 CB        -1.1676  -20.3971  -57.2511 C.3       21 UNK        -0.1800 
    117 C         -3.0438  -18.7077  -57.1563 C.2       21 UNK         0.5000 
    118 O         -2.8770  -17.7531  -57.9169 O.2       21 UNK        -0.5000 
    119 N         -3.5612  -18.5894  -55.9282 N.am      22 UNK        -0.5000 
    120 CA        -3.9366  -17.3146  -55.2929 C.3       22 UNK         0.1400 
    121 C         -5.3706  -16.8210  -55.6471 C.2       22 UNK         0.5000 
    122 N         -6.1519  -17.5467  -56.4379 N.am      22 UNK        -0.7600 
    123 O         -5.7796  -15.7498  -55.2073 O.2       22 UNK        -0.5000 
    124 C124       -3.7116  -17.3576  -53.7576 C.3       23 UNK        -0.0398 
    125 S125       -1.9680  -17.6798  -53.3236 S.3       23 UNK        -0.2404 
    126 C126       -2.1275  -18.3353  -51.6345 C.3       23 UNK        -0.0205 
    127 H127        5.9749  -15.6069  -48.0474 H         1 UNK         0.0600 
    128 H128        7.1649  -15.1802  -46.8137 H         1 UNK         0.0600 
    129 H129        6.5329  -16.8284  -46.9012 H         1 UNK         0.0600 
    130 H130        3.9505  -14.8232  -47.5557 H         1 UNK         0.3000 
    131 H131        2.6219  -15.3376  -45.0783 H         1 UNK         0.0600 
    132 H132        1.8575  -13.6244  -47.5121 H         1 UNK         0.0800 
    133 H133        0.8281  -13.7819  -46.1159 H         1 UNK         0.0800 
    134 H134        2.5257  -15.8364  -49.0582 H         1 UNK         0.0800 
    135 H135        1.0646  -15.0025  -49.5452 H         1 UNK         0.0800 
    136 H136       -0.9228  -16.2816  -50.3217 H         1 UNK         0.1150 
    137 H137       -0.3413  -20.3902  -51.3927 H         1 UNK         0.1150 
    138 H138        2.6980  -18.2901  -49.2157 H         1 UNK         0.1150 
    139 H139        1.6493  -21.5447  -50.8339 H         1 UNK         0.0800 
    140 H140        3.0684  -20.5276  -50.8063 H         1 UNK         0.0800 
    141 H141        0.1647  -21.7122  -48.7325 H         1 UNK         0.0800 
    142 H142        0.5375  -20.5459  -47.4874 H         1 UNK         0.0800 
    143 H143        1.1050  -23.5551  -47.2924 H         1 UNK         0.0600 
    144 H144        1.4502  -21.3747  -45.2790 H         1 UNK         0.3000 
    145 H145        2.4590  -22.6381  -42.9631 H         1 UNK         0.0600 
    146 H146        4.9298  -22.9183  -42.5955 H         1 UNK         0.0600 
    147 H147        4.1546  -24.3932  -43.1496 H         1 UNK         0.0600 
    148 H148        5.1106  -23.4382  -44.2711 H         1 UNK         0.0600 
    149 H149        2.8534  -20.5253  -43.4328 H         1 UNK         0.3000 
    150 H150        5.1688  -18.6450  -45.1182 H         1 UNK         0.0600 
    151 H151        3.8434  -18.9649  -47.1513 H         1 UNK         0.0600 
    152 H152        3.1996  -17.5669  -46.3115 H         1 UNK         0.0600 
    153 H153        2.3472  -19.1002  -46.2380 H         1 UNK         0.0600 
    154 H154        2.5706  -18.1560  -43.9004 H         1 UNK         0.3000 
    155 H155        3.7495  -17.9609  -40.5685 H         1 UNK         0.0600 
    156 H156        2.9600  -15.7120  -42.4874 H         1 UNK         0.0600 
    157 H157        4.3493  -15.7183  -41.4156 H         1 UNK         0.0600 
    158 H158        2.7263  -15.6760  -40.7393 H         1 UNK         0.0600 
    159 H159        1.2480  -17.4560  -41.9581 H         1 UNK         0.3000 
    160 H160        0.0226  -20.7844  -41.7059 H         1 UNK         0.0600 
    161 H161       -1.8005  -19.7675  -40.3651 H         1 UNK         0.0600 
    162 H162       -0.7832  -18.3773  -39.9837 H         1 UNK         0.0600 
    163 H163       -0.3658  -19.9743  -39.3735 H         1 UNK         0.0600 
    164 H164       -1.2231  -18.3042  -42.4096 H         1 UNK         0.3000 
    165 H165        0.0519  -17.8842  -45.5906 H         1 UNK         0.0600 
    166 H166       -2.1683  -18.2582  -46.5943 H         1 UNK         0.0600 
    167 H167       -1.4199  -19.8018  -46.2302 H         1 UNK         0.0600 
    168 H168       -2.6915  -19.1802  -45.1836 H         1 UNK         0.0600 
    169 H169       -2.3444  -16.8497  -44.4800 H         1 UNK         0.3000 
    170 H170       -2.5560  -15.1677  -43.0873 H         1 UNK         0.0600 
    171 H171       -1.1536  -15.3478  -41.0518 H         1 UNK         0.0600 
    172 H172       -0.0304  -14.1597  -41.6943 H         1 UNK         0.0600 
    173 H173       -1.6810  -13.6895  -41.3037 H         1 UNK         0.0600 
    174 H174       -0.8137  -12.9315  -43.6616 H         1 UNK         0.3000 
    175 H175       -1.4385  -12.4899  -46.8960 H         1 UNK         0.0600 
    176 H176       -3.1542  -10.6731  -46.8684 H         1 UNK         0.0600 
    177 H177       -3.9251  -12.2474  -46.7953 H         1 UNK         0.0600 
    178 H178       -3.7859  -11.2730  -45.3356 H         1 UNK         0.0600 
    179 H179       -1.0383  -11.3057  -44.2406 H         1 UNK         0.3000 
    180 H180        1.1578   -8.7961  -45.5181 H         1 UNK         0.0600 
    181 H181       -0.8546   -9.2516  -43.2484 H         1 UNK         0.0600 
    182 H182       -0.9579   -8.0169  -44.4922 H         1 UNK         0.0600 
    183 H183        0.3582   -7.9782  -43.3301 H         1 UNK         0.0600 
    184 H184        2.5543  -10.1527  -44.5121 H         1 UNK         0.3000 
    185 H185        3.5642  -11.4379  -43.0543 H         1 UNK         0.0600 
    186 H186        1.8442  -13.0847  -41.1214 H         1 UNK         0.0600 
    187 H187        3.6003  -12.9874  -41.1366 H         1 UNK         0.0600 
    188 H188        2.6441  -11.5675  -40.7433 H         1 UNK         0.0600 
    189 H189        2.1791  -14.0359  -43.3593 H         1 UNK         0.3000 
    190 H190       -0.4056  -22.3727  -44.5486 H         1 UNK         0.3000 
    191 H191       -2.9351  -21.6595  -45.1139 H         1 UNK         0.0600 
    192 H192       -1.9922  -21.5499  -42.8683 H         1 UNK         0.0600 
    193 H193       -1.9824  -23.3080  -42.7244 H         1 UNK         0.0600 
    194 H194       -3.5062  -22.4295  -42.7885 H         1 UNK         0.0600 
    195 H195       -1.9372  -25.0727  -44.9491 H         1 UNK         0.3000 
    196 H196       -4.5680  -26.1985  -45.1155 H         1 UNK         0.0600 
    197 H197       -3.3173  -28.3069  -45.5969 H         1 UNK         0.0600 
    198 H198       -2.6240  -27.4550  -44.2266 H         1 UNK         0.0600 
    199 H199       -1.8278  -27.3922  -45.7997 H         1 UNK         0.0600 
    200 H200       -2.3315  -24.9984  -47.5640 H         1 UNK         0.3000 
    201 H201       -3.8611  -26.1823  -49.8178 H         1 UNK         0.0600 
    202 H202       -1.3594  -26.2566  -49.8844 H         1 UNK         0.0600 
    203 H203       -1.2952  -24.4987  -49.7863 H         1 UNK         0.0600 
    204 H204       -2.0121  -25.2816  -51.1882 H         1 UNK         0.0600 
    205 H205       -2.9322  -23.0535  -48.3580 H         1 UNK         0.3000 
    206 H206       -4.1688  -21.3212  -50.1894 H         1 UNK         0.0600 
    207 H207       -2.4353  -20.6326  -48.5550 H         1 UNK         0.0600 
    208 H208       -3.8647  -19.6237  -48.3992 H         1 UNK         0.0600 
    209 H209       -3.5640  -20.8980  -47.2247 H         1 UNK         0.0600 
    210 H210       -5.6482  -23.2014  -47.6369 H         1 UNK         0.3000 
    211 H211       -8.1603  -21.9149  -47.4003 H         1 UNK         0.0600 
    212 H212       -7.4055  -24.8848  -47.2389 H         1 UNK         0.0600 
    213 H213       -8.9178  -24.1919  -46.6619 H         1 UNK         0.0600 
    214 H214       -7.4015  -23.7375  -45.9003 H         1 UNK         0.0600 
    215 H215       -6.8045  -23.8031  -50.0397 H         1 UNK         0.3000 
    216 H216       -9.3458  -23.6131  -51.6044 H         1 UNK         0.0600 
    217 H217       -8.4785  -25.5494  -52.8808 H         1 UNK         0.0600 
    218 H218       -8.5835  -25.9726  -51.1806 H         1 UNK         0.0600 
    219 H219       -7.0185  -25.5909  -51.8971 H         1 UNK         0.0600 
    220 H220       -7.1110  -21.6237  -51.0281 H         1 UNK         0.3000 
    221 H221       -5.9157  -20.0453  -51.9646 H         1 UNK         0.0600 
    222 H222       -7.3540  -20.6535  -54.5979 H         1 UNK         0.0600 
    223 H223       -8.0222  -19.6737  -53.2925 H         1 UNK         0.0600 
    224 H224       -6.5801  -19.1456  -54.1364 H         1 UNK         0.0600 
    225 H225       -4.9413  -22.9391  -52.1757 H         1 UNK         0.3000 
    226 H226       -3.2377  -24.1374  -52.8647 H         1 UNK         0.0600 
    227 H227       -2.0014  -22.2428  -51.7937 H         1 UNK         0.0600 
    228 H228       -1.8588  -21.4433  -53.3598 H         1 UNK         0.0600 
    229 H229       -1.0561  -22.9821  -53.0735 H         1 UNK         0.0600 
    230 H230       -5.1567  -23.1534  -54.9921 H         1 UNK         0.3000 
    231 H231       -5.6013  -23.1850  -57.1469 H         1 UNK         0.0600 
    232 H232       -4.8592  -25.5761  -56.9904 H         1 UNK         0.0600 
    233 H233       -3.2333  -25.1011  -57.4799 H         1 UNK         0.0600 
    234 H234       -4.5842  -24.9038  -58.5878 H         1 UNK         0.0600 
    235 H235       -3.8165  -21.0749  -56.1409 H         1 UNK         0.3000 
    236 H236       -2.7098  -20.0991  -58.7150 H         1 UNK         0.0600 
    237 H237       -0.5065  -19.6140  -57.6243 H         1 UNK         0.0600 
    238 H238       -1.0367  -20.4529  -56.1694 H         1 UNK         0.0600 
    239 H239       -0.8267  -21.3408  -57.6774 H         1 UNK         0.0600 
    240 H240       -3.6965  -19.4102  -55.3432 H         1 UNK         0.3000 
    241 H241       -3.2730  -16.5399  -55.6818 H         1 UNK         0.0600 
    242 H242       -7.0747  -17.2133  -56.6681 H         1 UNK         0.3800 
    243 H243       -5.8233  -18.4205  -56.8153 H         1 UNK         0.3800 
    244 H244       -3.9908  -16.4073  -53.2992 H         1 UNK         0.0800 
    245 H245       -4.3467  -18.1164  -53.2999 H         1 UNK         0.0800 
    246 H246       -2.5440  -19.3432  -51.6733 H         1 UNK         0.0800 
    247 H247       -2.8336  -17.7264  -51.0677 H         1 UNK         0.0800 
@<TRIPOS>BOND
     1    1    2 1    
     2    1  127 1    
     3    1  128 1    
     4    1  129 1    
     5    2    3 2    
     6    2    4 am   BACKBONE|DICT|INTERRES
     7    4    5 1    
     8    4  130 1    
     9    5    6 1    
    10    5   65 1    
    11    5  131 1    
    12    6    7 1    
    13    6  132 1    
    14    6  133 1    
    15    7    8 1    
    16    8    9 1    
    17    8  134 1    
    18    8  135 1    
    19    9   10 ar   
    20    9   14 ar   
    21   10   11 ar   
    22   10  136 1    
    23   11   12 ar   
    24   11  126 1    
    25   12   13 ar   
    26   12  137 1    
    27   13   14 ar   
    28   13   15 1    
    29   14  138 1    
    30   15   16 1    
    31   15  139 1    
    32   15  140 1    
    33   16   17 1    
    34   17   18 1    
    35   17  141 1    
    36   17  142 1    
    37   18   19 1    
    38   18   67 1    
    39   18  143 1    
    40   19   20 am   BACKBONE|DICT|INTERRES
    41   19  144 1    
    42   20   21 2    
    43   20   22 1    
    44   22   23 1    
    45   22   24 1    
    46   22  145 1    
    47   23  146 1    
    48   23  147 1    
    49   23  148 1    
    50   24   25 am   BACKBONE|DICT|INTERRES
    51   24  149 1    
    52   25   26 2    
    53   25   27 1    
    54   27   28 1    
    55   27   29 1    
    56   27  150 1    
    57   28  151 1    
    58   28  152 1    
    59   28  153 1    
    60   29   30 am   BACKBONE|DICT|INTERRES
    61   29  154 1    
    62   30   31 2    
    63   30   32 1    
    64   32   33 1    
    65   32   34 1    
    66   32  155 1    
    67   33  156 1    
    68   33  157 1    
    69   33  158 1    
    70   34   35 am   BACKBONE|DICT|INTERRES
    71   34  159 1    
    72   35   36 2    
    73   35   37 1    
    74   37   38 1    
    75   37   39 1    
    76   37  160 1    
    77   38  161 1    
    78   38  162 1    
    79   38  163 1    
    80   39   40 am   BACKBONE|DICT|INTERRES
    81   39  164 1    
    82   40   41 2    
    83   40   42 1    
    84   42   43 1    
    85   42   44 1    
    86   42  165 1    
    87   43  166 1    
    88   43  167 1    
    89   43  168 1    
    90   44   45 am   BACKBONE|DICT|INTERRES
    91   44  169 1    
    92   45   46 2    
    93   45   47 1    
    94   47   48 1    
    95   47   49 1    
    96   47  170 1    
    97   48  171 1    
    98   48  172 1    
    99   48  173 1    
   100   49   50 am   BACKBONE|DICT|INTERRES
   101   49  174 1    
   102   50   51 2    
   103   50   52 1    
   104   52   53 1    
   105   52   54 1    
   106   52  175 1    
   107   53  176 1    
   108   53  177 1    
   109   53  178 1    
   110   54   55 am   BACKBONE|DICT|INTERRES
   111   54  179 1    
   112   55   56 2    
   113   55   57 1    
   114   57   58 1    
   115   57   59 1    
   116   57  180 1    
   117   58  181 1    
   118   58  182 1    
   119   58  183 1    
   120   59   60 am   BACKBONE|DICT|INTERRES
   121   59  184 1    
   122   60   61 2    
   123   60   62 1    
   124   62   63 1    
   125   62   64 1    
   126   62  185 1    
   127   63  186 1    
   128   63  187 1    
   129   63  188 1    
   130   64   65 am   BACKBONE|DICT|INTERRES
   131   64  189 1    
   132   65   66 2    
   133   67   68 2    
   134   67   69 am   BACKBONE|DICT|INTERRES
   135   69   70 1    
   136   69  190 1    
   137   70   71 1    
   138   70   72 1    
   139   70  191 1    
   140   71  192 1    
   141   71  193 1    
   142   71  194 1    
   143   72   73 2    
   144   72   74 am   BACKBONE|DICT|INTERRES
   145   74   75 1    
   146   74  195 1    
   147   75   76 1    
   148   75   77 1    
   149   75  196 1    
   150   76  197 1    
   151   76  198 1    
   152   76  199 1    
   153   77   78 2    
   154   77   79 am   BACKBONE|DICT|INTERRES
   155   79   80 1    
   156   79  200 1    
   157   80   81 1    
   158   80   82 1    
   159   80  201 1    
   160   81  202 1    
   161   81  203 1    
   162   81  204 1    
   163   82   83 2    
   164   82   84 am   BACKBONE|DICT|INTERRES
   165   84   85 1    
   166   84  205 1    
   167   85   86 1    
   168   85   87 1    
   169   85  206 1    
   170   86  207 1    
   171   86  208 1    
   172   86  209 1    
   173   87   88 2    
   174   87   89 am   BACKBONE|DICT|INTERRES
   175   89   90 1    
   176   89  210 1    
   177   90   91 1    
   178   90   92 1    
   179   90  211 1    
   180   91  212 1    
   181   91  213 1    
   182   91  214 1    
   183   92   93 2    
   184   92   94 am   BACKBONE|DICT|INTERRES
   185   94   95 1    
   186   94  215 1    
   187   95   96 1    
   188   95   97 1    
   189   95  216 1    
   190   96  217 1    
   191   96  218 1    
   192   96  219 1    
   193   97   98 2    
   194   97   99 am   BACKBONE|DICT|INTERRES
   195   99  100 1    
   196   99  220 1    
   197  100  101 1    
   198  100  102 1    
   199  100  221 1    
   200  101  222 1    
   201  101  223 1    
   202  101  224 1    
   203  102  103 2    
   204  102  104 am   BACKBONE|DICT|INTERRES
   205  104  105 1    
   206  104  225 1    
   207  105  106 1    
   208  105  107 1    
   209  105  226 1    
   210  106  227 1    
   211  106  228 1    
   212  106  229 1    
   213  107  108 2    
   214  107  109 am   BACKBONE|DICT|INTERRES
   215  109  110 1    
   216  109  230 1    
   217  110  111 1    
   218  110  112 1    
   219  110  231 1    
   220  111  232 1    
   221  111  233 1    
   222  111  234 1    
   223  112  113 2    
   224  112  114 am   BACKBONE|DICT|INTERRES
   225  114  115 1    
   226  114  235 1    
   227  115  116 1    
   228  115  117 1    
   229  115  236 1    
   230  116  237 1    
   231  116  238 1    
   232  116  239 1    
   233  117  118 2    
   234  117  119 am   BACKBONE|DICT|INTERRES
   235  119  120 1    
   236  119  240 1    
   237  120  121 1    
   238  120  124 1    
   239  120  241 1    
   240  121  122 am   BACKBONE|DICT|INTERRES
   241  121  123 2    
   242  122  242 1    
   243  122  243 1    
   244  124  125 1    
   245  124  244 1    
   246  124  245 1    
   247  125  126 1    
   248  126  246 1    
   249  126  247 1    
@<TRIPOS>SUBSTRUCTURE
     1 UNK         1 GROUP             0       ****    0 ROOT    
