@<TRIPOS>MOLECULE
3R540
247   249    1
SMALL
USER_CHARGES


@<TRIPOS>ATOM
      1 CA          0.9816  -10.0999  -51.4190 C.3       0 UNK        -0.1800 
      2 C           2.1607  -10.5435  -50.5650 C.2       0 UNK         0.5000 
      3 O           3.1118   -9.7821  -50.3905 O.2       0 UNK        -0.5000 
      4 N           2.0954  -11.7669  -50.0232 N.am      1 UNK        -0.5000 
      5 CA          3.1357  -12.3789  -49.1810 C.3       1 UNK         0.1400 
      6 C6          3.1874  -13.9214  -49.3731 C.3       23 UNK        -0.0398 
      7 S7          4.8950  -14.5565  -49.4728 S.3       23 UNK        -0.2404 
      8 C8          4.6825  -16.0147  -50.5416 C.3       23 UNK        -0.0205 
      9 C9          3.9887  -17.1590  -49.8166 C.ar      23 UNK        -0.0193 
     10 C10         2.6156  -17.3742  -49.9780 C.ar      23 UNK        -0.1150 
     11 C11         1.9859  -18.4427  -49.3326 C.ar      23 UNK        -0.0193 
     12 C12         2.7423  -19.2966  -48.5254 C.ar      23 UNK        -0.1150 
     13 C13         4.1096  -19.0861  -48.3429 C.ar      23 UNK        -0.0193 
     14 C14         4.7288  -18.0162  -48.9956 C.ar      23 UNK        -0.1150 
     15 C15         4.9202  -20.0341  -47.4713 C.3       23 UNK        -0.0205 
     16 S16         4.9201  -19.5603  -45.7074 S.3       23 UNK        -0.2404 
     17 C17         3.2883  -20.1317  -45.1095 C.3       23 UNK        -0.0398 
     18 CA          3.3277  -21.5476  -44.4796 C.3       11 UNK         0.1400 
     19 N           2.1521  -21.8020  -43.6450 N.am      11 UNK        -0.5000 
     20 C           2.0273  -22.8168  -42.7762 C.2       10 UNK         0.5000 
     21 O           2.9212  -23.6305  -42.5406 O.2       10 UNK        -0.5000 
     22 CA          0.6823  -22.9448  -42.0407 C.3       10 UNK         0.1400 
     23 CB          0.6382  -22.0096  -40.8226 C.3       10 UNK        -0.1800 
     24 N          -0.4311  -22.6346  -42.9369 N.am      10 UNK        -0.5000 
     25 C          -1.1737  -23.5557  -43.5673 C.2       9 UNK         0.5000 
     26 O          -1.0949  -24.7635  -43.3404 O.2       9 UNK        -0.5000 
     27 CA         -2.1973  -23.0634  -44.6133 C.3       9 UNK         0.1400 
     28 CB         -3.6359  -23.3262  -44.1400 C.3       9 UNK        -0.1800 
     29 N          -2.0707  -21.6457  -44.9574 N.am      9 UNK        -0.5000 
     30 C          -1.0988  -21.1331  -45.7222 C.2       8 UNK         0.5000 
     31 O          -0.1660  -21.7893  -46.1805 O.2       8 UNK        -0.5000 
     32 CA         -1.1503  -19.6159  -45.9617 C.3       8 UNK         0.1400 
     33 CB         -2.2166  -19.2776  -47.0145 C.3       8 UNK        -0.1800 
     34 N          -1.3917  -18.8183  -44.7539 N.am      8 UNK        -0.5000 
     35 C          -0.6904  -18.8893  -43.6127 C.2       7 UNK         0.5000 
     36 O           0.2009  -19.7183  -43.4183 O.2       7 UNK        -0.5000 
     37 CA         -1.0470  -17.8710  -42.5109 C.3       7 UNK         0.1400 
     38 CB          0.0375  -17.7813  -41.4226 C.3       7 UNK        -0.1800 
     39 N          -1.2499  -16.5379  -43.0760 N.am      7 UNK        -0.5000 
     40 C          -2.4351  -15.9716  -43.3344 C.2       6 UNK         0.5000 
     41 O          -3.5172  -16.5154  -43.1140 O.2       6 UNK        -0.5000 
     42 CA         -2.3998  -14.5809  -43.9961 C.3       6 UNK         0.1400 
     43 CB         -2.1011  -13.4853  -42.9616 C.3       6 UNK        -0.1800 
     44 N          -1.4171  -14.5153  -45.0783 N.am      6 UNK        -0.5000 
     45 C          -1.5194  -15.1877  -46.2334 C.2       5 UNK         0.5000 
     46 O          -2.5022  -15.8607  -46.5400 O.2       5 UNK        -0.5000 
     47 CA         -0.3235  -15.1151  -47.1981 C.3       5 UNK         0.1400 
     48 CB         -0.4732  -13.9357  -48.1712 C.3       5 UNK        -0.1800 
     49 N           0.9455  -15.0109  -46.4760 N.am      5 UNK        -0.5000 
     50 C           1.6081  -16.0637  -45.9735 C.2       4 UNK         0.5000 
     51 O           1.2605  -17.2293  -46.1441 O.2       4 UNK        -0.5000 
     52 CA          2.8481  -15.7763  -45.1064 C.3       4 UNK         0.1400 
     53 CB          4.1342  -15.8736  -45.9351 C.3       4 UNK        -0.1800 
     54 N           2.7976  -14.4714  -44.4475 N.am      4 UNK        -0.5000 
     55 C           1.9885  -14.1852  -43.4186 C.2       3 UNK         0.5000 
     56 O           1.2168  -14.9999  -42.9144 O.2       3 UNK        -0.5000 
     57 CA          1.9990  -12.7336  -42.9016 C.3       3 UNK         0.1400 
     58 CB          3.0669  -12.5582  -41.8122 C.3       3 UNK        -0.1800 
     59 N           2.2108  -11.7338  -43.9519 N.am      3 UNK        -0.5000 
     60 C           1.4320  -11.5720  -45.0302 C.2       2 UNK         0.5000 
     61 O           0.4437  -12.2702  -45.2600 O.2       2 UNK        -0.5000 
     62 CA          1.8242  -10.4803  -46.0456 C.3       2 UNK         0.1400 
     63 CB          2.9972   -9.5812  -45.5933 C.3       2 UNK        -0.1800 
     64 N           2.0956  -11.0497  -47.3695 N.am      2 UNK        -0.5000 
     65 C           3.0204  -11.9697  -47.6896 C.2       1 UNK         0.5000 
     66 O           3.7625  -12.4929  -46.8575 O.2       1 UNK        -0.5000 
     67 C           3.5105  -22.6536  -45.5405 C.2       11 UNK         0.5000 
     68 O           4.5852  -23.2520  -45.6180 O.2       11 UNK        -0.5000 
     69 N           2.4595  -22.9096  -46.3289 N.am      12 UNK        -0.5000 
     70 CA          2.4020  -23.9896  -47.3102 C.3       12 UNK         0.1400 
     71 CB          1.5718  -23.5172  -48.5149 C.3       12 UNK        -0.1800 
     72 C           1.7884  -25.2512  -46.6788 C.2       12 UNK         0.5000 
     73 O           1.2348  -25.1927  -45.5791 O.2       12 UNK        -0.5000 
     74 N           1.8837  -26.3783  -47.3966 N.am      13 UNK        -0.5000 
     75 CA          1.3217  -27.6699  -46.9861 C.3       13 UNK         0.1400 
     76 CB          1.8610  -28.7691  -47.9146 C.3       13 UNK        -0.1800 
     77 C          -0.2209  -27.6912  -46.9639 C.2       13 UNK         0.5000 
     78 O          -0.8064  -28.4480  -46.1883 O.2       13 UNK        -0.5000 
     79 N          -0.8444  -26.8587  -47.8040 N.am      14 UNK        -0.5000 
     80 CA         -2.2815  -26.6402  -47.8980 C.3       14 UNK         0.1400 
     81 CB         -2.9504  -27.8015  -48.6571 C.3       14 UNK        -0.1800 
     82 C          -2.5151  -25.3050  -48.6175 C.2       14 UNK         0.5000 
     83 O          -1.6377  -24.8454  -49.3536 O.2       14 UNK        -0.5000 
     84 N          -3.6976  -24.7230  -48.4089 N.am      15 UNK        -0.5000 
     85 CA         -4.1641  -23.4904  -49.0337 C.3       15 UNK         0.1400 
     86 CB         -3.5288  -22.2766  -48.3347 C.3       15 UNK        -0.1800 
     87 C          -5.6943  -23.4472  -48.9242 C.2       15 UNK         0.5000 
     88 O          -6.2546  -24.0943  -48.0339 O.2       15 UNK        -0.5000 
     89 N          -6.3444  -22.6831  -49.8071 N.am      16 UNK        -0.5000 
     90 CA         -7.7932  -22.4895  -49.8229 C.3       16 UNK         0.1400 
     91 CB         -8.4792  -23.6856  -50.5088 C.3       16 UNK        -0.1800 
     92 C          -8.1277  -21.1897  -50.5609 C.2       16 UNK         0.5000 
     93 O          -7.3744  -20.7805  -51.4455 O.2       16 UNK        -0.5000 
     94 N          -9.2768  -20.5846  -50.2350 N.am      17 UNK        -0.5000 
     95 CA         -9.7856  -19.3757  -50.8933 C.3       17 UNK         0.1400 
     96 CB        -11.0351  -18.8750  -50.1536 C.3       17 UNK        -0.1800 
     97 C         -10.0871  -19.5957  -52.3883 C.2       17 UNK         0.5000 
     98 O          -9.7648  -18.7381  -53.2103 O.2       17 UNK        -0.5000 
     99 N         -10.6337  -20.7753  -52.7161 N.am      18 UNK        -0.5000 
    100 CA       -10.9129  -21.2249  -54.0830 C.3       18 UNK         0.1400 
    101 CB       -11.7884  -22.4859  -54.0205 C.3       18 UNK        -0.1800 
    102 C         -9.6420  -21.4940  -54.9151 C.2       18 UNK         0.5000 
    103 O         -9.7002  -21.4373  -56.1436 O.2       18 UNK        -0.5000 
    104 N         -8.5193  -21.7644  -54.2357 N.am      19 UNK        -0.5000 
    105 CA        -7.1976  -21.9595  -54.8328 C.3       19 UNK         0.1400 
    106 CB        -6.4286  -22.9953  -53.9940 C.3       19 UNK        -0.1800 
    107 C         -6.3994  -20.6438  -54.9449 C.2       19 UNK         0.5000 
    108 O         -5.2698  -20.6779  -55.4329 O.2       19 UNK        -0.5000 
    109 N         -6.9843  -19.5222  -54.4900 N.am      20 UNK        -0.5000 
    110 CA        -6.3773  -18.1946  -54.3527 C.3       20 UNK         0.1400 
    111 CB        -6.0054  -17.5995  -55.7271 C.3       20 UNK        -0.1800 
    112 C         -5.2028  -18.2244  -53.3554 C.2       20 UNK         0.5000 
    113 O         -4.0749  -17.8632  -53.7003 O.2       20 UNK        -0.5000 
    114 N         -5.4986  -18.7133  -52.1422 N.am      21 UNK        -0.5000 
    115 CA        -4.5708  -19.0202  -51.0551 C.3       21 UNK         0.1400 
    116 CB        -3.8768  -17.7484  -50.5139 C.3       21 UNK        -0.1800 
    117 C         -3.6133  -20.1393  -51.4963 C.2       21 UNK         0.5000 
    118 O         -4.0480  -21.2882  -51.5931 O.2       21 UNK        -0.5000 
    119 N         -2.3552  -19.7818  -51.7670 N.am      22 UNK        -0.5000 
    120 CA        -1.3168  -20.6848  -52.2850 C.3       22 UNK         0.1400 
    121 C         -1.2602  -20.7352  -53.8399 C.2       22 UNK         0.5000 
    122 N         -2.0361  -19.9394  -54.5675 N.am      22 UNK        -0.7600 
    123 O         -0.5012  -21.5207  -54.4009 O.2       22 UNK        -0.5000 
    124 C124        0.0758  -20.3641  -51.6825 C.3       23 UNK        -0.0398 
    125 S125        0.0419  -20.3756  -49.8585 S.3       23 UNK        -0.2404 
    126 C126        0.4833  -18.6508  -49.4606 C.3       23 UNK        -0.0205 
    127 H127        1.3151   -9.8807  -52.4333 H         1 UNK         0.0600 
    128 H128        0.5355   -9.1964  -51.0032 H         1 UNK         0.0600 
    129 H129        0.2083  -10.8665  -51.4739 H         1 UNK         0.0600 
    130 H130        1.2801  -12.3358  -50.2010 H         1 UNK         0.3000 
    131 H131        4.0920  -11.9708  -49.5153 H         1 UNK         0.0600 
    132 H132        2.6847  -14.1989  -50.3003 H         1 UNK         0.0800 
    133 H133        2.6581  -14.4570  -48.5849 H         1 UNK         0.0800 
    134 H134        4.1347  -15.7391  -51.4440 H         1 UNK         0.0800 
    135 H135        5.6661  -16.3456  -50.8781 H         1 UNK         0.0800 
    136 H136        2.0382  -16.7081  -50.6031 H         1 UNK         0.1150 
    137 H137        2.2568  -20.1300  -48.0396 H         1 UNK         0.1150 
    138 H138        5.7890  -17.8494  -48.8658 H         1 UNK         0.1150 
    139 H139        4.5555  -21.0533  -47.5945 H         1 UNK         0.0800 
    140 H140        5.9542  -20.0496  -47.8185 H         1 UNK         0.0800 
    141 H141        2.9767  -19.4117  -44.3512 H         1 UNK         0.0800 
    142 H142        2.5307  -20.0594  -45.8870 H         1 UNK         0.0800 
    143 H143        4.1941  -21.5882  -43.8156 H         1 UNK         0.0600 
    144 H144        1.3903  -21.1346  -43.7258 H         1 UNK         0.3000 
    145 H145        0.5989  -23.9698  -41.6735 H         1 UNK         0.0600 
    146 H146       -0.3150  -22.0865  -40.2995 H         1 UNK         0.0600 
    147 H147        1.4231  -22.2647  -40.1097 H         1 UNK         0.0600 
    148 H148        0.7832  -20.9681  -41.1067 H         1 UNK         0.0600 
    149 H149       -0.5431  -21.6613  -43.1917 H         1 UNK         0.3000 
    150 H150       -2.0287  -23.6487  -45.5204 H         1 UNK         0.0600 
    151 H151       -3.7877  -24.3823  -43.9134 H         1 UNK         0.0600 
    152 H152       -4.3608  -23.0555  -44.9080 H         1 UNK         0.0600 
    153 H153       -3.8715  -22.7597  -43.2384 H         1 UNK         0.0600 
    154 H154       -2.7769  -21.0241  -44.5915 H         1 UNK         0.3000 
    155 H155       -0.1748  -19.3302  -46.3551 H         1 UNK         0.0600 
    156 H156       -2.1424  -18.2399  -47.3311 H         1 UNK         0.0600 
    157 H157       -3.2272  -19.4460  -46.6412 H         1 UNK         0.0600 
    158 H158       -2.0907  -19.8845  -47.9096 H         1 UNK         0.0600 
    159 H159       -2.0970  -18.0991  -44.8291 H         1 UNK         0.3000 
    160 H160       -1.9648  -18.2218  -42.0354 H         1 UNK         0.0600 
    161 H161        1.0138  -17.5418  -41.8461 H         1 UNK         0.0600 
    162 H162        0.1328  -18.7240  -40.8844 H         1 UNK         0.0600 
    163 H163       -0.2041  -17.0141  -40.6868 H         1 UNK         0.0600 
    164 H164       -0.4037  -16.0066  -43.2635 H         1 UNK         0.3000 
    165 H165       -3.3859  -14.3846  -44.4223 H         1 UNK         0.0600 
    166 H166       -1.1413  -13.6434  -42.4706 H         1 UNK         0.0600 
    167 H167       -2.0821  -12.4986  -43.4250 H         1 UNK         0.0600 
    168 H168       -2.8661  -13.4666  -42.1844 H         1 UNK         0.0600 
    169 H169       -0.6174  -13.9066  -44.9403 H         1 UNK         0.3000 
    170 H170       -0.3246  -16.0324  -47.7904 H         1 UNK         0.0600 
    171 H171       -1.4354  -13.9749  -48.6835 H         1 UNK         0.0600 
    172 H172       -0.4139  -12.9739  -47.6621 H         1 UNK         0.0600 
    173 H173        0.2974  -13.9617  -48.9393 H         1 UNK         0.0600 
    174 H174        1.2500  -14.0798  -46.2252 H         1 UNK         0.3000 
    175 H175        2.8882  -16.5507  -44.3370 H         1 UNK         0.0600 
    176 H176        4.1719  -16.8126  -46.4850 H         1 UNK         0.0600 
    177 H177        4.2059  -15.0694  -46.6640 H         1 UNK         0.0600 
    178 H178        5.0187  -15.8317  -45.2998 H         1 UNK         0.0600 
    179 H179        3.3685  -13.7364  -44.8455 H         1 UNK         0.3000 
    180 H180        1.0228  -12.5371  -42.4548 H         1 UNK         0.0600 
    181 H181        4.0729  -12.7066  -42.2068 H         1 UNK         0.0600 
    182 H182        2.9217  -13.2766  -41.0041 H         1 UNK         0.0600 
    183 H183        3.0217  -11.5622  -41.3713 H         1 UNK         0.0600 
    184 H184        3.0185  -11.1367  -43.8508 H         1 UNK         0.3000 
    185 H185        0.9454   -9.8435  -46.1564 H         1 UNK         0.0600 
    186 H186        3.1864   -8.7964  -46.3258 H         1 UNK         0.0600 
    187 H187        2.7733   -9.0855  -44.6478 H         1 UNK         0.0600 
    188 H188        3.9250  -10.1405  -45.4677 H         1 UNK         0.0600 
    189 H189        1.5155  -10.7018  -48.1190 H         1 UNK         0.3000 
    190 H190        1.5741  -22.4372  -46.1567 H         1 UNK         0.3000 
    191 H191        3.4078  -24.2323  -47.6591 H         1 UNK         0.0600 
    192 H192        1.5532  -24.2683  -49.3050 H         1 UNK         0.0600 
    193 H193        1.9897  -22.6075  -48.9460 H         1 UNK         0.0600 
    194 H194        0.5370  -23.3107  -48.2395 H         1 UNK         0.0600 
    195 H195        2.3541  -26.3557  -48.2900 H         1 UNK         0.3000 
    196 H196        1.6666  -27.8814  -45.9717 H         1 UNK         0.0600 
    197 H197        1.4826  -29.7489  -47.6202 H         1 UNK         0.0600 
    198 H198        2.9494  -28.8186  -47.8780 H         1 UNK         0.0600 
    199 H199        1.5655  -28.6014  -48.9511 H         1 UNK         0.0600 
    200 H200       -0.2990  -26.2426  -48.3941 H         1 UNK         0.3000 
    201 H201       -2.6965  -26.5685  -46.8902 H         1 UNK         0.0600 
    202 H202       -2.8144  -28.7495  -48.1367 H         1 UNK         0.0600 
    203 H203       -2.5409  -27.9102  -49.6622 H         1 UNK         0.0600 
    204 H204       -4.0245  -27.6397  -48.7551 H         1 UNK         0.0600 
    205 H205       -4.3963  -25.1698  -47.8270 H         1 UNK         0.3000 
    206 H206       -3.8902  -23.4981  -50.0906 H         1 UNK         0.0600 
    207 H207       -2.4454  -22.2713  -48.4583 H         1 UNK         0.0600 
    208 H208       -3.9075  -21.3425  -48.7484 H         1 UNK         0.0600 
    209 H209       -3.7466  -22.2718  -47.2669 H         1 UNK         0.0600 
    210 H210       -5.8302  -22.1539  -50.5055 H         1 UNK         0.3000 
    211 H211       -8.1553  -22.3995  -48.7965 H         1 UNK         0.0600 
    212 H212       -8.1250  -23.8196  -51.5314 H         1 UNK         0.0600 
    213 H213       -9.5606  -23.5503  -50.5503 H         1 UNK         0.0600 
    214 H214       -8.2930  -24.6136  -49.9683 H         1 UNK         0.0600 
    215 H215       -9.8521  -20.9767  -49.5032 H         1 UNK         0.3000 
    216 H216       -9.0154  -18.6046  -50.8216 H         1 UNK         0.0600 
    217 H217      -11.4236  -17.9661  -50.6151 H         1 UNK         0.0600 
    218 H218      -10.8089  -18.6384  -49.1138 H         1 UNK         0.0600 
    219 H219      -11.8353  -19.6161  -50.1634 H         1 UNK         0.0600 
    220 H220      -10.8596  -21.4209  -51.9737 H         1 UNK         0.3000 
    221 H221      -11.4771  -20.4394  -54.5902 H         1 UNK         0.0600 
    222 H222      -11.2810  -23.3030  -53.5060 H         1 UNK         0.0600 
    223 H223      -12.7259  -22.2903  -53.4995 H         1 UNK         0.0600 
    224 H224      -12.0422  -22.8359  -55.0221 H         1 UNK         0.0600 
    225 H225       -8.5473  -21.7455  -53.2261 H         1 UNK         0.3000 
    226 H226       -7.3077  -22.3599  -55.8427 H         1 UNK         0.0600 
    227 H227       -6.9825  -23.9307  -53.9146 H         1 UNK         0.0600 
    228 H228       -5.4643  -23.2280  -54.4474 H         1 UNK         0.0600 
    229 H229       -6.2314  -22.6332  -52.9848 H         1 UNK         0.0600 
    230 H230       -7.9206  -19.6027  -54.1146 H         1 UNK         0.3000 
    231 H231       -7.1408  -17.5505  -53.9138 H         1 UNK         0.0600 
    232 H232       -5.6603  -16.5704  -55.6216 H         1 UNK         0.0600 
    233 H233       -6.8657  -17.5871  -56.3961 H         1 UNK         0.0600 
    234 H234       -5.2080  -18.1594  -56.2162 H         1 UNK         0.0600 
    235 H235       -6.4182  -19.1241  -52.0177 H         1 UNK         0.3000 
    236 H236       -5.1705  -19.4333  -50.2428 H         1 UNK         0.0600 
    237 H237       -4.6125  -17.0403  -50.1328 H         1 UNK         0.0600 
    238 H238       -3.2089  -17.9913  -49.6865 H         1 UNK         0.0600 
    239 H239       -3.2881  -17.2311  -51.2713 H         1 UNK         0.0600 
    240 H240       -2.1035  -18.8079  -51.6951 H         1 UNK         0.3000 
    241 H241       -1.5645  -21.7017  -51.9737 H         1 UNK         0.0600 
    242 H242       -2.6902  -19.2974  -54.1333 H         1 UNK         0.3800 
    243 H243       -2.0021  -20.0024  -55.5721 H         1 UNK         0.3800 
    244 H244        0.8091  -21.1065  -52.0018 H         1 UNK         0.0800 
    245 H245        0.4416  -19.4021  -52.0445 H         1 UNK         0.0800 
    246 H246        0.0335  -18.3862  -48.5055 H         1 UNK         0.0800 
    247 H247        0.0473  -17.9739  -50.1962 H         1 UNK         0.0800 
@<TRIPOS>BOND
     1    1    2 1    
     2    1  127 1    
     3    1  128 1    
     4    1  129 1    
     5    2    3 2    
     6    2    4 am   BACKBONE|DICT|INTERRES
     7    4    5 1    
     8    4  130 1    
     9    5    6 1    
    10    5   65 1    
    11    5  131 1    
    12    6    7 1    
    13    6  132 1    
    14    6  133 1    
    15    7    8 1    
    16    8    9 1    
    17    8  134 1    
    18    8  135 1    
    19    9   10 ar   
    20    9   14 ar   
    21   10   11 ar   
    22   10  136 1    
    23   11   12 ar   
    24   11  126 1    
    25   12   13 ar   
    26   12  137 1    
    27   13   14 ar   
    28   13   15 1    
    29   14  138 1    
    30   15   16 1    
    31   15  139 1    
    32   15  140 1    
    33   16   17 1    
    34   17   18 1    
    35   17  141 1    
    36   17  142 1    
    37   18   19 1    
    38   18   67 1    
    39   18  143 1    
    40   19   20 am   BACKBONE|DICT|INTERRES
    41   19  144 1    
    42   20   21 2    
    43   20   22 1    
    44   22   23 1    
    45   22   24 1    
    46   22  145 1    
    47   23  146 1    
    48   23  147 1    
    49   23  148 1    
    50   24   25 am   BACKBONE|DICT|INTERRES
    51   24  149 1    
    52   25   26 2    
    53   25   27 1    
    54   27   28 1    
    55   27   29 1    
    56   27  150 1    
    57   28  151 1    
    58   28  152 1    
    59   28  153 1    
    60   29   30 am   BACKBONE|DICT|INTERRES
    61   29  154 1    
    62   30   31 2    
    63   30   32 1    
    64   32   33 1    
    65   32   34 1    
    66   32  155 1    
    67   33  156 1    
    68   33  157 1    
    69   33  158 1    
    70   34   35 am   BACKBONE|DICT|INTERRES
    71   34  159 1    
    72   35   36 2    
    73   35   37 1    
    74   37   38 1    
    75   37   39 1    
    76   37  160 1    
    77   38  161 1    
    78   38  162 1    
    79   38  163 1    
    80   39   40 am   BACKBONE|DICT|INTERRES
    81   39  164 1    
    82   40   41 2    
    83   40   42 1    
    84   42   43 1    
    85   42   44 1    
    86   42  165 1    
    87   43  166 1    
    88   43  167 1    
    89   43  168 1    
    90   44   45 am   BACKBONE|DICT|INTERRES
    91   44  169 1    
    92   45   46 2    
    93   45   47 1    
    94   47   48 1    
    95   47   49 1    
    96   47  170 1    
    97   48  171 1    
    98   48  172 1    
    99   48  173 1    
   100   49   50 am   BACKBONE|DICT|INTERRES
   101   49  174 1    
   102   50   51 2    
   103   50   52 1    
   104   52   53 1    
   105   52   54 1    
   106   52  175 1    
   107   53  176 1    
   108   53  177 1    
   109   53  178 1    
   110   54   55 am   BACKBONE|DICT|INTERRES
   111   54  179 1    
   112   55   56 2    
   113   55   57 1    
   114   57   58 1    
   115   57   59 1    
   116   57  180 1    
   117   58  181 1    
   118   58  182 1    
   119   58  183 1    
   120   59   60 am   BACKBONE|DICT|INTERRES
   121   59  184 1    
   122   60   61 2    
   123   60   62 1    
   124   62   63 1    
   125   62   64 1    
   126   62  185 1    
   127   63  186 1    
   128   63  187 1    
   129   63  188 1    
   130   64   65 am   BACKBONE|DICT|INTERRES
   131   64  189 1    
   132   65   66 2    
   133   67   68 2    
   134   67   69 am   BACKBONE|DICT|INTERRES
   135   69   70 1    
   136   69  190 1    
   137   70   71 1    
   138   70   72 1    
   139   70  191 1    
   140   71  192 1    
   141   71  193 1    
   142   71  194 1    
   143   72   73 2    
   144   72   74 am   BACKBONE|DICT|INTERRES
   145   74   75 1    
   146   74  195 1    
   147   75   76 1    
   148   75   77 1    
   149   75  196 1    
   150   76  197 1    
   151   76  198 1    
   152   76  199 1    
   153   77   78 2    
   154   77   79 am   BACKBONE|DICT|INTERRES
   155   79   80 1    
   156   79  200 1    
   157   80   81 1    
   158   80   82 1    
   159   80  201 1    
   160   81  202 1    
   161   81  203 1    
   162   81  204 1    
   163   82   83 2    
   164   82   84 am   BACKBONE|DICT|INTERRES
   165   84   85 1    
   166   84  205 1    
   167   85   86 1    
   168   85   87 1    
   169   85  206 1    
   170   86  207 1    
   171   86  208 1    
   172   86  209 1    
   173   87   88 2    
   174   87   89 am   BACKBONE|DICT|INTERRES
   175   89   90 1    
   176   89  210 1    
   177   90   91 1    
   178   90   92 1    
   179   90  211 1    
   180   91  212 1    
   181   91  213 1    
   182   91  214 1    
   183   92   93 2    
   184   92   94 am   BACKBONE|DICT|INTERRES
   185   94   95 1    
   186   94  215 1    
   187   95   96 1    
   188   95   97 1    
   189   95  216 1    
   190   96  217 1    
   191   96  218 1    
   192   96  219 1    
   193   97   98 2    
   194   97   99 am   BACKBONE|DICT|INTERRES
   195   99  100 1    
   196   99  220 1    
   197  100  101 1    
   198  100  102 1    
   199  100  221 1    
   200  101  222 1    
   201  101  223 1    
   202  101  224 1    
   203  102  103 2    
   204  102  104 am   BACKBONE|DICT|INTERRES
   205  104  105 1    
   206  104  225 1    
   207  105  106 1    
   208  105  107 1    
   209  105  226 1    
   210  106  227 1    
   211  106  228 1    
   212  106  229 1    
   213  107  108 2    
   214  107  109 am   BACKBONE|DICT|INTERRES
   215  109  110 1    
   216  109  230 1    
   217  110  111 1    
   218  110  112 1    
   219  110  231 1    
   220  111  232 1    
   221  111  233 1    
   222  111  234 1    
   223  112  113 2    
   224  112  114 am   BACKBONE|DICT|INTERRES
   225  114  115 1    
   226  114  235 1    
   227  115  116 1    
   228  115  117 1    
   229  115  236 1    
   230  116  237 1    
   231  116  238 1    
   232  116  239 1    
   233  117  118 2    
   234  117  119 am   BACKBONE|DICT|INTERRES
   235  119  120 1    
   236  119  240 1    
   237  120  121 1    
   238  120  124 1    
   239  120  241 1    
   240  121  122 am   BACKBONE|DICT|INTERRES
   241  121  123 2    
   242  122  242 1    
   243  122  243 1    
   244  124  125 1    
   245  124  244 1    
   246  124  245 1    
   247  125  126 1    
   248  126  246 1    
   249  126  247 1    
@<TRIPOS>SUBSTRUCTURE
     1 UNK         1 GROUP             0       ****    0 ROOT    
