@<TRIPOS>MOLECULE
3R540
247   249    1
SMALL
USER_CHARGES


@<TRIPOS>ATOM
      1 CA          7.3525  -14.3315  -49.9040 C.3       0 UNK        -0.1800 
      2 C           6.0993  -13.8863  -49.1640 C.2       0 UNK         0.5000 
      3 O           5.9752  -14.1329  -47.9639 O.2       0 UNK        -0.5000 
      4 N           5.1719  -13.2279  -49.8704 N.am      1 UNK        -0.5000 
      5 CA          3.9056  -12.7100  -49.3423 C.3       1 UNK         0.1400 
      6 C6          2.8321  -12.5637  -50.4540 C.3       23 UNK        -0.0398 
      7 S7          2.0270  -14.1629  -50.7980 S.3       23 UNK        -0.2404 
      8 C8          0.6601  -14.0346  -49.6044 C.3       23 UNK        -0.0205 
      9 C9         -0.0209  -15.3686  -49.3521 C.ar      23 UNK        -0.0193 
     10 C10        -1.2644  -15.6492  -49.9241 C.ar      23 UNK        -0.1150 
     11 C11        -1.9200  -16.8495  -49.6366 C.ar      23 UNK        -0.0193 
     12 C12        -1.3276  -17.7634  -48.7618 C.ar      23 UNK        -0.1150 
     13 C13        -0.0712  -17.5090  -48.2046 C.ar      23 UNK        -0.0193 
     14 C14         0.5746  -16.3060  -48.5038 C.ar      23 UNK        -0.1150 
     15 C15         0.5850  -18.5165  -47.2690 C.3       23 UNK        -0.0205 
     16 S16         1.0201  -20.0648  -48.1199 S.3       23 UNK        -0.2404 
     17 C17        -0.5257  -21.0226  -47.9558 C.3       23 UNK        -0.0398 
     18 CA         -0.2660  -22.4503  -47.4312 C.3       11 UNK         0.1400 
     19 N           0.3695  -22.4608  -46.1111 N.am      11 UNK        -0.5000 
     20 C           1.0829  -23.4890  -45.6324 C.2       10 UNK         0.5000 
     21 O           1.2684  -24.5348  -46.2540 O.2       10 UNK        -0.5000 
     22 CA          1.6341  -23.3469  -44.2001 C.3       10 UNK         0.1400 
     23 CB          2.9799  -22.6073  -44.2132 C.3       10 UNK        -0.1800 
     24 N           0.7110  -22.6524  -43.3003 N.am      10 UNK        -0.5000 
     25 C          -0.5242  -23.0775  -43.0021 C.2       9 UNK         0.5000 
     26 O          -0.9860  -24.1455  -43.4016 O.2       9 UNK        -0.5000 
     27 CA         -1.4173  -22.1411  -42.1664 C.3       9 UNK         0.1400 
     28 CB         -1.4172  -22.5790  -40.6945 C.3       9 UNK        -0.1800 
     29 N          -1.0693  -20.7181  -42.2430 N.am      9 UNK        -0.5000 
     30 C          -1.0389  -19.9724  -43.3565 C.2       8 UNK         0.5000 
     31 O          -1.1911  -20.4259  -44.4951 O.2       8 UNK        -0.5000 
     32 CA         -0.7325  -18.4763  -43.1471 C.3       8 UNK         0.1400 
     33 CB          0.7861  -18.2537  -43.0808 C.3       8 UNK        -0.1800 
     34 N          -1.3025  -17.6258  -44.1941 N.am      8 UNK        -0.5000 
     35 C          -2.6156  -17.4796  -44.4290 C.2       7 UNK         0.5000 
     36 O          -3.4884  -17.9875  -43.7219 O.2       7 UNK        -0.5000 
     37 CA         -3.0233  -16.6423  -45.6627 C.3       7 UNK         0.1400 
     38 CB         -4.4541  -16.0733  -45.5647 C.3       7 UNK        -0.1800 
     39 N          -2.0659  -15.5880  -46.0125 N.am      7 UNK        -0.5000 
     40 C          -1.7121  -14.5293  -45.2692 C.2       6 UNK         0.5000 
     41 O          -2.1701  -14.2720  -44.1544 O.2       6 UNK        -0.5000 
     42 CA         -0.6315  -13.6178  -45.8835 C.3       6 UNK         0.1400 
     43 CB         -1.0591  -12.1418  -45.8691 C.3       6 UNK        -0.1800 
     44 N           0.6676  -13.7394  -45.2229 N.am      6 UNK        -0.5000 
     45 C           1.3410  -14.8741  -44.9863 C.2       5 UNK         0.5000 
     46 O           0.9369  -15.9913  -45.3037 O.2       5 UNK        -0.5000 
     47 CA          2.7072  -14.7472  -44.2932 C.3       5 UNK         0.1400 
     48 CB          3.8324  -14.7624  -45.3388 C.3       5 UNK        -0.1800 
     49 N           2.8145  -13.5292  -43.4884 N.am      5 UNK        -0.5000 
     50 C           2.4413  -13.4317  -42.2046 C.2       4 UNK         0.5000 
     51 O           1.9680  -14.3686  -41.5607 O.2       4 UNK        -0.5000 
     52 CA          2.6457  -12.0701  -41.5089 C.3       4 UNK         0.1400 
     53 CB          3.9445  -12.0819  -40.6876 C.3       4 UNK        -0.1800 
     54 N           2.6933  -10.9467  -42.4459 N.am      4 UNK        -0.5000 
     55 C           1.6173  -10.3781  -43.0066 C.2       3 UNK         0.5000 
     56 O           0.4590  -10.7013  -42.7449 O.2       3 UNK        -0.5000 
     57 CA          1.8822   -9.2853  -44.0640 C.3       3 UNK         0.1400 
     58 CB          1.8962   -7.8957  -43.4094 C.3       3 UNK        -0.1800 
     59 N           3.1259   -9.4735  -44.8230 N.am      3 UNK        -0.5000 
     60 C           3.3959  -10.5436  -45.5811 C.2       2 UNK         0.5000 
     61 O           2.6337  -11.5090  -45.6793 O.2       2 UNK        -0.5000 
     62 CA          4.7645  -10.5697  -46.2902 C.3       2 UNK         0.1400 
     63 CB          5.8720  -10.9477  -45.2939 C.3       2 UNK        -0.1800 
     64 N           4.7626  -11.5523  -47.3715 N.am      2 UNK        -0.5000 
     65 C           4.1176  -11.4113  -48.5343 C.2       1 UNK         0.5000 
     66 O           3.6899  -10.3325  -48.9498 O.2       1 UNK        -0.5000 
     67 C          -1.5671  -23.2744  -47.4386 C.2       11 UNK         0.5000 
     68 O          -1.9511  -23.7769  -48.4944 O.2       11 UNK        -0.5000 
     69 N          -2.2221  -23.4148  -46.2773 N.am      12 UNK        -0.5000 
     70 CA         -3.3769  -24.2943  -46.0933 C.3       12 UNK         0.1400 
     71 CB         -4.1518  -23.8921  -44.8302 C.3       12 UNK        -0.1800 
     72 C          -2.9483  -25.7704  -46.0484 C.2       12 UNK         0.5000 
     73 O          -3.5926  -26.6034  -46.6836 O.2       12 UNK        -0.5000 
     74 N          -1.8333  -26.0576  -45.3607 N.am      13 UNK        -0.5000 
     75 CA         -1.1911  -27.3740  -45.3094 C.3       13 UNK         0.1400 
     76 CB         -0.0551  -27.3472  -44.2760 C.3       13 UNK        -0.1800 
     77 C          -0.6713  -27.8398  -46.6840 C.2       13 UNK         0.5000 
     78 O          -0.7884  -29.0209  -47.0109 O.2       13 UNK        -0.5000 
     79 N          -0.1542  -26.8946  -47.4820 N.am      14 UNK        -0.5000 
     80 CA          0.2491  -27.0972  -48.8770 C.3       14 UNK         0.1400 
     81 CB          1.1811  -25.9477  -49.2915 C.3       14 UNK        -0.1800 
     82 C          -0.9396  -27.1977  -49.8588 C.2       14 UNK         0.5000 
     83 O          -0.7222  -27.5081  -51.0299 O.2       14 UNK        -0.5000 
     84 N          -2.1580  -26.9060  -49.3785 N.am      15 UNK        -0.5000 
     85 CA         -3.4439  -26.8779  -50.0849 C.3       15 UNK         0.1400 
     86 CB         -3.7758  -28.2435  -50.7185 C.3       15 UNK        -0.1800 
     87 C          -3.6051  -25.7168  -51.0873 C.2       15 UNK         0.5000 
     88 O          -4.6417  -25.6347  -51.7462 O.2       15 UNK        -0.5000 
     89 N          -2.6271  -24.8047  -51.1528 N.am      16 UNK        -0.5000 
     90 CA         -2.6481  -23.6086  -51.9932 C.3       16 UNK         0.1400 
     91 CB         -1.2652  -22.9403  -51.9734 C.3       16 UNK        -0.1800 
     92 C          -3.7367  -22.6166  -51.5573 C.2       16 UNK         0.5000 
     93 O          -4.4677  -22.1084  -52.4066 O.2       16 UNK        -0.5000 
     94 N          -3.8575  -22.3998  -50.2403 N.am      17 UNK        -0.5000 
     95 CA         -4.8923  -21.5474  -49.6503 C.3       17 UNK         0.1400 
     96 CB         -4.4472  -21.0688  -48.2609 C.3       17 UNK        -0.1800 
     97 C          -6.2635  -22.2427  -49.5841 C.2       17 UNK         0.5000 
     98 O          -7.2840  -21.5556  -49.5917 O.2       17 UNK        -0.5000 
     99 N          -6.2707  -23.5839  -49.5529 N.am      18 UNK        -0.5000 
    100 CA        -7.4841  -24.4034  -49.5970 C.3       18 UNK         0.1400 
    101 CB        -7.1585  -25.8409  -49.1624 C.3       18 UNK        -0.1800 
    102 C         -8.1330  -24.3793  -50.9932 C.2       18 UNK         0.5000 
    103 O         -9.3502  -24.2272  -51.0986 O.2       18 UNK        -0.5000 
    104 N         -7.3005  -24.4861  -52.0386 N.am      19 UNK        -0.5000 
    105 CA        -7.6964  -24.3405  -53.4411 C.3       19 UNK         0.1400 
    106 CB        -6.5980  -24.9527  -54.3250 C.3       19 UNK        -0.1800 
    107 C         -7.9451  -22.8746  -53.8513 C.2       19 UNK         0.5000 
    108 O         -8.5754  -22.6378  -54.8822 O.2       19 UNK        -0.5000 
    109 N         -7.4185  -21.9306  -53.0562 N.am      20 UNK        -0.5000 
    110 CA        -7.3687  -20.4818  -53.2829 C.3       20 UNK         0.1400 
    111 CB        -8.7833  -19.8687  -53.3193 C.3       20 UNK        -0.1800 
    112 C         -6.5082  -20.1020  -54.5075 C.2       20 UNK         0.5000 
    113 O         -6.7457  -19.0729  -55.1426 O.2       20 UNK        -0.5000 
    114 N         -5.4948  -20.9297  -54.7976 N.am      21 UNK        -0.5000 
    115 CA        -4.5396  -20.7676  -55.8946 C.3       21 UNK         0.1400 
    116 CB        -3.7101  -22.0548  -56.0203 C.3       21 UNK        -0.1800 
    117 C         -3.6216  -19.5460  -55.7072 C.2       21 UNK         0.5000 
    118 O         -3.1782  -18.9560  -56.6929 O.2       21 UNK        -0.5000 
    119 N         -3.3823  -19.1792  -54.4437 N.am      22 UNK        -0.5000 
    120 CA        -2.6905  -17.9542  -54.0240 C.3       22 UNK         0.1400 
    121 C         -3.5539  -16.6576  -54.1019 C.2       22 UNK         0.5000 
    122 N         -4.8322  -16.7152  -54.4613 N.am      22 UNK        -0.7600 
    123 O         -3.0478  -15.5690  -53.8445 O.2       22 UNK        -0.5000 
    124 C124       -2.0275  -18.1392  -52.6356 C.3       23 UNK        -0.0398 
    125 S125       -3.1930  -18.6534  -51.3224 S.3       23 UNK        -0.2404 
    126 C126       -3.2656  -17.1654  -50.2736 C.3       23 UNK        -0.0205 
    127 H127        7.3247  -14.0482  -50.9564 H         1 UNK         0.0600 
    128 H128        7.4566  -15.4149  -49.8459 H         1 UNK         0.0600 
    129 H129        8.2350  -13.8783  -49.4525 H         1 UNK         0.0600 
    130 H130        5.3431  -13.0417  -50.8482 H         1 UNK         0.3000 
    131 H131        3.5254  -13.4326  -48.6161 H         1 UNK         0.0600 
    132 H132        2.0500  -11.8542  -50.1765 H         1 UNK         0.0800 
    133 H133        3.2701  -12.1725  -51.3734 H         1 UNK         0.0800 
    134 H134       -0.0609  -13.2975  -49.9617 H         1 UNK         0.0800 
    135 H135        1.0452  -13.6518  -48.6583 H         1 UNK         0.0800 
    136 H136       -1.7233  -14.9317  -50.5901 H         1 UNK         0.1150 
    137 H137       -1.8443  -18.6834  -48.5381 H         1 UNK         0.1150 
    138 H138        1.5381  -16.0891  -48.0637 H         1 UNK         0.1150 
    139 H139       -0.0673  -18.7181  -46.4203 H         1 UNK         0.0800 
    140 H140        1.5012  -18.0993  -46.8489 H         1 UNK         0.0800 
    141 H141       -1.0011  -21.0507  -48.9382 H         1 UNK         0.0800 
    142 H142       -1.2188  -20.5068  -47.2899 H         1 UNK         0.0800 
    143 H143        0.4132  -22.9323  -48.1369 H         1 UNK         0.0600 
    144 H144        0.2011  -21.6519  -45.5243 H         1 UNK         0.3000 
    145 H145        1.7963  -24.3518  -43.8050 H         1 UNK         0.0600 
    146 H146        3.6961  -23.1125  -44.8627 H         1 UNK         0.0600 
    147 H147        3.4185  -22.5680  -43.2160 H         1 UNK         0.0600 
    148 H148        2.8738  -21.5836  -44.5750 H         1 UNK         0.0600 
    149 H149        1.0128  -21.7628  -42.9323 H         1 UNK         0.3000 
    150 H150       -2.4337  -22.2443  -42.5511 H         1 UNK         0.0600 
    151 H151       -0.4324  -22.4622  -40.2404 H         1 UNK         0.0600 
    152 H152       -1.7008  -23.6282  -40.5980 H         1 UNK         0.0600 
    153 H153       -2.1297  -21.9978  -40.1087 H         1 UNK         0.0600 
    154 H154       -0.9030  -20.2621  -41.3573 H         1 UNK         0.3000 
    155 H155       -1.1696  -18.1664  -42.1957 H         1 UNK         0.0600 
    156 H156        1.0183  -17.2194  -42.8274 H         1 UNK         0.0600 
    157 H157        1.2690  -18.4855  -44.0311 H         1 UNK         0.0600 
    158 H158        1.2468  -18.8804  -42.3164 H         1 UNK         0.0600 
    159 H159       -0.6386  -17.1365  -44.7860 H         1 UNK         0.3000 
    160 H160       -3.0164  -17.3413  -46.4992 H         1 UNK         0.0600 
    161 H161       -4.5695  -15.4120  -44.7056 H         1 UNK         0.0600 
    162 H162       -5.1880  -16.8734  -45.4617 H         1 UNK         0.0600 
    163 H163       -4.7160  -15.5100  -46.4604 H         1 UNK         0.0600 
    164 H164       -1.5835  -15.7279  -46.8900 H         1 UNK         0.3000 
    165 H165       -0.4941  -13.9080  -46.9240 H         1 UNK         0.0600 
    166 H166       -0.3309  -11.5153  -46.3850 H         1 UNK         0.0600 
    167 H167       -2.0185  -12.0079  -46.3702 H         1 UNK         0.0600 
    168 H168       -1.1630  -11.7639  -44.8513 H         1 UNK         0.0600 
    169 H169        1.1217  -12.8696  -44.9758 H         1 UNK         0.3000 
    170 H170        2.8364  -15.6203  -43.6502 H         1 UNK         0.0600 
    171 H171        4.8133  -14.6899  -44.8689 H         1 UNK         0.0600 
    172 H172        3.7374  -13.9395  -46.0464 H         1 UNK         0.0600 
    173 H173        3.8161  -15.6882  -45.9155 H         1 UNK         0.0600 
    174 H174        3.1231  -12.6979  -43.9744 H         1 UNK         0.3000 
    175 H175        1.8105  -11.9217  -40.8209 H         1 UNK         0.0600 
    176 H176        3.9367  -12.8905  -39.9555 H         1 UNK         0.0600 
    177 H177        4.8211  -12.2217  -41.3216 H         1 UNK         0.0600 
    178 H178        4.0721  -11.1492  -40.1379 H         1 UNK         0.0600 
    179 H179        3.6074  -10.6076  -42.7067 H         1 UNK         0.3000 
    180 H180        1.0548   -9.3182  -44.7761 H         1 UNK         0.0600 
    181 H181        2.7251   -7.7893  -42.7084 H         1 UNK         0.0600 
    182 H182        0.9733   -7.7147  -42.8565 H         1 UNK         0.0600 
    183 H183        1.9843   -7.1075  -44.1573 H         1 UNK         0.0600 
    184 H184        3.8011   -8.7239  -44.7720 H         1 UNK         0.3000 
    185 H185        4.9709   -9.5801  -46.7029 H         1 UNK         0.0600 
    186 H186        5.9398  -10.2214  -44.4831 H         1 UNK         0.0600 
    187 H187        5.6946  -11.9265  -44.8457 H         1 UNK         0.0600 
    188 H188        6.8462  -10.9770  -45.7824 H         1 UNK         0.0600 
    189 H189        5.1219  -12.4747  -47.1500 H         1 UNK         0.3000 
    190 H190       -1.8432  -22.9748  -45.4510 H         1 UNK         0.3000 
    191 H191       -4.0475  -24.1730  -46.9467 H         1 UNK         0.0600 
    192 H192       -4.4471  -22.8432  -44.8660 H         1 UNK         0.0600 
    193 H193       -5.0630  -24.4834  -44.7323 H         1 UNK         0.0600 
    194 H194       -3.5669  -24.0461  -43.9241 H         1 UNK         0.0600 
    195 H195       -1.4015  -25.3222  -44.8067 H         1 UNK         0.3000 
    196 H196       -1.9390  -28.0961  -44.9754 H         1 UNK         0.0600 
    197 H197        0.4175  -28.3263  -44.1894 H         1 UNK         0.0600 
    198 H198       -0.4278  -27.0765  -43.2878 H         1 UNK         0.0600 
    199 H199        0.7204  -26.6308  -44.5476 H         1 UNK         0.0600 
    200 H200       -0.0086  -25.9670  -47.0996 H         1 UNK         0.3000 
    201 H201        0.8088  -28.0323  -48.9435 H         1 UNK         0.0600 
    202 H202        1.5664  -26.0986  -50.3007 H         1 UNK         0.0600 
    203 H203        2.0408  -25.8746  -48.6252 H         1 UNK         0.0600 
    204 H204        0.6632  -24.9889  -49.2796 H         1 UNK         0.0600 
    205 H205       -2.2208  -26.6665  -48.3972 H         1 UNK         0.3000 
    206 H206       -4.1887  -26.6962  -49.3104 H         1 UNK         0.0600 
    207 H207       -3.6781  -29.0495  -49.9912 H         1 UNK         0.0600 
    208 H208       -4.8023  -28.2633  -51.0867 H         1 UNK         0.0600 
    209 H209       -3.1255  -28.4702  -51.5635 H         1 UNK         0.0600 
    210 H210       -1.8578  -24.8916  -50.5035 H         1 UNK         0.3000 
    211 H211       -2.8673  -23.9166  -53.0177 H         1 UNK         0.0600 
    212 H212       -0.9719  -22.6454  -50.9653 H         1 UNK         0.0600 
    213 H213       -1.2563  -22.0431  -52.5941 H         1 UNK         0.0600 
    214 H214       -0.4989  -23.6119  -52.3610 H         1 UNK         0.0600 
    215 H215       -3.2197  -22.8767  -49.6093 H         1 UNK         0.3000 
    216 H216       -5.0165  -20.6646  -50.2796 H         1 UNK         0.0600 
    217 H217       -5.1802  -20.3837  -47.8332 H         1 UNK         0.0600 
    218 H218       -3.5007  -20.5329  -48.3153 H         1 UNK         0.0600 
    219 H219       -4.3314  -21.8966  -47.5638 H         1 UNK         0.0600 
    220 H220       -5.3873  -24.0684  -49.5784 H         1 UNK         0.3000 
    221 H221       -8.2007  -23.9904  -48.8836 H         1 UNK         0.0600 
    222 H222       -6.5146  -26.3475  -49.8806 H         1 UNK         0.0600 
    223 H223       -6.6640  -25.8611  -48.1909 H         1 UNK         0.0600 
    224 H224       -8.0708  -26.4321  -49.0751 H         1 UNK         0.0600 
    225 H225       -6.3192  -24.6914  -51.8708 H         1 UNK         0.3000 
    226 H226       -8.6223  -24.8955  -53.6053 H         1 UNK         0.0600 
    227 H227       -6.8644  -24.8942  -55.3811 H         1 UNK         0.0600 
    228 H228       -5.6456  -24.4359  -54.1967 H         1 UNK         0.0600 
    229 H229       -6.4410  -26.0049  -54.0868 H         1 UNK         0.0600 
    230 H230       -6.8888  -22.2557  -52.2599 H         1 UNK         0.3000 
    231 H231       -6.8537  -20.0635  -52.4167 H         1 UNK         0.0600 
    232 H232       -9.3370  -20.1738  -54.2073 H         1 UNK         0.0600 
    233 H233       -8.7356  -18.7792  -53.3244 H         1 UNK         0.0600 
    234 H234       -9.3619  -20.1631  -52.4436 H         1 UNK         0.0600 
    235 H235       -5.3065  -21.6810  -54.1419 H         1 UNK         0.3000 
    236 H236       -5.1037  -20.6245  -56.8184 H         1 UNK         0.0600 
    237 H237       -3.1365  -22.2531  -55.1139 H         1 UNK         0.0600 
    238 H238       -4.3483  -22.9184  -56.2086 H         1 UNK         0.0600 
    239 H239       -3.0037  -21.9853  -56.8485 H         1 UNK         0.0600 
    240 H240       -3.7914  -19.7264  -53.6990 H         1 UNK         0.3000 
    241 H241       -1.8769  -17.7875  -54.7324 H         1 UNK         0.0600 
    242 H242       -5.2778  -17.5917  -54.7002 H         1 UNK         0.3800 
    243 H243       -5.3646  -15.8613  -54.5107 H         1 UNK         0.3800 
    244 H244       -1.4930  -17.2350  -52.3423 H         1 UNK         0.0800 
    245 H245       -1.2613  -18.9122  -52.7059 H         1 UNK         0.0800 
    246 H246       -3.6247  -16.3253  -50.8703 H         1 UNK         0.0800 
    247 H247       -4.0034  -17.3236  -49.4860 H         1 UNK         0.0800 
@<TRIPOS>BOND
     1    1    2 1    
     2    1  127 1    
     3    1  128 1    
     4    1  129 1    
     5    2    3 2    
     6    2    4 am   BACKBONE|DICT|INTERRES
     7    4    5 1    
     8    4  130 1    
     9    5    6 1    
    10    5   65 1    
    11    5  131 1    
    12    6    7 1    
    13    6  132 1    
    14    6  133 1    
    15    7    8 1    
    16    8    9 1    
    17    8  134 1    
    18    8  135 1    
    19    9   10 ar   
    20    9   14 ar   
    21   10   11 ar   
    22   10  136 1    
    23   11   12 ar   
    24   11  126 1    
    25   12   13 ar   
    26   12  137 1    
    27   13   14 ar   
    28   13   15 1    
    29   14  138 1    
    30   15   16 1    
    31   15  139 1    
    32   15  140 1    
    33   16   17 1    
    34   17   18 1    
    35   17  141 1    
    36   17  142 1    
    37   18   19 1    
    38   18   67 1    
    39   18  143 1    
    40   19   20 am   BACKBONE|DICT|INTERRES
    41   19  144 1    
    42   20   21 2    
    43   20   22 1    
    44   22   23 1    
    45   22   24 1    
    46   22  145 1    
    47   23  146 1    
    48   23  147 1    
    49   23  148 1    
    50   24   25 am   BACKBONE|DICT|INTERRES
    51   24  149 1    
    52   25   26 2    
    53   25   27 1    
    54   27   28 1    
    55   27   29 1    
    56   27  150 1    
    57   28  151 1    
    58   28  152 1    
    59   28  153 1    
    60   29   30 am   BACKBONE|DICT|INTERRES
    61   29  154 1    
    62   30   31 2    
    63   30   32 1    
    64   32   33 1    
    65   32   34 1    
    66   32  155 1    
    67   33  156 1    
    68   33  157 1    
    69   33  158 1    
    70   34   35 am   BACKBONE|DICT|INTERRES
    71   34  159 1    
    72   35   36 2    
    73   35   37 1    
    74   37   38 1    
    75   37   39 1    
    76   37  160 1    
    77   38  161 1    
    78   38  162 1    
    79   38  163 1    
    80   39   40 am   BACKBONE|DICT|INTERRES
    81   39  164 1    
    82   40   41 2    
    83   40   42 1    
    84   42   43 1    
    85   42   44 1    
    86   42  165 1    
    87   43  166 1    
    88   43  167 1    
    89   43  168 1    
    90   44   45 am   BACKBONE|DICT|INTERRES
    91   44  169 1    
    92   45   46 2    
    93   45   47 1    
    94   47   48 1    
    95   47   49 1    
    96   47  170 1    
    97   48  171 1    
    98   48  172 1    
    99   48  173 1    
   100   49   50 am   BACKBONE|DICT|INTERRES
   101   49  174 1    
   102   50   51 2    
   103   50   52 1    
   104   52   53 1    
   105   52   54 1    
   106   52  175 1    
   107   53  176 1    
   108   53  177 1    
   109   53  178 1    
   110   54   55 am   BACKBONE|DICT|INTERRES
   111   54  179 1    
   112   55   56 2    
   113   55   57 1    
   114   57   58 1    
   115   57   59 1    
   116   57  180 1    
   117   58  181 1    
   118   58  182 1    
   119   58  183 1    
   120   59   60 am   BACKBONE|DICT|INTERRES
   121   59  184 1    
   122   60   61 2    
   123   60   62 1    
   124   62   63 1    
   125   62   64 1    
   126   62  185 1    
   127   63  186 1    
   128   63  187 1    
   129   63  188 1    
   130   64   65 am   BACKBONE|DICT|INTERRES
   131   64  189 1    
   132   65   66 2    
   133   67   68 2    
   134   67   69 am   BACKBONE|DICT|INTERRES
   135   69   70 1    
   136   69  190 1    
   137   70   71 1    
   138   70   72 1    
   139   70  191 1    
   140   71  192 1    
   141   71  193 1    
   142   71  194 1    
   143   72   73 2    
   144   72   74 am   BACKBONE|DICT|INTERRES
   145   74   75 1    
   146   74  195 1    
   147   75   76 1    
   148   75   77 1    
   149   75  196 1    
   150   76  197 1    
   151   76  198 1    
   152   76  199 1    
   153   77   78 2    
   154   77   79 am   BACKBONE|DICT|INTERRES
   155   79   80 1    
   156   79  200 1    
   157   80   81 1    
   158   80   82 1    
   159   80  201 1    
   160   81  202 1    
   161   81  203 1    
   162   81  204 1    
   163   82   83 2    
   164   82   84 am   BACKBONE|DICT|INTERRES
   165   84   85 1    
   166   84  205 1    
   167   85   86 1    
   168   85   87 1    
   169   85  206 1    
   170   86  207 1    
   171   86  208 1    
   172   86  209 1    
   173   87   88 2    
   174   87   89 am   BACKBONE|DICT|INTERRES
   175   89   90 1    
   176   89  210 1    
   177   90   91 1    
   178   90   92 1    
   179   90  211 1    
   180   91  212 1    
   181   91  213 1    
   182   91  214 1    
   183   92   93 2    
   184   92   94 am   BACKBONE|DICT|INTERRES
   185   94   95 1    
   186   94  215 1    
   187   95   96 1    
   188   95   97 1    
   189   95  216 1    
   190   96  217 1    
   191   96  218 1    
   192   96  219 1    
   193   97   98 2    
   194   97   99 am   BACKBONE|DICT|INTERRES
   195   99  100 1    
   196   99  220 1    
   197  100  101 1    
   198  100  102 1    
   199  100  221 1    
   200  101  222 1    
   201  101  223 1    
   202  101  224 1    
   203  102  103 2    
   204  102  104 am   BACKBONE|DICT|INTERRES
   205  104  105 1    
   206  104  225 1    
   207  105  106 1    
   208  105  107 1    
   209  105  226 1    
   210  106  227 1    
   211  106  228 1    
   212  106  229 1    
   213  107  108 2    
   214  107  109 am   BACKBONE|DICT|INTERRES
   215  109  110 1    
   216  109  230 1    
   217  110  111 1    
   218  110  112 1    
   219  110  231 1    
   220  111  232 1    
   221  111  233 1    
   222  111  234 1    
   223  112  113 2    
   224  112  114 am   BACKBONE|DICT|INTERRES
   225  114  115 1    
   226  114  235 1    
   227  115  116 1    
   228  115  117 1    
   229  115  236 1    
   230  116  237 1    
   231  116  238 1    
   232  116  239 1    
   233  117  118 2    
   234  117  119 am   BACKBONE|DICT|INTERRES
   235  119  120 1    
   236  119  240 1    
   237  120  121 1    
   238  120  124 1    
   239  120  241 1    
   240  121  122 am   BACKBONE|DICT|INTERRES
   241  121  123 2    
   242  122  242 1    
   243  122  243 1    
   244  124  125 1    
   245  124  244 1    
   246  124  245 1    
   247  125  126 1    
   248  126  246 1    
   249  126  247 1    
@<TRIPOS>SUBSTRUCTURE
     1 UNK         1 GROUP             0       ****    0 ROOT    
