@<TRIPOS>MOLECULE
3R540
247   249    1
SMALL
USER_CHARGES


@<TRIPOS>ATOM
      1 CA         -3.4471  -18.1085  -44.4919 C.3       0 UNK        -0.1800 
      2 C          -3.5784  -16.9791  -45.5033 C.2       0 UNK         0.5000 
      3 O          -4.2335  -15.9754  -45.2256 O.2       0 UNK        -0.5000 
      4 N          -2.9605  -17.1449  -46.6790 N.am      1 UNK        -0.5000 
      5 CA         -2.9176  -16.1512  -47.7576 C.3       1 UNK         0.1400 
      6 C6         -2.5101  -16.8351  -49.0832 C.3       23 UNK        -0.0398 
      7 S7         -2.8579  -15.8711  -50.5972 S.3       23 UNK        -0.2404 
      8 C8         -1.2192  -15.2289  -51.0891 C.3       23 UNK        -0.0205 
      9 C9         -0.1170  -16.2786  -51.0277 C.ar      23 UNK        -0.0193 
     10 C10        -0.1514  -17.4030  -51.8588 C.ar      23 UNK        -0.1150 
     11 C11         0.8208  -18.4013  -51.7395 C.ar      23 UNK        -0.0193 
     12 C12         1.8515  -18.2512  -50.8080 C.ar      23 UNK        -0.1150 
     13 C13         1.8981  -17.1302  -49.9764 C.ar      23 UNK        -0.0193 
     14 C14         0.9148  -16.1450  -50.0945 C.ar      23 UNK        -0.1150 
     15 C15         2.9898  -16.9918  -48.9266 C.3       23 UNK        -0.0205 
     16 S16         2.9673  -18.3194  -47.6731 S.3       23 UNK        -0.2404 
     17 C17         1.2133  -18.4587  -47.1589 C.3       23 UNK        -0.0398 
     18 CA          0.7748  -19.9441  -47.0712 C.3       11 UNK         0.1400 
     19 N           1.5715  -20.6757  -46.0774 N.am      11 UNK        -0.5000 
     20 C           1.7736  -21.9986  -46.0376 C.2       10 UNK         0.5000 
     21 O           1.2069  -22.7918  -46.7883 O.2       10 UNK        -0.5000 
     22 CA          2.7347  -22.5181  -44.9556 C.3       10 UNK         0.1400 
     23 CB          4.1933  -22.3029  -45.3883 C.3       10 UNK        -0.1800 
     24 N           2.5063  -21.8310  -43.6839 N.am      10 UNK        -0.5000 
     25 C           1.8770  -22.3591  -42.6246 C.2       9 UNK         0.5000 
     26 O           1.4821  -23.5245  -42.5748 O.2       9 UNK        -0.5000 
     27 CA          1.6269  -21.4290  -41.4162 C.3       9 UNK         0.1400 
     28 CB          2.7766  -21.5408  -40.4037 C.3       9 UNK        -0.1800 
     29 N           1.4563  -20.0218  -41.7804 N.am      9 UNK        -0.5000 
     30 C           0.4934  -19.5452  -42.5806 C.2       8 UNK         0.5000 
     31 O          -0.4253  -20.2312  -43.0213 O.2       8 UNK        -0.5000 
     32 CA          0.5965  -18.0704  -43.0105 C.3       8 UNK         0.1400 
     33 CB         -0.3271  -17.1994  -42.1497 C.3       8 UNK        -0.1800 
     34 N           1.9555  -17.5176  -42.9816 N.am      8 UNK        -0.5000 
     35 C           3.0202  -18.0003  -43.6407 C.2       7 UNK         0.5000 
     36 O           2.9910  -19.0208  -44.3267 O.2       7 UNK        -0.5000 
     37 CA          4.3480  -17.2507  -43.4606 C.3       7 UNK         0.1400 
     38 CB          4.3908  -15.9834  -44.3254 C.3       7 UNK        -0.1800 
     39 N           4.5632  -16.8989  -42.0593 N.am      7 UNK        -0.5000 
     40 C           5.0285  -17.7492  -41.1340 C.2       6 UNK         0.5000 
     41 O           5.3976  -18.8972  -41.3818 O.2       6 UNK        -0.5000 
     42 CA          5.0708  -17.2370  -39.6822 C.3       6 UNK         0.1400 
     43 CB          6.4093  -16.5400  -39.3949 C.3       6 UNK        -0.1800 
     44 N           3.9742  -16.3193  -39.3688 N.am      6 UNK        -0.5000 
     45 C           2.6829  -16.6724  -39.3006 C.2       5 UNK         0.5000 
     46 O           2.2757  -17.8213  -39.4755 O.2       5 UNK        -0.5000 
     47 CA          1.6762  -15.5398  -39.0212 C.3       5 UNK         0.1400 
     48 CB          1.5024  -15.3384  -37.5084 C.3       5 UNK        -0.1800 
     49 N           2.0303  -14.2582  -39.6418 N.am      5 UNK        -0.5000 
     50 C           2.1652  -14.0533  -40.9585 C.2       4 UNK         0.5000 
     51 O           2.0918  -14.9464  -41.8045 O.2       4 UNK        -0.5000 
     52 CA          2.4739  -12.6188  -41.4107 C.3       4 UNK         0.1400 
     53 CB          3.9161  -12.5174  -41.9314 C.3       4 UNK        -0.1800 
     54 N           1.5508  -12.2111  -42.4676 N.am      4 UNK        -0.5000 
     55 C           0.2920  -11.8002  -42.2596 C.2       3 UNK         0.5000 
     56 O          -0.2084  -11.6744  -41.1411 O.2       3 UNK        -0.5000 
     57 CA         -0.5471  -11.4594  -43.5066 C.3       3 UNK         0.1400 
     58 CB         -0.4038   -9.9706  -43.8589 C.3       3 UNK        -0.1800 
     59 N          -0.1804  -12.2651  -44.6736 N.am      3 UNK        -0.5000 
     60 C          -0.5741  -13.5305  -44.8618 C.2       2 UNK         0.5000 
     61 O          -1.3129  -14.1427  -44.0879 O.2       2 UNK        -0.5000 
     62 CA         -0.0040  -14.2411  -46.1007 C.3       2 UNK         0.1400 
     63 CB          1.3150  -14.9347  -45.7382 C.3       2 UNK        -0.1800 
     64 N          -0.9380  -15.2409  -46.6131 N.am      2 UNK        -0.5000 
     65 C          -1.9828  -14.9696  -47.4076 C.2       1 UNK         0.5000 
     66 O          -2.2273  -13.8446  -47.8459 O.2       1 UNK        -0.5000 
     67 C          -0.7546  -20.1071  -46.8839 C.2       11 UNK         0.5000 
     68 O          -1.5256  -19.4507  -47.5822 O.2       11 UNK        -0.5000 
     69 N          -1.1866  -20.9855  -45.9701 N.am      12 UNK        -0.5000 
     70 CA         -2.5562  -21.4936  -45.8702 C.3       12 UNK         0.1400 
     71 CB         -2.8138  -21.9796  -44.4356 C.3       12 UNK        -0.1800 
     72 C          -2.8506  -22.6209  -46.8829 C.2       12 UNK         0.5000 
     73 O          -4.0091  -23.0257  -46.9972 O.2       12 UNK        -0.5000 
     74 N          -1.8206  -23.1119  -47.5911 N.am      13 UNK        -0.5000 
     75 CA         -1.8935  -24.1537  -48.6184 C.3       13 UNK         0.1400 
     76 CB         -0.5097  -24.3178  -49.2638 C.3       13 UNK        -0.1800 
     77 C          -2.9546  -23.8845  -49.7031 C.2       13 UNK         0.5000 
     78 O          -3.1201  -22.7419  -50.1371 O.2       13 UNK        -0.5000 
     79 N          -3.6529  -24.9549  -50.1067 N.am      14 UNK        -0.5000 
     80 CA         -4.7570  -24.9741  -51.0721 C.3       14 UNK         0.1400 
     81 CB         -4.2374  -24.7078  -52.4981 C.3       14 UNK        -0.1800 
     82 C          -5.9142  -24.0350  -50.6710 C.2       14 UNK         0.5000 
     83 O          -6.4021  -23.2694  -51.5032 O.2       14 UNK        -0.5000 
     84 N          -6.2998  -24.0969  -49.3864 N.am      15 UNK        -0.5000 
     85 CA         -7.3413  -23.2913  -48.7362 C.3       15 UNK         0.1400 
     86 CB         -8.7379  -23.6900  -49.2577 C.3       15 UNK        -0.1800 
     87 C          -7.0623  -21.7774  -48.8431 C.2       15 UNK         0.5000 
     88 O          -7.9368  -21.0103  -49.2486 O.2       15 UNK        -0.5000 
     89 N          -5.8247  -21.3961  -48.4955 N.am      16 UNK        -0.5000 
     90 CA         -5.2375  -20.0605  -48.6272 C.3       16 UNK         0.1400 
     91 CB         -5.9180  -19.0592  -47.6707 C.3       16 UNK        -0.1800 
     92 C          -5.2048  -19.5897  -50.0945 C.2       16 UNK         0.5000 
     93 O          -5.6867  -18.4999  -50.4078 O.2       16 UNK        -0.5000 
     94 N          -4.6271  -20.4400  -50.9563 N.am      17 UNK        -0.5000 
     95 CA         -4.4097  -20.2409  -52.3900 C.3       17 UNK         0.1400 
     96 CB         -3.3462  -19.1487  -52.6129 C.3       17 UNK        -0.1800 
     97 C          -5.7103  -19.9789  -53.1778 C.2       17 UNK         0.5000 
     98 O          -5.7770  -19.0335  -53.9670 O.2       17 UNK        -0.5000 
     99 N          -6.7264  -20.8229  -52.9557 N.am      18 UNK        -0.5000 
    100 CA        -8.0352  -20.7556  -53.6055 C.3       18 UNK         0.1400 
    101 CB        -9.0380  -21.6019  -52.8027 C.3       18 UNK        -0.1800 
    102 C         -7.9489  -21.1984  -55.0794 C.2       18 UNK         0.5000 
    103 O         -8.2015  -22.3629  -55.3919 O.2       18 UNK        -0.5000 
    104 N         -7.5285  -20.2684  -55.9483 N.am      19 UNK        -0.5000 
    105 CA        -7.3367  -20.3622  -57.4051 C.3       19 UNK         0.1400 
    106 CB        -8.6470  -20.7465  -58.1185 C.3       19 UNK        -0.1800 
    107 C         -6.1728  -21.2698  -57.8572 C.2       19 UNK         0.5000 
    108 O         -5.5786  -21.0093  -58.9035 O.2       19 UNK        -0.5000 
    109 N         -5.8457  -22.2953  -57.0634 N.am      20 UNK        -0.5000 
    110 CA        -4.7772  -23.2666  -57.3037 C.3       20 UNK         0.1400 
    111 CB        -5.0391  -24.4955  -56.4218 C.3       20 UNK        -0.1800 
    112 C         -3.3551  -22.7209  -57.0578 C.2       20 UNK         0.5000 
    113 O         -2.3903  -23.4232  -57.3629 O.2       20 UNK        -0.5000 
    114 N         -3.2396  -21.5073  -56.4935 N.am      21 UNK        -0.5000 
    115 CA        -1.9946  -20.7664  -56.2413 C.3       21 UNK         0.1400 
    116 CB        -1.3784  -20.2919  -57.5737 C.3       21 UNK        -0.1800 
    117 C         -0.9916  -21.5420  -55.3582 C.2       21 UNK         0.5000 
    118 O          0.2057  -21.5593  -55.6469 O.2       21 UNK        -0.5000 
    119 N         -1.5219  -22.1919  -54.3135 N.am      22 UNK        -0.5000 
    120 CA        -0.8191  -23.1058  -53.3921 C.3       22 UNK         0.1400 
    121 C         -0.4585  -24.4946  -54.0054 C.2       22 UNK         0.5000 
    122 N         -0.8609  -24.8244  -55.2274 N.am      22 UNK        -0.7600 
    123 O          0.1710  -25.3144  -53.3428 O.2       22 UNK        -0.5000 
    124 C124        0.3942  -22.4654  -52.6575 C.3       23 UNK        -0.0398 
    125 S125       -0.0506  -21.0083  -51.6537 S.3       23 UNK        -0.2404 
    126 C126        0.7488  -19.6624  -52.5834 C.3       23 UNK        -0.0205 
    127 H127       -2.5090  -18.6492  -44.6181 H         1 UNK         0.0600 
    128 H128       -4.2719  -18.8120  -44.6018 H         1 UNK         0.0600 
    129 H129       -3.4705  -17.7130  -43.4768 H         1 UNK         0.0600 
    130 H130       -2.4725  -18.0152  -46.8784 H         1 UNK         0.3000 
    131 H131       -3.9259  -15.7494  -47.8792 H         1 UNK         0.0600 
    132 H132       -1.4720  -17.1586  -49.0412 H         1 UNK         0.0800 
    133 H133       -3.0780  -17.7583  -49.1950 H         1 UNK         0.0800 
    134 H134       -1.2841  -14.8387  -52.1055 H         1 UNK         0.0800 
    135 H135       -0.9758  -14.3773  -50.4518 H         1 UNK         0.0800 
    136 H136       -0.9562  -17.5148  -52.5709 H         1 UNK         0.1150 
    137 H137        2.5999  -19.0246  -50.7052 H         1 UNK         0.1150 
    138 H138        0.9371  -15.2848  -49.4398 H         1 UNK         0.1150 
    139 H139        3.9593  -17.0044  -49.4261 H         1 UNK         0.0800 
    140 H140        2.9269  -16.0260  -48.4259 H         1 UNK         0.0800 
    141 H141        0.5801  -17.9110  -47.8553 H         1 UNK         0.0800 
    142 H142        1.0976  -17.9651  -46.1954 H         1 UNK         0.0800 
    143 H143        0.9833  -20.3935  -48.0449 H         1 UNK         0.0600 
    144 H144        2.1025  -20.0892  -45.4363 H         1 UNK         0.3000 
    145 H145        2.5689  -23.5919  -44.8482 H         1 UNK         0.0600 
    146 H146        4.8852  -22.7106  -44.6513 H         1 UNK         0.0600 
    147 H147        4.3967  -22.8012  -46.3370 H         1 UNK         0.0600 
    148 H148        4.4264  -21.2447  -45.5157 H         1 UNK         0.0600 
    149 H149        2.7686  -20.8510  -43.6532 H         1 UNK         0.3000 
    150 H150        0.7065  -21.7595  -40.9307 H         1 UNK         0.0600 
    151 H151        2.9125  -22.5729  -40.0779 H         1 UNK         0.0600 
    152 H152        2.5789  -20.9418  -39.5144 H         1 UNK         0.0600 
    153 H153        3.7215  -21.2029  -40.8313 H         1 UNK         0.0600 
    154 H154        2.1453  -19.3719  -41.4268 H         1 UNK         0.3000 
    155 H155        0.2432  -18.0129  -44.0403 H         1 UNK         0.0600 
    156 H156       -1.3599  -17.5426  -42.2126 H         1 UNK         0.0600 
    157 H157       -0.3102  -16.1590  -42.4741 H         1 UNK         0.0600 
    158 H158       -0.0371  -17.2326  -41.1006 H         1 UNK         0.0600 
    159 H159        2.0663  -16.6505  -42.4595 H         1 UNK         0.3000 
    160 H160        5.1519  -17.9103  -43.7947 H         1 UNK         0.0600 
    161 H161        3.6500  -15.2527  -44.0042 H         1 UNK         0.0600 
    162 H162        4.1939  -16.2171  -45.3727 H         1 UNK         0.0600 
    163 H163        5.3702  -15.5077  -44.2760 H         1 UNK         0.0600 
    164 H164        4.2279  -15.9939  -41.7619 H         1 UNK         0.3000 
    165 H165        4.9875  -18.1036  -39.0227 H         1 UNK         0.0600 
    166 H166        6.4815  -16.2402  -38.3493 H         1 UNK         0.0600 
    167 H167        7.2481  -17.2069  -39.5990 H         1 UNK         0.0600 
    168 H168        6.5407  -15.6492  -40.0105 H         1 UNK         0.0600 
    169 H169        4.2172  -15.3530  -39.2081 H         1 UNK         0.3000 
    170 H170        0.7125  -15.8454  -39.4304 H         1 UNK         0.0600 
    171 H171        1.2161  -16.2712  -37.0205 H         1 UNK         0.0600 
    172 H172        2.4238  -14.9916  -37.0390 H         1 UNK         0.0600 
    173 H173        0.7207  -14.6092  -37.2944 H         1 UNK         0.0600 
    174 H174        2.1154  -13.4699  -39.0162 H         1 UNK         0.3000 
    175 H175        2.3680  -11.9398  -40.5619 H         1 UNK         0.0600 
    176 H176        4.0802  -13.1551  -42.8005 H         1 UNK         0.0600 
    177 H177        4.1589  -11.4941  -42.2182 H         1 UNK         0.0600 
    178 H178        4.6311  -12.8173  -41.1643 H         1 UNK         0.0600 
    179 H179        1.8696  -12.3305  -43.4166 H         1 UNK         0.3000 
    180 H180       -1.5950  -11.6481  -43.2629 H         1 UNK         0.0600 
    181 H181        0.6232   -9.7145  -44.1224 H         1 UNK         0.0600 
    182 H182       -0.6931   -9.3408  -43.0165 H         1 UNK         0.0600 
    183 H183       -1.0439   -9.7009  -44.6992 H         1 UNK         0.0600 
    184 H184        0.4222  -11.8263  -45.3550 H         1 UNK         0.3000 
    185 H185        0.1932  -13.5036  -46.8819 H         1 UNK         0.0600 
    186 H186        2.0679  -14.2029  -45.4448 H         1 UNK         0.0600 
    187 H187        1.1887  -15.6286  -44.9073 H         1 UNK         0.0600 
    188 H188        1.7157  -15.4912  -46.5823 H         1 UNK         0.0600 
    189 H189       -0.8708  -16.1652  -46.2184 H         1 UNK         0.3000 
    190 H190       -0.4989  -21.4372  -45.3841 H         1 UNK         0.3000 
    191 H191       -3.2571  -20.6844  -46.0816 H         1 UNK         0.0600 
    192 H192       -2.7691  -21.1526  -43.7279 H         1 UNK         0.0600 
    193 H193       -3.8052  -22.4244  -44.3393 H         1 UNK         0.0600 
    194 H194       -2.0841  -22.7286  -44.1260 H         1 UNK         0.0600 
    195 H195       -0.8956  -22.7436  -47.4081 H         1 UNK         0.3000 
    196 H196       -2.1490  -25.0851  -48.1096 H         1 UNK         0.0600 
    197 H197       -0.5338  -25.0406  -50.0807 H         1 UNK         0.0600 
    198 H198        0.2231  -24.6731  -48.5394 H         1 UNK         0.0600 
    199 H199       -0.1466  -23.3734  -49.6697 H         1 UNK         0.0600 
    200 H200       -3.4383  -25.8483  -49.6856 H         1 UNK         0.3000 
    201 H201       -5.1646  -25.9859  -51.0554 H         1 UNK         0.0600 
    202 H202       -3.3987  -25.3583  -52.7462 H         1 UNK         0.0600 
    203 H203       -3.9172  -23.6746  -52.6280 H         1 UNK         0.0600 
    204 H204       -5.0256  -24.9028  -53.2240 H         1 UNK         0.0600 
    205 H205       -5.7954  -24.7246  -48.7763 H         1 UNK         0.3000 
    206 H206       -7.3044  -23.5345  -47.6732 H         1 UNK         0.0600 
    207 H207       -8.9149  -24.7581  -49.1319 H         1 UNK         0.0600 
    208 H208       -9.5230  -23.1649  -48.7124 H         1 UNK         0.0600 
    209 H209       -8.8600  -23.4530  -50.3147 H         1 UNK         0.0600 
    210 H210       -5.1916  -22.1145  -48.1525 H         1 UNK         0.3000 
    211 H211       -4.1948  -20.1482  -48.3196 H         1 UNK         0.0600 
    212 H212       -6.9726  -18.9191  -47.9079 H         1 UNK         0.0600 
    213 H213       -5.4436  -18.0798  -47.7305 H         1 UNK         0.0600 
    214 H214       -5.8475  -19.3935  -46.6359 H         1 UNK         0.0600 
    215 H215       -4.2446  -21.3082  -50.5861 H         1 UNK         0.3000 
    216 H216       -4.0038  -21.1800  -52.7658 H         1 UNK         0.0600 
    217 H217       -3.0532  -19.0876  -53.6596 H         1 UNK         0.0600 
    218 H218       -2.4489  -19.3524  -52.0309 H         1 UNK         0.0600 
    219 H219       -3.7140  -18.1650  -52.3217 H         1 UNK         0.0600 
    220 H220       -6.5863  -21.6084  -52.3224 H         1 UNK         0.3000 
    221 H221       -8.3840  -19.7211  -53.5811 H         1 UNK         0.0600 
    222 H222       -8.7416  -22.6506  -52.7610 H         1 UNK         0.0600 
    223 H223       -9.1259  -21.2400  -51.7782 H         1 UNK         0.0600 
    224 H224      -10.0316  -21.5590  -53.2501 H         1 UNK         0.0600 
    225 H225       -7.2274  -19.3897  -55.5414 H         1 UNK         0.3000 
    226 H226       -7.0759  -19.3530  -57.7273 H         1 UNK         0.0600 
    227 H227       -9.4574  -20.0700  -57.8471 H         1 UNK         0.0600 
    228 H228       -8.5291  -20.6934  -59.2015 H         1 UNK         0.0600 
    229 H229       -8.9614  -21.7622  -57.8772 H         1 UNK         0.0600 
    230 H230       -6.4491  -22.4664  -56.2656 H         1 UNK         0.3000 
    231 H231       -4.8248  -23.5791  -58.3488 H         1 UNK         0.0600 
    232 H232       -5.0367  -24.2262  -55.3672 H         1 UNK         0.0600 
    233 H233       -4.2781  -25.2630  -56.5701 H         1 UNK         0.0600 
    234 H234       -6.0046  -24.9474  -56.6503 H         1 UNK         0.0600 
    235 H235       -4.0961  -21.0196  -56.2748 H         1 UNK         0.3000 
    236 H236       -2.2710  -19.8747  -55.6794 H         1 UNK         0.0600 
    237 H237       -2.1016  -19.7283  -58.1632 H         1 UNK         0.0600 
    238 H238       -0.5232  -19.6378  -57.3993 H         1 UNK         0.0600 
    239 H239       -1.0321  -21.1293  -58.1805 H         1 UNK         0.0600 
    240 H240       -2.5203  -22.1412  -54.1897 H         1 UNK         0.3000 
    241 H241       -1.5522  -23.3413  -52.6208 H         1 UNK         0.0600 
    242 H242       -0.6223  -25.7344  -55.5880 H         1 UNK         0.3800 
    243 H243       -1.3611  -24.1741  -55.8230 H         1 UNK         0.3800 
    244 H244        0.8381  -23.1848  -51.9679 H         1 UNK         0.0800 
    245 H245        1.1885  -22.2137  -53.3602 H         1 UNK         0.0800 
    246 H246        1.7563  -19.9598  -52.8776 H         1 UNK         0.0800 
    247 H247        0.1961  -19.4759  -53.5047 H         1 UNK         0.0800 
@<TRIPOS>BOND
     1    1    2 1    
     2    1  127 1    
     3    1  128 1    
     4    1  129 1    
     5    2    3 2    
     6    2    4 am   BACKBONE|DICT|INTERRES
     7    4    5 1    
     8    4  130 1    
     9    5    6 1    
    10    5   65 1    
    11    5  131 1    
    12    6    7 1    
    13    6  132 1    
    14    6  133 1    
    15    7    8 1    
    16    8    9 1    
    17    8  134 1    
    18    8  135 1    
    19    9   10 ar   
    20    9   14 ar   
    21   10   11 ar   
    22   10  136 1    
    23   11   12 ar   
    24   11  126 1    
    25   12   13 ar   
    26   12  137 1    
    27   13   14 ar   
    28   13   15 1    
    29   14  138 1    
    30   15   16 1    
    31   15  139 1    
    32   15  140 1    
    33   16   17 1    
    34   17   18 1    
    35   17  141 1    
    36   17  142 1    
    37   18   19 1    
    38   18   67 1    
    39   18  143 1    
    40   19   20 am   BACKBONE|DICT|INTERRES
    41   19  144 1    
    42   20   21 2    
    43   20   22 1    
    44   22   23 1    
    45   22   24 1    
    46   22  145 1    
    47   23  146 1    
    48   23  147 1    
    49   23  148 1    
    50   24   25 am   BACKBONE|DICT|INTERRES
    51   24  149 1    
    52   25   26 2    
    53   25   27 1    
    54   27   28 1    
    55   27   29 1    
    56   27  150 1    
    57   28  151 1    
    58   28  152 1    
    59   28  153 1    
    60   29   30 am   BACKBONE|DICT|INTERRES
    61   29  154 1    
    62   30   31 2    
    63   30   32 1    
    64   32   33 1    
    65   32   34 1    
    66   32  155 1    
    67   33  156 1    
    68   33  157 1    
    69   33  158 1    
    70   34   35 am   BACKBONE|DICT|INTERRES
    71   34  159 1    
    72   35   36 2    
    73   35   37 1    
    74   37   38 1    
    75   37   39 1    
    76   37  160 1    
    77   38  161 1    
    78   38  162 1    
    79   38  163 1    
    80   39   40 am   BACKBONE|DICT|INTERRES
    81   39  164 1    
    82   40   41 2    
    83   40   42 1    
    84   42   43 1    
    85   42   44 1    
    86   42  165 1    
    87   43  166 1    
    88   43  167 1    
    89   43  168 1    
    90   44   45 am   BACKBONE|DICT|INTERRES
    91   44  169 1    
    92   45   46 2    
    93   45   47 1    
    94   47   48 1    
    95   47   49 1    
    96   47  170 1    
    97   48  171 1    
    98   48  172 1    
    99   48  173 1    
   100   49   50 am   BACKBONE|DICT|INTERRES
   101   49  174 1    
   102   50   51 2    
   103   50   52 1    
   104   52   53 1    
   105   52   54 1    
   106   52  175 1    
   107   53  176 1    
   108   53  177 1    
   109   53  178 1    
   110   54   55 am   BACKBONE|DICT|INTERRES
   111   54  179 1    
   112   55   56 2    
   113   55   57 1    
   114   57   58 1    
   115   57   59 1    
   116   57  180 1    
   117   58  181 1    
   118   58  182 1    
   119   58  183 1    
   120   59   60 am   BACKBONE|DICT|INTERRES
   121   59  184 1    
   122   60   61 2    
   123   60   62 1    
   124   62   63 1    
   125   62   64 1    
   126   62  185 1    
   127   63  186 1    
   128   63  187 1    
   129   63  188 1    
   130   64   65 am   BACKBONE|DICT|INTERRES
   131   64  189 1    
   132   65   66 2    
   133   67   68 2    
   134   67   69 am   BACKBONE|DICT|INTERRES
   135   69   70 1    
   136   69  190 1    
   137   70   71 1    
   138   70   72 1    
   139   70  191 1    
   140   71  192 1    
   141   71  193 1    
   142   71  194 1    
   143   72   73 2    
   144   72   74 am   BACKBONE|DICT|INTERRES
   145   74   75 1    
   146   74  195 1    
   147   75   76 1    
   148   75   77 1    
   149   75  196 1    
   150   76  197 1    
   151   76  198 1    
   152   76  199 1    
   153   77   78 2    
   154   77   79 am   BACKBONE|DICT|INTERRES
   155   79   80 1    
   156   79  200 1    
   157   80   81 1    
   158   80   82 1    
   159   80  201 1    
   160   81  202 1    
   161   81  203 1    
   162   81  204 1    
   163   82   83 2    
   164   82   84 am   BACKBONE|DICT|INTERRES
   165   84   85 1    
   166   84  205 1    
   167   85   86 1    
   168   85   87 1    
   169   85  206 1    
   170   86  207 1    
   171   86  208 1    
   172   86  209 1    
   173   87   88 2    
   174   87   89 am   BACKBONE|DICT|INTERRES
   175   89   90 1    
   176   89  210 1    
   177   90   91 1    
   178   90   92 1    
   179   90  211 1    
   180   91  212 1    
   181   91  213 1    
   182   91  214 1    
   183   92   93 2    
   184   92   94 am   BACKBONE|DICT|INTERRES
   185   94   95 1    
   186   94  215 1    
   187   95   96 1    
   188   95   97 1    
   189   95  216 1    
   190   96  217 1    
   191   96  218 1    
   192   96  219 1    
   193   97   98 2    
   194   97   99 am   BACKBONE|DICT|INTERRES
   195   99  100 1    
   196   99  220 1    
   197  100  101 1    
   198  100  102 1    
   199  100  221 1    
   200  101  222 1    
   201  101  223 1    
   202  101  224 1    
   203  102  103 2    
   204  102  104 am   BACKBONE|DICT|INTERRES
   205  104  105 1    
   206  104  225 1    
   207  105  106 1    
   208  105  107 1    
   209  105  226 1    
   210  106  227 1    
   211  106  228 1    
   212  106  229 1    
   213  107  108 2    
   214  107  109 am   BACKBONE|DICT|INTERRES
   215  109  110 1    
   216  109  230 1    
   217  110  111 1    
   218  110  112 1    
   219  110  231 1    
   220  111  232 1    
   221  111  233 1    
   222  111  234 1    
   223  112  113 2    
   224  112  114 am   BACKBONE|DICT|INTERRES
   225  114  115 1    
   226  114  235 1    
   227  115  116 1    
   228  115  117 1    
   229  115  236 1    
   230  116  237 1    
   231  116  238 1    
   232  116  239 1    
   233  117  118 2    
   234  117  119 am   BACKBONE|DICT|INTERRES
   235  119  120 1    
   236  119  240 1    
   237  120  121 1    
   238  120  124 1    
   239  120  241 1    
   240  121  122 am   BACKBONE|DICT|INTERRES
   241  121  123 2    
   242  122  242 1    
   243  122  243 1    
   244  124  125 1    
   245  124  244 1    
   246  124  245 1    
   247  125  126 1    
   248  126  246 1    
   249  126  247 1    
@<TRIPOS>SUBSTRUCTURE
     1 UNK         1 GROUP             0       ****    0 ROOT    
