@<TRIPOS>MOLECULE
3R540
247   249    1
SMALL
USER_CHARGES


@<TRIPOS>ATOM
      1 CA         -5.7837  -16.4425  -48.2248 C.3       0 UNK        -0.1800 
      2 C          -4.3094  -16.1651  -47.9737 C.2       0 UNK         0.5000 
      3 O          -3.5691  -17.0815  -47.6310 O.2       0 UNK        -0.5000 
      4 N          -3.9079  -14.8966  -48.1273 N.am      1 UNK        -0.5000 
      5 CA         -2.5469  -14.3467  -48.0297 C.3       1 UNK         0.1400 
      6 C6         -1.6004  -14.7647  -49.1917 C.3       23 UNK        -0.0398 
      7 S7         -0.7060  -16.3541  -49.0291 S.3       23 UNK        -0.2404 
      8 C8          0.9993  -15.7824  -48.7377 C.3       23 UNK        -0.0205 
      9 C9          2.0114  -16.7810  -49.2714 C.ar      23 UNK        -0.0193 
     10 C10         2.2792  -16.8263  -50.6415 C.ar      23 UNK        -0.1150 
     11 C11         3.2018  -17.7390  -51.1560 C.ar      23 UNK        -0.0193 
     12 C12         3.8859  -18.5907  -50.2820 C.ar      23 UNK        -0.1150 
     13 C13         3.6302  -18.5535  -48.9071 C.ar      23 UNK        -0.0193 
     14 C14         2.6869  -17.6477  -48.4084 C.ar      23 UNK        -0.1150 
     15 C15         4.3729  -19.4823  -47.9516 C.3       23 UNK        -0.0205 
     16 S16         4.0812  -21.2578  -48.2606 S.3       23 UNK        -0.2404 
     17 C17         2.2821  -21.2933  -48.5253 C.3       23 UNK        -0.0398 
     18 CA          1.6210  -22.6447  -48.1645 C.3       11 UNK         0.1400 
     19 N           1.5806  -22.8809  -46.7170 N.am      11 UNK        -0.5000 
     20 C           1.2405  -24.0468  -46.1479 C.2       10 UNK         0.5000 
     21 O           0.8145  -25.0181  -46.7730 O.2       10 UNK        -0.5000 
     22 CA          1.4237  -24.1531  -44.6253 C.3       10 UNK         0.1400 
     23 CB          2.9141  -24.2519  -44.2620 C.3       10 UNK        -0.1800 
     24 N           0.8365  -23.0082  -43.9378 N.am      10 UNK        -0.5000 
     25 C          -0.4279  -22.9546  -43.4986 C.2       9 UNK         0.5000 
     26 O          -1.2317  -23.8802  -43.6042 O.2       9 UNK        -0.5000 
     27 CA         -0.8881  -21.6166  -42.8827 C.3       9 UNK         0.1400 
     28 CB         -0.4649  -21.5266  -41.4095 C.3       9 UNK        -0.1800 
     29 N          -0.3777  -20.4492  -43.6021 N.am      9 UNK        -0.5000 
     30 C          -0.5470  -20.2284  -44.9147 C.2       8 UNK         0.5000 
     31 O          -1.2404  -20.9432  -45.6362 O.2       8 UNK        -0.5000 
     32 CA          0.2336  -19.0602  -45.5464 C.3       8 UNK         0.1400 
     33 CB         -0.6651  -17.8235  -45.6003 C.3       8 UNK        -0.1800 
     34 N           1.4727  -18.7260  -44.8380 N.am      8 UNK        -0.5000 
     35 C           2.4649  -19.5824  -44.5416 C.2       7 UNK         0.5000 
     36 O           2.5081  -20.7372  -44.9690 O.2       7 UNK        -0.5000 
     37 CA          3.5556  -19.1074  -43.5569 C.3       7 UNK         0.1400 
     38 CB          4.9043  -18.9293  -44.2689 C.3       7 UNK        -0.1800 
     39 N           3.2306  -17.8668  -42.8506 N.am      7 UNK        -0.5000 
     40 C           2.2031  -17.6752  -42.0096 C.2       6 UNK         0.5000 
     41 O           1.4235  -18.5663  -41.6701 O.2       6 UNK        -0.5000 
     42 CA          1.9774  -16.2285  -41.5229 C.3       6 UNK         0.1400 
     43 CB          2.5634  -16.0364  -40.1164 C.3       6 UNK        -0.1800 
     44 N           2.5462  -15.2172  -42.4244 N.am      6 UNK        -0.5000 
     45 C           2.1236  -14.9920  -43.6760 C.2       5 UNK         0.5000 
     46 O           1.1983  -15.6077  -44.2042 O.2       5 UNK        -0.5000 
     47 CA          2.9158  -13.9734  -44.5001 C.3       5 UNK         0.1400 
     48 CB          3.8531  -14.6935  -45.4877 C.3       5 UNK        -0.1800 
     49 N           1.9897  -13.1111  -45.2251 N.am      5 UNK        -0.5000 
     50 C           2.2827  -11.8755  -45.6501 C.2       4 UNK         0.5000 
     51 O           3.3842  -11.3441  -45.5015 O.2       4 UNK        -0.5000 
     52 CA          1.1563  -11.0855  -46.3341 C.3       4 UNK         0.1400 
     53 CB          1.0202  -11.4903  -47.8112 C.3       4 UNK        -0.1800 
     54 N          -0.1199  -11.2741  -45.6453 N.am      4 UNK        -0.5000 
     55 C          -0.5182  -10.5553  -44.5849 C.2       3 UNK         0.5000 
     56 O           0.1420   -9.6349  -44.1010 O.2       3 UNK        -0.5000 
     57 CA         -1.8854  -10.9013  -43.9599 C.3       3 UNK         0.1400 
     58 CB         -2.9672   -9.9385  -44.4729 C.3       3 UNK        -0.1800 
     59 N          -2.3092  -12.2738  -44.2325 N.am      3 UNK        -0.5000 
     60 C          -1.8039  -13.3601  -43.6334 C.2       2 UNK         0.5000 
     61 O          -0.9919  -13.3138  -42.7092 O.2       2 UNK        -0.5000 
     62 CA         -2.2628  -14.7274  -44.1792 C.3       2 UNK         0.1400 
     63 CB         -3.3950  -15.3077  -43.3201 C.3       2 UNK        -0.1800 
     64 N          -2.6900  -14.7036  -45.5840 N.am      2 UNK        -0.5000 
     65 C          -1.9061  -14.3780  -46.6219 C.2       1 UNK         0.5000 
     66 O          -0.7372  -14.0164  -46.4828 O.2       1 UNK        -0.5000 
     67 C           0.2390  -22.7064  -48.8397 C.2       11 UNK         0.5000 
     68 O           0.1415  -23.2334  -49.9487 O.2       11 UNK        -0.5000 
     69 N          -0.7728  -22.1092  -48.2014 N.am      12 UNK        -0.5000 
     70 CA         -2.0592  -21.8038  -48.8161 C.3       12 UNK         0.1400 
     71 CB         -2.3018  -20.2861  -48.7312 C.3       12 UNK        -0.1800 
     72 C          -3.1972  -22.5858  -48.1556 C.2       12 UNK         0.5000 
     73 O          -3.9538  -23.2546  -48.8612 O.2       12 UNK        -0.5000 
     74 N          -3.3107  -22.4831  -46.8246 N.am      13 UNK        -0.5000 
     75 CA         -4.4222  -23.0387  -46.0531 C.3       13 UNK         0.1400 
     76 CB         -4.4443  -22.4292  -44.6444 C.3       13 UNK        -0.1800 
     77 C          -4.3958  -24.5743  -46.0068 C.2       13 UNK         0.5000 
     78 O          -5.3593  -25.2050  -46.4423 O.2       13 UNK        -0.5000 
     79 N          -3.2843  -25.1525  -45.5262 N.am      14 UNK        -0.5000 
     80 CA         -3.0837  -26.6047  -45.4471 C.3       14 UNK         0.1400 
     81 CB         -1.8165  -26.9069  -44.6342 C.3       14 UNK        -0.1800 
     82 C          -3.0108  -27.2896  -46.8254 C.2       14 UNK         0.5000 
     83 O          -3.3915  -28.4543  -46.9479 O.2       14 UNK        -0.5000 
     84 N          -2.5424  -26.5486  -47.8374 N.am      15 UNK        -0.5000 
     85 CA         -2.4784  -26.9859  -49.2311 C.3       15 UNK         0.1400 
     86 CB         -1.4772  -26.0906  -49.9741 C.3       15 UNK        -0.1800 
     87 C          -3.8433  -26.9468  -49.9466 C.2       15 UNK         0.5000 
     88 O          -3.9830  -27.5799  -50.9936 O.2       15 UNK        -0.5000 
     89 N          -4.8017  -26.1823  -49.3971 N.am      16 UNK        -0.5000 
     90 CA         -6.1023  -25.8286  -49.9795 C.3       16 UNK         0.1400 
     91 CB         -7.0199  -27.0647  -50.0765 C.3       16 UNK        -0.1800 
     92 C          -5.9560  -25.0675  -51.3172 C.2       16 UNK         0.5000 
     93 O          -6.7391  -25.2754  -52.2457 O.2       16 UNK        -0.5000 
     94 N          -4.9330  -24.2071  -51.3845 N.am      17 UNK        -0.5000 
     95 CA         -4.5142  -23.4575  -52.5698 C.3       17 UNK         0.1400 
     96 CB         -3.0157  -23.7193  -52.7943 C.3       17 UNK        -0.1800 
     97 C          -4.7915  -21.9484  -52.4355 C.2       17 UNK         0.5000 
     98 O          -4.4936  -21.1967  -53.3636 O.2       17 UNK        -0.5000 
     99 N          -5.3676  -21.5299  -51.2984 N.am      18 UNK        -0.5000 
    100 CA        -5.5816  -20.1434  -50.8708 C.3       18 UNK         0.1400 
    101 CB        -6.3124  -20.1580  -49.5196 C.3       18 UNK        -0.1800 
    102 C         -6.2967  -19.2159  -51.8705 C.2       18 UNK         0.5000 
    103 O         -6.0519  -18.0096  -51.8430 O.2       18 UNK        -0.5000 
    104 N         -7.1109  -19.7835  -52.7700 N.am      19 UNK        -0.5000 
    105 CA        -7.7462  -19.0809  -53.8885 C.3       19 UNK         0.1400 
    106 CB        -8.6943  -20.0509  -54.6095 C.3       19 UNK        -0.1800 
    107 C         -6.7455  -18.4607  -54.8897 C.2       19 UNK         0.5000 
    108 O         -7.0856  -17.4763  -55.5467 O.2       19 UNK        -0.5000 
    109 N         -5.5326  -19.0260  -54.9771 N.am      20 UNK        -0.5000 
    110 CA        -4.4328  -18.5262  -55.8039 C.3       20 UNK         0.1400 
    111 CB        -3.5773  -19.7216  -56.2568 C.3       20 UNK        -0.1800 
    112 C         -3.5560  -17.4843  -55.0776 C.2       20 UNK         0.5000 
    113 O         -2.6553  -16.9293  -55.7082 O.2       20 UNK        -0.5000 
    114 N         -3.8071  -17.2502  -53.7780 N.am      21 UNK        -0.5000 
    115 CA        -3.0481  -16.3773  -52.8707 C.3       21 UNK         0.1400 
    116 CB        -3.2103  -14.8956  -53.2683 C.3       21 UNK        -0.1800 
    117 C         -1.5718  -16.8073  -52.7086 C.2       21 UNK         0.5000 
    118 O         -0.6826  -15.9623  -52.5984 O.2       21 UNK        -0.5000 
    119 N         -1.3528  -18.1246  -52.6998 N.am      22 UNK        -0.5000 
    120 CA        -0.0832  -18.8263  -52.4944 C.3       22 UNK         0.1400 
    121 C         -0.3859  -20.3141  -52.1530 C.2       22 UNK         0.5000 
    122 N          0.6240  -21.1301  -51.9024 N.am      22 UNK        -0.7600 
    123 O         -1.5380  -20.7344  -52.0798 O.2       22 UNK        -0.5000 
    124 C124        0.9076  -18.6071  -53.6781 C.3       23 UNK        -0.0398 
    125 S125        2.6171  -19.2169  -53.4268 S.3       23 UNK        -0.2404 
    126 C126        3.4622  -17.8015  -52.6532 C.3       23 UNK        -0.0205 
    127 H127       -5.9176  -16.8467  -49.2285 H         1 UNK         0.0600 
    128 H128       -6.3851  -15.5361  -48.1391 H         1 UNK         0.0600 
    129 H129       -6.1625  -17.1691  -47.5048 H         1 UNK         0.0600 
    130 H130       -4.6080  -14.2144  -48.3836 H         1 UNK         0.3000 
    131 H131       -2.7191  -13.2805  -48.1853 H         1 UNK         0.0600 
    132 H132       -0.8751  -13.9674  -49.3541 H         1 UNK         0.0800 
    133 H133       -2.1686  -14.8084  -50.1207 H         1 UNK         0.0800 
    134 H134        1.1457  -15.6109  -47.6702 H         1 UNK         0.0800 
    135 H135        1.1730  -14.8244  -49.2280 H         1 UNK         0.0800 
    136 H136        1.7483  -16.1625  -51.3102 H         1 UNK         0.1150 
    137 H137        4.6073  -19.2944  -50.6733 H         1 UNK         0.1150 
    138 H138        2.4798  -17.6107  -47.3482 H         1 UNK         0.1150 
    139 H139        5.4429  -19.2811  -48.0143 H         1 UNK         0.0800 
    140 H140        4.0813  -19.2687  -46.9264 H         1 UNK         0.0800 
    141 H141        2.1301  -21.0474  -49.5775 H         1 UNK         0.0800 
    142 H142        1.8179  -20.4873  -47.9595 H         1 UNK         0.0800 
    143 H143        2.2203  -23.4435  -48.6070 H         1 UNK         0.0600 
    144 H144        1.9433  -22.1357  -46.1282 H         1 UNK         0.3000 
    145 H145        0.9395  -25.0721  -44.2884 H         1 UNK         0.0600 
    146 H146        3.0477  -24.3901  -43.1891 H         1 UNK         0.0600 
    147 H147        3.4652  -23.3571  -44.5544 H         1 UNK         0.0600 
    148 H148        3.3810  -25.1025  -44.7601 H         1 UNK         0.0600 
    149 H149        1.4046  -22.1713  -43.8946 H         1 UNK         0.3000 
    150 H150       -1.9768  -21.5782  -42.9254 H         1 UNK         0.0600 
    151 H151       -0.8460  -22.3755  -40.8403 H         1 UNK         0.0600 
    152 H152       -0.8531  -20.6211  -40.9428 H         1 UNK         0.0600 
    153 H153        0.6206  -21.5175  -41.3023 H         1 UNK         0.0600 
    154 H154        0.2031  -19.8102  -43.0723 H         1 UNK         0.3000 
    155 H155        0.4913  -19.3382  -46.5677 H         1 UNK         0.0600 
    156 H156       -1.5638  -18.0177  -46.1852 H         1 UNK         0.0600 
    157 H157       -0.1562  -16.9783  -46.0620 H         1 UNK         0.0600 
    158 H158       -0.9817  -17.5273  -44.6012 H         1 UNK         0.0600 
    159 H159        1.5165  -17.7881  -44.4577 H         1 UNK         0.3000 
    160 H160        3.6671  -19.8943  -42.8085 H         1 UNK         0.0600 
    161 H161        4.8735  -18.1136  -44.9921 H         1 UNK         0.0600 
    162 H162        5.1910  -19.8373  -44.8013 H         1 UNK         0.0600 
    163 H163        5.6992  -18.7122  -43.5552 H         1 UNK         0.0600 
    164 H164        3.8117  -17.0700  -43.0622 H         1 UNK         0.3000 
    165 H165        0.8986  -16.0654  -41.4720 H         1 UNK         0.0600 
    166 H166        2.3421  -15.0417  -39.7293 H         1 UNK         0.0600 
    167 H167        2.1405  -16.7575  -39.4156 H         1 UNK         0.0600 
    168 H168        3.6461  -16.1678  -40.1093 H         1 UNK         0.0600 
    169 H169        3.3184  -14.6772  -42.0610 H         1 UNK         0.3000 
    170 H170        3.5129  -13.3648  -43.8176 H         1 UNK         0.0600 
    171 H171        3.2937  -15.2982  -46.2026 H         1 UNK         0.0600 
    172 H172        4.4565  -13.9832  -46.0529 H         1 UNK         0.0600 
    173 H173        4.5416  -15.3568  -44.9633 H         1 UNK         0.0600 
    174 H174        1.0659  -13.5005  -45.3892 H         1 UNK         0.3000 
    175 H175        1.4230  -10.0267  -46.3078 H         1 UNK         0.0600 
    176 H176        0.8323  -12.5569  -47.9289 H         1 UNK         0.0600 
    177 H177        0.2077  -10.9498  -48.2965 H         1 UNK         0.0600 
    178 H178        1.9353  -11.2621  -48.3587 H         1 UNK         0.0600 
    179 H179       -0.6692  -12.0731  -45.9380 H         1 UNK         0.3000 
    180 H180       -1.7978  -10.7706  -42.8792 H         1 UNK         0.0600 
    181 H181       -3.9266  -10.1304  -43.9921 H         1 UNK         0.0600 
    182 H182       -3.1070  -10.0267  -45.5510 H         1 UNK         0.0600 
    183 H183       -2.7006   -8.9023  -44.2603 H         1 UNK         0.0600 
    184 H184       -2.9858  -12.4047  -44.9694 H         1 UNK         0.3000 
    185 H185       -1.4044  -15.3925  -44.1042 H         1 UNK         0.0600 
    186 H186       -3.1001  -15.3644  -42.2715 H         1 UNK         0.0600 
    187 H187       -4.2961  -14.6962  -43.3762 H         1 UNK         0.0600 
    188 H188       -3.6521  -16.3181  -43.6390 H         1 UNK         0.0600 
    189 H189       -3.6383  -14.9890  -45.7781 H         1 UNK         0.3000 
    190 H190       -0.6393  -21.7568  -47.2591 H         1 UNK         0.3000 
    191 H191       -2.0623  -22.0788  -49.8719 H         1 UNK         0.0600 
    192 H192       -3.3098  -20.0278  -49.0392 H         1 UNK         0.0600 
    193 H193       -1.6126  -19.7396  -49.3742 H         1 UNK         0.0600 
    194 H194       -2.1836  -19.8968  -47.7226 H         1 UNK         0.0600 
    195 H195       -2.6309  -21.9199  -46.3183 H         1 UNK         0.3000 
    196 H196       -5.3475  -22.7404  -46.5512 H         1 UNK         0.0600 
    197 H197       -4.4598  -21.3398  -44.6834 H         1 UNK         0.0600 
    198 H198       -3.5779  -22.7324  -44.0610 H         1 UNK         0.0600 
    199 H199       -5.3318  -22.7497  -44.0977 H         1 UNK         0.0600 
    200 H200       -2.5465  -24.5722  -45.1424 H         1 UNK         0.3000 
    201 H201       -3.9365  -27.0318  -44.9154 H         1 UNK         0.0600 
    202 H202       -1.8970  -26.5192  -43.6188 H         1 UNK         0.0600 
    203 H203       -0.9319  -26.4668  -45.0948 H         1 UNK         0.0600 
    204 H204       -1.6467  -27.9815  -44.5569 H         1 UNK         0.0600 
    205 H205       -2.2338  -25.6082  -47.6388 H         1 UNK         0.3000 
    206 H206       -2.1116  -28.0140  -49.2618 H         1 UNK         0.0600 
    207 H207       -1.8196  -25.0558  -50.0072 H         1 UNK         0.0600 
    208 H208       -0.4974  -26.1051  -49.4958 H         1 UNK         0.0600 
    209 H209       -1.3421  -26.4221  -51.0043 H         1 UNK         0.0600 
    210 H210       -4.5858  -25.7101  -48.5280 H         1 UNK         0.3000 
    211 H211       -6.5646  -25.1291  -49.2815 H         1 UNK         0.0600 
    212 H212       -6.6551  -27.7865  -50.8076 H         1 UNK         0.0600 
    213 H213       -8.0288  -26.7788  -50.3759 H         1 UNK         0.0600 
    214 H214       -7.0989  -27.5716  -49.1147 H         1 UNK         0.0600 
    215 H215       -4.3860  -24.0548  -50.5406 H         1 UNK         0.3000 
    216 H216       -5.0561  -23.8036  -53.4519 H         1 UNK         0.0600 
    217 H217       -2.6497  -23.1909  -53.6756 H         1 UNK         0.0600 
    218 H218       -2.8201  -24.7809  -52.9462 H         1 UNK         0.0600 
    219 H219       -2.4180  -23.3886  -51.9442 H         1 UNK         0.0600 
    220 H220       -5.5764  -22.2382  -50.6097 H         1 UNK         0.3000 
    221 H221       -4.5943  -19.7044  -50.7342 H         1 UNK         0.0600 
    222 H222       -6.4845  -19.1475  -49.1512 H         1 UNK         0.0600 
    223 H223       -5.7332  -20.6834  -48.7600 H         1 UNK         0.0600 
    224 H224       -7.2842  -20.6465  -49.5970 H         1 UNK         0.0600 
    225 H225       -7.2376  -20.7840  -52.7317 H         1 UNK         0.3000 
    226 H226       -8.3405  -18.2645  -53.4734 H         1 UNK         0.0600 
    227 H227       -9.4598  -20.4316  -53.9330 H         1 UNK         0.0600 
    228 H228       -9.2087  -19.5549  -55.4337 H         1 UNK         0.0600 
    229 H229       -8.1562  -20.9043  -55.0242 H         1 UNK         0.0600 
    230 H230       -5.3157  -19.8305  -54.3926 H         1 UNK         0.3000 
    231 H231       -4.8394  -18.0467  -56.6966 H         1 UNK         0.0600 
    232 H232       -2.8014  -19.4055  -56.9550 H         1 UNK         0.0600 
    233 H233       -4.1831  -20.4726  -56.7640 H         1 UNK         0.0600 
    234 H234       -3.0801  -20.2040  -55.4143 H         1 UNK         0.0600 
    235 H235       -4.5936  -17.7282  -53.3539 H         1 UNK         0.3000 
    236 H236       -3.5023  -16.5001  -51.8862 H         1 UNK         0.0600 
    237 H237       -2.7322  -14.6771  -54.2233 H         1 UNK         0.0600 
    238 H238       -4.2625  -14.6231  -53.3490 H         1 UNK         0.0600 
    239 H239       -2.7622  -14.2384  -52.5226 H         1 UNK         0.0600 
    240 H240       -2.1416  -18.7559  -52.7695 H         1 UNK         0.3000 
    241 H241        0.3486  -18.4072  -51.5871 H         1 UNK         0.0600 
    242 H242        0.4236  -22.0731  -51.5911 H         1 UNK         0.3800 
    243 H243        1.5768  -20.8203  -52.0211 H         1 UNK         0.3800 
    244 H244        0.9731  -17.5470  -53.9225 H         1 UNK         0.0800 
    245 H245        0.5110  -19.0852  -54.5749 H         1 UNK         0.0800 
    246 H246        4.5352  -17.9004  -52.8236 H         1 UNK         0.0800 
    247 H247        3.1627  -16.8736  -53.1427 H         1 UNK         0.0800 
@<TRIPOS>BOND
     1    1    2 1    
     2    1  127 1    
     3    1  128 1    
     4    1  129 1    
     5    2    3 2    
     6    2    4 am   BACKBONE|DICT|INTERRES
     7    4    5 1    
     8    4  130 1    
     9    5    6 1    
    10    5   65 1    
    11    5  131 1    
    12    6    7 1    
    13    6  132 1    
    14    6  133 1    
    15    7    8 1    
    16    8    9 1    
    17    8  134 1    
    18    8  135 1    
    19    9   10 ar   
    20    9   14 ar   
    21   10   11 ar   
    22   10  136 1    
    23   11   12 ar   
    24   11  126 1    
    25   12   13 ar   
    26   12  137 1    
    27   13   14 ar   
    28   13   15 1    
    29   14  138 1    
    30   15   16 1    
    31   15  139 1    
    32   15  140 1    
    33   16   17 1    
    34   17   18 1    
    35   17  141 1    
    36   17  142 1    
    37   18   19 1    
    38   18   67 1    
    39   18  143 1    
    40   19   20 am   BACKBONE|DICT|INTERRES
    41   19  144 1    
    42   20   21 2    
    43   20   22 1    
    44   22   23 1    
    45   22   24 1    
    46   22  145 1    
    47   23  146 1    
    48   23  147 1    
    49   23  148 1    
    50   24   25 am   BACKBONE|DICT|INTERRES
    51   24  149 1    
    52   25   26 2    
    53   25   27 1    
    54   27   28 1    
    55   27   29 1    
    56   27  150 1    
    57   28  151 1    
    58   28  152 1    
    59   28  153 1    
    60   29   30 am   BACKBONE|DICT|INTERRES
    61   29  154 1    
    62   30   31 2    
    63   30   32 1    
    64   32   33 1    
    65   32   34 1    
    66   32  155 1    
    67   33  156 1    
    68   33  157 1    
    69   33  158 1    
    70   34   35 am   BACKBONE|DICT|INTERRES
    71   34  159 1    
    72   35   36 2    
    73   35   37 1    
    74   37   38 1    
    75   37   39 1    
    76   37  160 1    
    77   38  161 1    
    78   38  162 1    
    79   38  163 1    
    80   39   40 am   BACKBONE|DICT|INTERRES
    81   39  164 1    
    82   40   41 2    
    83   40   42 1    
    84   42   43 1    
    85   42   44 1    
    86   42  165 1    
    87   43  166 1    
    88   43  167 1    
    89   43  168 1    
    90   44   45 am   BACKBONE|DICT|INTERRES
    91   44  169 1    
    92   45   46 2    
    93   45   47 1    
    94   47   48 1    
    95   47   49 1    
    96   47  170 1    
    97   48  171 1    
    98   48  172 1    
    99   48  173 1    
   100   49   50 am   BACKBONE|DICT|INTERRES
   101   49  174 1    
   102   50   51 2    
   103   50   52 1    
   104   52   53 1    
   105   52   54 1    
   106   52  175 1    
   107   53  176 1    
   108   53  177 1    
   109   53  178 1    
   110   54   55 am   BACKBONE|DICT|INTERRES
   111   54  179 1    
   112   55   56 2    
   113   55   57 1    
   114   57   58 1    
   115   57   59 1    
   116   57  180 1    
   117   58  181 1    
   118   58  182 1    
   119   58  183 1    
   120   59   60 am   BACKBONE|DICT|INTERRES
   121   59  184 1    
   122   60   61 2    
   123   60   62 1    
   124   62   63 1    
   125   62   64 1    
   126   62  185 1    
   127   63  186 1    
   128   63  187 1    
   129   63  188 1    
   130   64   65 am   BACKBONE|DICT|INTERRES
   131   64  189 1    
   132   65   66 2    
   133   67   68 2    
   134   67   69 am   BACKBONE|DICT|INTERRES
   135   69   70 1    
   136   69  190 1    
   137   70   71 1    
   138   70   72 1    
   139   70  191 1    
   140   71  192 1    
   141   71  193 1    
   142   71  194 1    
   143   72   73 2    
   144   72   74 am   BACKBONE|DICT|INTERRES
   145   74   75 1    
   146   74  195 1    
   147   75   76 1    
   148   75   77 1    
   149   75  196 1    
   150   76  197 1    
   151   76  198 1    
   152   76  199 1    
   153   77   78 2    
   154   77   79 am   BACKBONE|DICT|INTERRES
   155   79   80 1    
   156   79  200 1    
   157   80   81 1    
   158   80   82 1    
   159   80  201 1    
   160   81  202 1    
   161   81  203 1    
   162   81  204 1    
   163   82   83 2    
   164   82   84 am   BACKBONE|DICT|INTERRES
   165   84   85 1    
   166   84  205 1    
   167   85   86 1    
   168   85   87 1    
   169   85  206 1    
   170   86  207 1    
   171   86  208 1    
   172   86  209 1    
   173   87   88 2    
   174   87   89 am   BACKBONE|DICT|INTERRES
   175   89   90 1    
   176   89  210 1    
   177   90   91 1    
   178   90   92 1    
   179   90  211 1    
   180   91  212 1    
   181   91  213 1    
   182   91  214 1    
   183   92   93 2    
   184   92   94 am   BACKBONE|DICT|INTERRES
   185   94   95 1    
   186   94  215 1    
   187   95   96 1    
   188   95   97 1    
   189   95  216 1    
   190   96  217 1    
   191   96  218 1    
   192   96  219 1    
   193   97   98 2    
   194   97   99 am   BACKBONE|DICT|INTERRES
   195   99  100 1    
   196   99  220 1    
   197  100  101 1    
   198  100  102 1    
   199  100  221 1    
   200  101  222 1    
   201  101  223 1    
   202  101  224 1    
   203  102  103 2    
   204  102  104 am   BACKBONE|DICT|INTERRES
   205  104  105 1    
   206  104  225 1    
   207  105  106 1    
   208  105  107 1    
   209  105  226 1    
   210  106  227 1    
   211  106  228 1    
   212  106  229 1    
   213  107  108 2    
   214  107  109 am   BACKBONE|DICT|INTERRES
   215  109  110 1    
   216  109  230 1    
   217  110  111 1    
   218  110  112 1    
   219  110  231 1    
   220  111  232 1    
   221  111  233 1    
   222  111  234 1    
   223  112  113 2    
   224  112  114 am   BACKBONE|DICT|INTERRES
   225  114  115 1    
   226  114  235 1    
   227  115  116 1    
   228  115  117 1    
   229  115  236 1    
   230  116  237 1    
   231  116  238 1    
   232  116  239 1    
   233  117  118 2    
   234  117  119 am   BACKBONE|DICT|INTERRES
   235  119  120 1    
   236  119  240 1    
   237  120  121 1    
   238  120  124 1    
   239  120  241 1    
   240  121  122 am   BACKBONE|DICT|INTERRES
   241  121  123 2    
   242  122  242 1    
   243  122  243 1    
   244  124  125 1    
   245  124  244 1    
   246  124  245 1    
   247  125  126 1    
   248  126  246 1    
   249  126  247 1    
@<TRIPOS>SUBSTRUCTURE
     1 UNK         1 GROUP             0       ****    0 ROOT    
