@<TRIPOS>MOLECULE
3R540
247   249    1
SMALL
USER_CHARGES


@<TRIPOS>ATOM
      1 CA          1.6526  -15.3692  -50.1545 C.3       0 UNK        -0.1800 
      2 C           1.1846  -15.0845  -48.7353 C.2       0 UNK         0.5000 
      3 O           2.0065  -14.9852  -47.8259 O.2       0 UNK        -0.5000 
      4 N          -0.1288  -14.9022  -48.5432 N.am      1 UNK        -0.5000 
      5 CA         -0.7597  -14.5572  -47.2585 C.3       1 UNK         0.1400 
      6 C6         -2.2901  -14.8237  -47.2743 C.3       23 UNK        -0.0398 
      7 S7         -2.6856  -16.5220  -46.7362 S.3       23 UNK        -0.2404 
      8 C8         -3.3158  -17.2995  -48.2568 C.3       23 UNK        -0.0205 
      9 C9         -2.2429  -17.5770  -49.3033 C.ar      23 UNK        -0.0193 
     10 C10        -2.5123  -17.3040  -50.6461 C.ar      23 UNK        -0.1150 
     11 C11        -1.5759  -17.6071  -51.6367 C.ar      23 UNK        -0.0193 
     12 C12        -0.3466  -18.1638  -51.2749 C.ar      23 UNK        -0.1150 
     13 C13        -0.0489  -18.4178  -49.9321 C.ar      23 UNK        -0.0193 
     14 C14        -1.0089  -18.1387  -48.9533 C.ar      23 UNK        -0.1150 
     15 C15         1.3303  -18.9373  -49.5469 C.3       23 UNK        -0.0205 
     16 S16         1.3416  -20.7205  -49.1932 S.3       23 UNK        -0.2404 
     17 C17         1.2175  -20.7064  -47.3728 C.3       23 UNK        -0.0398 
     18 CA          0.6953  -22.0344  -46.7800 C.3       11 UNK         0.1400 
     19 N           0.8879  -22.0813  -45.3294 N.am      11 UNK        -0.5000 
     20 C           0.6582  -23.1517  -44.5566 C.2       10 UNK         0.5000 
     21 O           0.2886  -24.2431  -44.9866 O.2       10 UNK        -0.5000 
     22 CA          0.8108  -22.9535  -43.0396 C.3       10 UNK         0.1400 
     23 CB          2.2918  -22.9560  -42.6330 C.3       10 UNK        -0.1800 
     24 N           0.1613  -21.7287  -42.5700 N.am      10 UNK        -0.5000 
     25 C          -1.1562  -21.4931  -42.6647 C.2       9 UNK         0.5000 
     26 O          -1.9644  -22.3021  -43.1198 O.2       9 UNK        -0.5000 
     27 CA         -1.6563  -20.1127  -42.2079 C.3       9 UNK         0.1400 
     28 CB         -1.8014  -20.0708  -40.6796 C.3       9 UNK        -0.1800 
     29 N          -0.8002  -19.0142  -42.6564 N.am      9 UNK        -0.5000 
     30 C          -0.5808  -18.6943  -43.9410 C.2       8 UNK         0.5000 
     31 O          -1.0760  -19.2962  -44.8938 O.2       8 UNK        -0.5000 
     32 CA          0.4116  -17.5483  -44.2058 C.3       8 UNK         0.1400 
     33 CB         -0.1869  -16.1882  -43.8140 C.3       8 UNK        -0.1800 
     34 N           1.6722  -17.7360  -43.4928 N.am      8 UNK        -0.5000 
     35 C           2.4950  -18.7845  -43.6260 C.2       7 UNK         0.5000 
     36 O           2.3133  -19.7110  -44.4159 O.2       7 UNK        -0.5000 
     37 CA          3.7007  -18.8229  -42.6734 C.3       7 UNK         0.1400 
     38 CB          4.8281  -17.9078  -43.1773 C.3       7 UNK        -0.1800 
     39 N           3.3297  -18.4424  -41.3098 N.am      7 UNK        -0.5000 
     40 C           2.5546  -19.1777  -40.5003 C.2       6 UNK         0.5000 
     41 O           2.0783  -20.2689  -40.8119 O.2       6 UNK        -0.5000 
     42 CA          2.2296  -18.5737  -39.1222 C.3       6 UNK         0.1400 
     43 CB          3.4063  -18.7622  -38.1529 C.3       6 UNK        -0.1800 
     44 N           1.8818  -17.1543  -39.1966 N.am      6 UNK        -0.5000 
     45 C           0.7794  -16.6817  -39.7938 C.2       5 UNK         0.5000 
     46 O          -0.0660  -17.3940  -40.3336 O.2       5 UNK        -0.5000 
     47 CA          0.6098  -15.1522  -39.8309 C.3       5 UNK         0.1400 
     48 CB         -0.0157  -14.6493  -38.5211 C.3       5 UNK        -0.1800 
     49 N           1.8399  -14.3998  -40.1014 N.am      5 UNK        -0.5000 
     50 C           2.6506  -14.5862  -41.1517 C.2       4 UNK         0.5000 
     51 O           2.5559  -15.5310  -41.9376 O.2       4 UNK        -0.5000 
     52 CA          3.7704  -13.5464  -41.3492 C.3       4 UNK         0.1400 
     53 CB          5.0498  -14.0062  -40.6338 C.3       4 UNK        -0.1800 
     54 N           4.0745  -13.3219  -42.7656 N.am      4 UNK        -0.5000 
     55 C           3.1928  -12.9144  -43.6904 C.2       3 UNK         0.5000 
     56 O           2.0362  -12.5795  -43.4211 O.2       3 UNK        -0.5000 
     57 CA          3.7010  -12.9011  -45.1506 C.3       3 UNK         0.1400 
     58 CB          4.2280  -14.2889  -45.5619 C.3       3 UNK        -0.1800 
     59 N           2.6677  -12.5001  -46.1084 N.am      3 UNK        -0.5000 
     60 C           2.1529  -11.2666  -46.2336 C.2       2 UNK         0.5000 
     61 O           2.5951  -10.2837  -45.6361 O.2       2 UNK        -0.5000 
     62 CA          0.9488  -11.0851  -47.1872 C.3       2 UNK         0.1400 
     63 CB          1.3783  -10.3458  -48.4644 C.3       2 UNK        -0.1800 
     64 N           0.3146  -12.3481  -47.5707 N.am      2 UNK        -0.5000 
     65 C          -0.4196  -13.1276  -46.7634 C.2       1 UNK         0.5000 
     66 O          -0.7951  -12.7713  -45.6467 O.2       1 UNK        -0.5000 
     67 C          -0.7718  -22.3081  -47.1691 C.2       11 UNK         0.5000 
     68 O          -1.0196  -23.1753  -48.0064 O.2       11 UNK        -0.5000 
     69 N          -1.7111  -21.6131  -46.5111 N.am      12 UNK        -0.5000 
     70 CA         -3.1499  -21.7548  -46.7334 C.3       12 UNK         0.1400 
     71 CB         -3.8971  -20.6942  -45.9108 C.3       12 UNK        -0.1800 
     72 C          -3.6920  -23.1624  -46.4161 C.2       12 UNK         0.5000 
     73 O          -4.6309  -23.6110  -47.0735 O.2       12 UNK        -0.5000 
     74 N          -3.1005  -23.8297  -45.4166 N.am      13 UNK        -0.5000 
     75 CA         -3.4227  -25.2026  -45.0398 C.3       13 UNK         0.1400 
     76 CB         -2.9558  -25.4585  -43.5981 C.3       13 UNK        -0.1800 
     77 C          -2.8078  -26.2346  -46.0023 C.2       13 UNK         0.5000 
     78 O          -3.5004  -27.1680  -46.4104 O.2       13 UNK        -0.5000 
     79 N          -1.5162  -26.0733  -46.3202 N.am      14 UNK        -0.5000 
     80 CA         -0.7375  -27.0382  -47.0974 C.3       14 UNK         0.1400 
     81 CB          0.7571  -26.8306  -46.8076 C.3       14 UNK        -0.1800 
     82 C          -0.9910  -26.9768  -48.6134 C.2       14 UNK         0.5000 
     83 O          -0.8760  -28.0085  -49.2776 O.2       14 UNK        -0.5000 
     84 N          -1.2902  -25.7851  -49.1405 N.am      15 UNK        -0.5000 
     85 CA         -1.4010  -25.5092  -50.5694 C.3       15 UNK         0.1400 
     86 CB         -0.0648  -24.9133  -51.0637 C.3       15 UNK        -0.1800 
     87 C          -2.6277  -24.6233  -50.8574 C.2       15 UNK         0.5000 
     88 O          -3.6631  -24.7737  -50.2056 O.2       15 UNK        -0.5000 
     89 N          -2.5084  -23.7577  -51.8707 N.am      16 UNK        -0.5000 
     90 CA         -3.5265  -22.8081  -52.3150 C.3       16 UNK         0.1400 
     91 CB         -3.0994  -22.2798  -53.6899 C.3       16 UNK        -0.1800 
     92 C          -3.7461  -21.6602  -51.3094 C.2       16 UNK         0.5000 
     93 O          -2.8811  -21.3945  -50.4731 O.2       16 UNK        -0.5000 
     94 N          -4.9054  -21.0012  -51.4115 N.am      17 UNK        -0.5000 
     95 CA         -5.3515  -19.9740  -50.4746 C.3       17 UNK         0.1400 
     96 CB         -6.0544  -20.6368  -49.2729 C.3       17 UNK        -0.1800 
     97 C          -6.2545  -18.9808  -51.2153 C.2       17 UNK         0.5000 
     98 O          -7.4692  -18.9789  -51.0100 O.2       17 UNK        -0.5000 
     99 N          -5.6505  -18.2003  -52.1217 N.am      18 UNK        -0.5000 
    100 CA        -6.2509  -17.2074  -53.0299 C.3       18 UNK         0.1400 
    101 CB        -7.0438  -16.1280  -52.2689 C.3       18 UNK        -0.1800 
    102 C         -7.0824  -17.8353  -54.1673 C.2       18 UNK         0.5000 
    103 O         -6.9676  -17.4012  -55.3137 O.2       18 UNK        -0.5000 
    104 N         -7.8480  -18.8814  -53.8467 N.am      19 UNK        -0.5000 
    105 CA        -8.3552  -19.8727  -54.7889 C.3       19 UNK         0.1400 
    106 CB        -9.5684  -20.5685  -54.1516 C.3       19 UNK        -0.1800 
    107 C         -7.2527  -20.8993  -55.1199 C.2       19 UNK         0.5000 
    108 O         -6.2587  -20.9919  -54.3932 O.2       19 UNK        -0.5000 
    109 N         -7.4760  -21.6749  -56.1884 N.am      20 UNK        -0.5000 
    110 CA        -6.5894  -22.7087  -56.7322 C.3       20 UNK         0.1400 
    111 CB        -6.3139  -23.8268  -55.6981 C.3       20 UNK        -0.1800 
    112 C         -5.3267  -22.0999  -57.3791 C.2       20 UNK         0.5000 
    113 O         -5.4520  -21.1496  -58.1558 O.2       20 UNK        -0.5000 
    114 N         -4.1451  -22.6634  -57.0847 N.am      21 UNK        -0.5000 
    115 CA        -2.8554  -22.3684  -57.7262 C.3       21 UNK         0.1400 
    116 CB        -1.7917  -23.3450  -57.1985 C.3       21 UNK        -0.1800 
    117 C         -2.3596  -20.9111  -57.6117 C.2       21 UNK         0.5000 
    118 O         -1.4580  -20.5281  -58.3590 O.2       21 UNK        -0.5000 
    119 N         -2.9606  -20.1190  -56.7155 N.am      22 UNK        -0.5000 
    120 CA        -2.7931  -18.6581  -56.6513 C.3       22 UNK         0.1400 
    121 C         -3.3529  -17.9012  -57.8947 C.2       22 UNK         0.5000 
    122 N         -4.2554  -18.4806  -58.6800 N.am      22 UNK        -0.7600 
    123 O         -2.9579  -16.7669  -58.1499 O.2       22 UNK        -0.5000 
    124 C124       -3.4199  -18.0649  -55.3677 C.3       23 UNK        -0.0398 
    125 S125       -2.7560  -18.7683  -53.8234 S.3       23 UNK        -0.2404 
    126 C126       -1.9042  -17.3386  -53.0952 C.3       23 UNK        -0.0205 
    127 H127        2.2387  -14.5300  -50.5284 H         1 UNK         0.0600 
    128 H128        0.8144  -15.5276  -50.8330 H         1 UNK         0.0600 
    129 H129        2.2834  -16.2569  -50.1742 H         1 UNK         0.0600 
    130 H130       -0.7590  -15.0131  -49.3247 H         1 UNK         0.3000 
    131 H131       -0.3096  -15.2105  -46.5093 H         1 UNK         0.0600 
    132 H132       -2.8231  -14.1651  -46.5861 H         1 UNK         0.0800 
    133 H133       -2.7176  -14.6223  -48.2575 H         1 UNK         0.0800 
    134 H134       -4.1109  -16.6746  -48.6665 H         1 UNK         0.0800 
    135 H135       -3.7814  -18.2485  -47.9920 H         1 UNK         0.0800 
    136 H136       -3.4622  -16.8712  -50.9254 H         1 UNK         0.1150 
    137 H137        0.3833  -18.3879  -52.0398 H         1 UNK         0.1150 
    138 H138       -0.7938  -18.3418  -47.9149 H         1 UNK         0.1150 
    139 H139        2.0361  -18.7509  -50.3577 H         1 UNK         0.0800 
    140 H140        1.7103  -18.3789  -48.6899 H         1 UNK         0.0800 
    141 H141        0.5995  -19.8722  -47.0412 H         1 UNK         0.0800 
    142 H142        2.2191  -20.5045  -46.9911 H         1 UNK         0.0800 
    143 H143        1.2972  -22.8446  -47.1977 H         1 UNK         0.0600 
    144 H144        1.2109  -21.2227  -44.8912 H         1 UNK         0.3000 
    145 H145        0.3241  -23.7972  -42.5460 H         1 UNK         0.0600 
    146 H146        2.4016  -22.9241  -41.5490 H         1 UNK         0.0600 
    147 H147        2.7918  -23.8599  -42.9830 H         1 UNK         0.0600 
    148 H148        2.8265  -22.1018  -43.0487 H         1 UNK         0.0600 
    149 H149        0.7617  -21.0296  -42.1445 H         1 UNK         0.3000 
    150 H150       -2.6447  -19.9592  -42.6458 H         1 UNK         0.0600 
    151 H151       -2.4371  -20.8826  -40.3238 H         1 UNK         0.0600 
    152 H152       -2.2562  -19.1355  -40.3532 H         1 UNK         0.0600 
    153 H153       -0.8355  -20.1653  -40.1815 H         1 UNK         0.0600 
    154 H154       -0.3638  -18.4583  -41.9260 H         1 UNK         0.3000 
    155 H155        0.6290  -17.5331  -45.2759 H         1 UNK         0.0600 
    156 H156       -0.3614  -16.1194  -42.7412 H         1 UNK         0.0600 
    157 H157       -1.1436  -16.0185  -44.3061 H         1 UNK         0.0600 
    158 H158        0.4767  -15.3692  -44.0940 H         1 UNK         0.0600 
    159 H159        1.9326  -17.0040  -42.8345 H         1 UNK         0.3000 
    160 H160        4.0779  -19.8474  -42.6510 H         1 UNK         0.0600 
    161 H161        5.7056  -17.9727  -42.5339 H         1 UNK         0.0600 
    162 H162        4.5183  -16.8630  -43.2168 H         1 UNK         0.0600 
    163 H163        5.1402  -18.1936  -44.1826 H         1 UNK         0.0600 
    164 H164        3.6069  -17.5200  -41.0071 H         1 UNK         0.3000 
    165 H165        1.3688  -19.1121  -38.7197 H         1 UNK         0.0600 
    166 H166        3.1516  -18.4137  -37.1519 H         1 UNK         0.0600 
    167 H167        3.6778  -19.8155  -38.0699 H         1 UNK         0.0600 
    168 H168        4.2932  -18.2193  -38.4821 H         1 UNK         0.0600 
    169 H169        2.5304  -16.4971  -38.7893 H         1 UNK         0.3000 
    170 H170       -0.0851  -14.9254  -40.6415 H         1 UNK         0.0600 
    171 H171       -0.9438  -15.1793  -38.3021 H         1 UNK         0.0600 
    172 H172        0.6539  -14.7954  -37.6726 H         1 UNK         0.0600 
    173 H173       -0.2570  -13.5878  -38.5803 H         1 UNK         0.0600 
    174 H174        2.0133  -13.6106  -39.4959 H         1 UNK         0.3000 
    175 H175        3.4468  -12.5951  -40.9223 H         1 UNK         0.0600 
    176 H176        5.4222  -14.9471  -41.0417 H         1 UNK         0.0600 
    177 H177        5.8425  -13.2633  -40.7249 H         1 UNK         0.0600 
    178 H178        4.8708  -14.1584  -39.5686 H         1 UNK         0.0600 
    179 H179        4.9973  -13.5960  -43.0671 H         1 UNK         0.3000 
    180 H180        4.5211  -12.1832  -45.2130 H         1 UNK         0.0600 
    181 H181        3.4661  -15.0595  -45.4335 H         1 UNK         0.0600 
    182 H182        5.0944  -14.5836  -44.9694 H         1 UNK         0.0600 
    183 H183        4.5396  -14.2996  -46.6067 H         1 UNK         0.0600 
    184 H184        2.2556  -13.2531  -46.6471 H         1 UNK         0.3000 
    185 H185        0.2095  -10.4723  -46.6674 H         1 UNK         0.0600 
    186 H186        1.8241   -9.3792  -48.2260 H         1 UNK         0.0600 
    187 H187        2.1155  -10.9165  -49.0305 H         1 UNK         0.0600 
    188 H188        0.5257  -10.1561  -49.1167 H         1 UNK         0.0600 
    189 H189        0.5711  -12.7214  -48.4726 H         1 UNK         0.3000 
    190 H190       -1.4261  -20.9046  -45.8390 H         1 UNK         0.3000 
    191 H191       -3.3275  -21.5602  -47.7917 H         1 UNK         0.0600 
    192 H192       -3.7587  -20.8487  -44.8402 H         1 UNK         0.0600 
    193 H193       -4.9681  -20.7247  -46.1136 H         1 UNK         0.0600 
    194 H194       -3.5475  -19.6899  -46.1472 H         1 UNK         0.0600 
    195 H195       -2.3839  -23.3608  -44.8732 H         1 UNK         0.3000 
    196 H196       -4.5075  -25.3258  -45.0649 H         1 UNK         0.0600 
    197 H197       -3.1852  -26.4785  -43.2873 H         1 UNK         0.0600 
    198 H198       -3.4529  -24.7855  -42.8993 H         1 UNK         0.0600 
    199 H199       -1.8801  -25.3146  -43.4896 H         1 UNK         0.0600 
    200 H200       -0.9998  -25.2912  -45.9253 H         1 UNK         0.3000 
    201 H201       -1.0033  -28.0429  -46.7614 H         1 UNK         0.0600 
    202 H202        0.9722  -26.9393  -45.7444 H         1 UNK         0.0600 
    203 H203        1.0910  -25.8394  -47.1177 H         1 UNK         0.0600 
    204 H204        1.3654  -27.5634  -47.3391 H         1 UNK         0.0600 
    205 H205       -1.3774  -24.9710  -48.5358 H         1 UNK         0.3000 
    206 H206       -1.5782  -26.4385  -51.1141 H         1 UNK         0.0600 
    207 H207       -0.0454  -24.8107  -52.1491 H         1 UNK         0.0600 
    208 H208        0.1206  -23.9305  -50.6269 H         1 UNK         0.0600 
    209 H209        0.7737  -25.5561  -50.7950 H         1 UNK         0.0600 
    210 H210       -1.6087  -23.6786  -52.3197 H         1 UNK         0.3000 
    211 H211       -4.4709  -23.3451  -52.4262 H         1 UNK         0.0600 
    212 H212       -2.1228  -21.7955  -53.6522 H         1 UNK         0.0600 
    213 H213       -3.8095  -21.5517  -54.0760 H         1 UNK         0.0600 
    214 H214       -3.0482  -23.0936  -54.4107 H         1 UNK         0.0600 
    215 H215       -5.5302  -21.2038  -52.1840 H         1 UNK         0.3000 
    216 H216       -4.4912  -19.4140  -50.1052 H         1 UNK         0.0600 
    217 H217       -6.3667  -19.8896  -48.5425 H         1 UNK         0.0600 
    218 H218       -5.3958  -21.3366  -48.7619 H         1 UNK         0.0600 
    219 H219       -6.9418  -21.1912  -49.5806 H         1 UNK         0.0600 
    220 H220       -4.6652  -18.3685  -52.2816 H         1 UNK         0.3000 
    221 H221       -5.4067  -16.7053  -53.5045 H         1 UNK         0.0600 
    222 H222       -7.9459  -16.5287  -51.8063 H         1 UNK         0.0600 
    223 H223       -6.4377  -15.6719  -51.4862 H         1 UNK         0.0600 
    224 H224       -7.3558  -15.3312  -52.9450 H         1 UNK         0.0600 
    225 H225       -7.8637  -19.1450  -52.8663 H         1 UNK         0.3000 
    226 H226       -8.6678  -19.3770  -55.7103 H         1 UNK         0.0600 
    227 H227      -10.0071  -21.2999  -54.8313 H         1 UNK         0.0600 
    228 H228       -9.2948  -21.0937  -53.2353 H         1 UNK         0.0600 
    229 H229      -10.3490  -19.8489  -53.9037 H         1 UNK         0.0600 
    230 H230       -8.3114  -21.5053  -56.7308 H         1 UNK         0.3000 
    231 H231       -7.1422  -23.1669  -57.5534 H         1 UNK         0.0600 
    232 H232       -7.2463  -24.2056  -55.2792 H         1 UNK         0.0600 
    233 H233       -5.6965  -23.4855  -54.8673 H         1 UNK         0.0600 
    234 H234       -5.8081  -24.6752  -56.1603 H         1 UNK         0.0600 
    235 H235       -4.1442  -23.4314  -56.4301 H         1 UNK         0.3000 
    236 H236       -2.9863  -22.5659  -58.7920 H         1 UNK         0.0600 
    237 H237       -2.1153  -24.3811  -57.2988 H         1 UNK         0.0600 
    238 H238       -0.8613  -23.2436  -57.7588 H         1 UNK         0.0600 
    239 H239       -1.5560  -23.1621  -56.1507 H         1 UNK         0.0600 
    240 H240       -3.6884  -20.5124  -56.1378 H         1 UNK         0.3000 
    241 H241       -1.7210  -18.4546  -56.6216 H         1 UNK         0.0600 
    242 H242       -4.6091  -19.4109  -58.4760 H         1 UNK         0.3800 
    243 H243       -4.6071  -17.9809  -59.4811 H         1 UNK         0.3800 
    244 H244       -3.3032  -16.9799  -55.3482 H         1 UNK         0.0800 
    245 H245       -4.4919  -18.2543  -55.3752 H         1 UNK         0.0800 
    246 H246       -0.9957  -17.1275  -53.6614 H         1 UNK         0.0800 
    247 H247       -2.5332  -16.4502  -53.1703 H         1 UNK         0.0800 
@<TRIPOS>BOND
     1    1    2 1    
     2    1  127 1    
     3    1  128 1    
     4    1  129 1    
     5    2    3 2    
     6    2    4 am   BACKBONE|DICT|INTERRES
     7    4    5 1    
     8    4  130 1    
     9    5    6 1    
    10    5   65 1    
    11    5  131 1    
    12    6    7 1    
    13    6  132 1    
    14    6  133 1    
    15    7    8 1    
    16    8    9 1    
    17    8  134 1    
    18    8  135 1    
    19    9   10 ar   
    20    9   14 ar   
    21   10   11 ar   
    22   10  136 1    
    23   11   12 ar   
    24   11  126 1    
    25   12   13 ar   
    26   12  137 1    
    27   13   14 ar   
    28   13   15 1    
    29   14  138 1    
    30   15   16 1    
    31   15  139 1    
    32   15  140 1    
    33   16   17 1    
    34   17   18 1    
    35   17  141 1    
    36   17  142 1    
    37   18   19 1    
    38   18   67 1    
    39   18  143 1    
    40   19   20 am   BACKBONE|DICT|INTERRES
    41   19  144 1    
    42   20   21 2    
    43   20   22 1    
    44   22   23 1    
    45   22   24 1    
    46   22  145 1    
    47   23  146 1    
    48   23  147 1    
    49   23  148 1    
    50   24   25 am   BACKBONE|DICT|INTERRES
    51   24  149 1    
    52   25   26 2    
    53   25   27 1    
    54   27   28 1    
    55   27   29 1    
    56   27  150 1    
    57   28  151 1    
    58   28  152 1    
    59   28  153 1    
    60   29   30 am   BACKBONE|DICT|INTERRES
    61   29  154 1    
    62   30   31 2    
    63   30   32 1    
    64   32   33 1    
    65   32   34 1    
    66   32  155 1    
    67   33  156 1    
    68   33  157 1    
    69   33  158 1    
    70   34   35 am   BACKBONE|DICT|INTERRES
    71   34  159 1    
    72   35   36 2    
    73   35   37 1    
    74   37   38 1    
    75   37   39 1    
    76   37  160 1    
    77   38  161 1    
    78   38  162 1    
    79   38  163 1    
    80   39   40 am   BACKBONE|DICT|INTERRES
    81   39  164 1    
    82   40   41 2    
    83   40   42 1    
    84   42   43 1    
    85   42   44 1    
    86   42  165 1    
    87   43  166 1    
    88   43  167 1    
    89   43  168 1    
    90   44   45 am   BACKBONE|DICT|INTERRES
    91   44  169 1    
    92   45   46 2    
    93   45   47 1    
    94   47   48 1    
    95   47   49 1    
    96   47  170 1    
    97   48  171 1    
    98   48  172 1    
    99   48  173 1    
   100   49   50 am   BACKBONE|DICT|INTERRES
   101   49  174 1    
   102   50   51 2    
   103   50   52 1    
   104   52   53 1    
   105   52   54 1    
   106   52  175 1    
   107   53  176 1    
   108   53  177 1    
   109   53  178 1    
   110   54   55 am   BACKBONE|DICT|INTERRES
   111   54  179 1    
   112   55   56 2    
   113   55   57 1    
   114   57   58 1    
   115   57   59 1    
   116   57  180 1    
   117   58  181 1    
   118   58  182 1    
   119   58  183 1    
   120   59   60 am   BACKBONE|DICT|INTERRES
   121   59  184 1    
   122   60   61 2    
   123   60   62 1    
   124   62   63 1    
   125   62   64 1    
   126   62  185 1    
   127   63  186 1    
   128   63  187 1    
   129   63  188 1    
   130   64   65 am   BACKBONE|DICT|INTERRES
   131   64  189 1    
   132   65   66 2    
   133   67   68 2    
   134   67   69 am   BACKBONE|DICT|INTERRES
   135   69   70 1    
   136   69  190 1    
   137   70   71 1    
   138   70   72 1    
   139   70  191 1    
   140   71  192 1    
   141   71  193 1    
   142   71  194 1    
   143   72   73 2    
   144   72   74 am   BACKBONE|DICT|INTERRES
   145   74   75 1    
   146   74  195 1    
   147   75   76 1    
   148   75   77 1    
   149   75  196 1    
   150   76  197 1    
   151   76  198 1    
   152   76  199 1    
   153   77   78 2    
   154   77   79 am   BACKBONE|DICT|INTERRES
   155   79   80 1    
   156   79  200 1    
   157   80   81 1    
   158   80   82 1    
   159   80  201 1    
   160   81  202 1    
   161   81  203 1    
   162   81  204 1    
   163   82   83 2    
   164   82   84 am   BACKBONE|DICT|INTERRES
   165   84   85 1    
   166   84  205 1    
   167   85   86 1    
   168   85   87 1    
   169   85  206 1    
   170   86  207 1    
   171   86  208 1    
   172   86  209 1    
   173   87   88 2    
   174   87   89 am   BACKBONE|DICT|INTERRES
   175   89   90 1    
   176   89  210 1    
   177   90   91 1    
   178   90   92 1    
   179   90  211 1    
   180   91  212 1    
   181   91  213 1    
   182   91  214 1    
   183   92   93 2    
   184   92   94 am   BACKBONE|DICT|INTERRES
   185   94   95 1    
   186   94  215 1    
   187   95   96 1    
   188   95   97 1    
   189   95  216 1    
   190   96  217 1    
   191   96  218 1    
   192   96  219 1    
   193   97   98 2    
   194   97   99 am   BACKBONE|DICT|INTERRES
   195   99  100 1    
   196   99  220 1    
   197  100  101 1    
   198  100  102 1    
   199  100  221 1    
   200  101  222 1    
   201  101  223 1    
   202  101  224 1    
   203  102  103 2    
   204  102  104 am   BACKBONE|DICT|INTERRES
   205  104  105 1    
   206  104  225 1    
   207  105  106 1    
   208  105  107 1    
   209  105  226 1    
   210  106  227 1    
   211  106  228 1    
   212  106  229 1    
   213  107  108 2    
   214  107  109 am   BACKBONE|DICT|INTERRES
   215  109  110 1    
   216  109  230 1    
   217  110  111 1    
   218  110  112 1    
   219  110  231 1    
   220  111  232 1    
   221  111  233 1    
   222  111  234 1    
   223  112  113 2    
   224  112  114 am   BACKBONE|DICT|INTERRES
   225  114  115 1    
   226  114  235 1    
   227  115  116 1    
   228  115  117 1    
   229  115  236 1    
   230  116  237 1    
   231  116  238 1    
   232  116  239 1    
   233  117  118 2    
   234  117  119 am   BACKBONE|DICT|INTERRES
   235  119  120 1    
   236  119  240 1    
   237  120  121 1    
   238  120  124 1    
   239  120  241 1    
   240  121  122 am   BACKBONE|DICT|INTERRES
   241  121  123 2    
   242  122  242 1    
   243  122  243 1    
   244  124  125 1    
   245  124  244 1    
   246  124  245 1    
   247  125  126 1    
   248  126  246 1    
   249  126  247 1    
@<TRIPOS>SUBSTRUCTURE
     1 UNK         1 GROUP             0       ****    0 ROOT    
