@<TRIPOS>MOLECULE
3R540
247   249    1
SMALL
USER_CHARGES


@<TRIPOS>ATOM
      1 CA          2.3855  -11.5709  -44.6497 C.3       0 UNK        -0.1800 
      2 C           0.9716  -11.8219  -44.1496 C.2       0 UNK         0.5000 
      3 O           0.3930  -10.9538  -43.4961 O.2       0 UNK        -0.5000 
      4 N           0.4146  -13.0041  -44.4494 N.am      1 UNK        -0.5000 
      5 CA         -0.9521  -13.3936  -44.0732 C.3       1 UNK         0.1400 
      6 C6         -1.1712  -14.9237  -44.2121 C.3       23 UNK        -0.0398 
      7 S7         -2.4143  -15.5678  -43.0446 S.3       23 UNK        -0.2404 
      8 C8         -3.9145  -15.6269  -44.0775 C.3       23 UNK        -0.0205 
      9 C9         -3.9549  -16.8582  -44.9678 C.ar      23 UNK        -0.0193 
     10 C10        -3.6196  -16.7750  -46.3228 C.ar      23 UNK        -0.1150 
     11 C11        -3.7050  -17.9044  -47.1434 C.ar      23 UNK        -0.0193 
     12 C12        -4.1102  -19.1256  -46.5958 C.ar      23 UNK        -0.1150 
     13 C13        -4.4467  -19.2198  -45.2424 C.ar      23 UNK        -0.0193 
     14 C14        -4.3730  -18.0804  -44.4369 C.ar      23 UNK        -0.1150 
     15 C15        -4.9214  -20.5447  -44.6613 C.3       23 UNK        -0.0205 
     16 S16        -3.9667  -21.0784  -43.2010 S.3       23 UNK        -0.2404 
     17 C17        -2.2606  -21.1691  -43.8482 C.3       23 UNK        -0.0398 
     18 CA         -1.9954  -22.3529  -44.8102 C.3       11 UNK         0.1400 
     19 N          -0.7498  -22.1510  -45.5584 N.am      11 UNK        -0.5000 
     20 C          -0.2422  -22.9550  -46.5037 C.2       10 UNK         0.5000 
     21 O          -0.7992  -23.9816  -46.8963 O.2       10 UNK        -0.5000 
     22 CA          1.1457  -22.5855  -47.0593 C.3       10 UNK         0.1400 
     23 CB          1.0135  -21.7075  -48.3133 C.3       10 UNK        -0.1800 
     24 N           1.9989  -21.9050  -46.0817 N.am      10 UNK        -0.5000 
     25 C           2.4027  -22.4170  -44.9092 C.2       9 UNK         0.5000 
     26 O           2.0899  -23.5378  -44.5075 O.2       9 UNK        -0.5000 
     27 CA          3.2573  -21.5010  -44.0168 C.3       9 UNK         0.1400 
     28 CB          4.7104  -21.4396  -44.5128 C.3       9 UNK        -0.1800 
     29 N           2.6998  -20.1507  -43.9522 N.am      9 UNK        -0.5000 
     30 C           1.6116  -19.8171  -43.2438 C.2       8 UNK         0.5000 
     31 O           1.0088  -20.5977  -42.5076 O.2       8 UNK        -0.5000 
     32 CA          1.0926  -18.3761  -43.4061 C.3       8 UNK         0.1400 
     33 CB          1.7650  -17.4398  -42.3906 C.3       8 UNK        -0.1800 
     34 N           1.2978  -17.8543  -44.7578 N.am      8 UNK        -0.5000 
     35 C           0.6460  -18.2988  -45.8423 C.2       7 UNK         0.5000 
     36 O          -0.2004  -19.1907  -45.8158 O.2       7 UNK        -0.5000 
     37 CA          1.0454  -17.6744  -47.1907 C.3       7 UNK         0.1400 
     38 CB          0.2625  -16.3738  -47.4243 C.3       7 UNK        -0.1800 
     39 N           2.4820  -17.4072  -47.2997 N.am      7 UNK        -0.5000 
     40 C           3.4402  -18.3458  -47.2250 C.2       6 UNK         0.5000 
     41 O           3.2001  -19.5432  -47.0815 O.2       6 UNK        -0.5000 
     42 CA          4.9125  -17.8905  -47.2773 C.3       6 UNK         0.1400 
     43 CB          5.4778  -18.0857  -48.6917 C.3       6 UNK        -0.1800 
     44 N           5.1233  -16.5019  -46.8704 N.am      6 UNK        -0.5000 
     45 C           4.8290  -15.9834  -45.6698 C.2       5 UNK         0.5000 
     46 O           4.4087  -16.6482  -44.7223 O.2       5 UNK        -0.5000 
     47 CA          4.9640  -14.4526  -45.5287 C.3       5 UNK         0.1400 
     48 CB          6.3050  -14.0890  -44.8750 C.3       5 UNK        -0.1800 
     49 N           4.8274  -13.7107  -46.7918 N.am      5 UNK        -0.5000 
     50 C           3.7623  -13.7560  -47.6050 C.2       4 UNK         0.5000 
     51 O           2.7771  -14.4650  -47.3863 O.2       4 UNK        -0.5000 
     52 CA          3.8396  -12.9107  -48.8924 C.3       4 UNK         0.1400 
     53 CB          4.8145  -13.5532  -49.8929 C.3       4 UNK        -0.1800 
     54 N           2.5355  -12.7723  -49.5443 N.am      4 UNK        -0.5000 
     55 C           1.4904  -12.1029  -49.0417 C.2       3 UNK         0.5000 
     56 O           1.5543  -11.4253  -48.0129 O.2       3 UNK        -0.5000 
     57 CA          0.1469  -12.2200  -49.7953 C.3       3 UNK         0.1400 
     58 CB          0.0761  -13.4173  -50.7659 C.3       3 UNK        -0.1800 
     59 N          -0.9318  -12.3486  -48.8185 N.am      3 UNK        -0.5000 
     60 C          -1.6868  -11.3399  -48.3611 C.2       2 UNK         0.5000 
     61 O          -1.6873  -10.2015  -48.8305 O.2       2 UNK        -0.5000 
     62 CA         -2.5412  -11.6579  -47.1276 C.3       2 UNK         0.1400 
     63 CB         -3.7838  -12.4871  -47.5079 C.3       2 UNK        -0.1800 
     64 N          -1.7097  -12.3670  -46.1577 N.am      2 UNK        -0.5000 
     65 C          -2.0104  -12.6055  -44.8768 C.2       1 UNK         0.5000 
     66 O          -3.0496  -12.2321  -44.3320 O.2       1 UNK        -0.5000 
     67 C          -2.0856  -23.7219  -44.0904 C.2       11 UNK         0.5000 
     68 O          -3.1950  -24.2196  -43.8958 O.2       11 UNK        -0.5000 
     69 N          -0.9426  -24.3616  -43.7921 N.am      12 UNK        -0.5000 
     70 CA         -0.8675  -25.7376  -43.2843 C.3       12 UNK         0.1400 
     71 CB          0.5946  -26.0760  -42.9598 C.3       12 UNK        -0.1800 
     72 C          -1.4642  -26.7943  -44.2429 C.2       12 UNK         0.5000 
     73 O          -1.8952  -27.8511  -43.7807 O.2       12 UNK        -0.5000 
     74 N          -1.5071  -26.4788  -45.5443 N.am      13 UNK        -0.5000 
     75 CA         -2.1621  -27.2539  -46.5982 C.3       13 UNK         0.1400 
     76 CB         -1.0977  -27.6709  -47.6289 C.3       13 UNK        -0.1800 
     77 C          -3.2996  -26.4372  -47.2487 C.2       13 UNK         0.5000 
     78 O          -3.6216  -26.6622  -48.4174 O.2       13 UNK        -0.5000 
     79 N          -3.8521  -25.4588  -46.5089 N.am      14 UNK        -0.5000 
     80 CA         -4.8815  -24.4895  -46.9184 C.3       14 UNK         0.1400 
     81 CB         -6.2326  -25.2014  -47.1332 C.3       14 UNK        -0.1800 
     82 C          -4.4804  -23.6301  -48.1388 C.2       14 UNK         0.5000 
     83 O          -5.3506  -23.1244  -48.8501 O.2       14 UNK        -0.5000 
     84 N          -3.1681  -23.5322  -48.3977 N.am      15 UNK        -0.5000 
     85 CA         -2.5318  -22.9833  -49.5947 C.3       15 UNK         0.1400 
     86 CB         -2.6095  -21.4463  -49.5857 C.3       15 UNK        -0.1800 
     87 C          -3.0525  -23.6208  -50.8982 C.2       15 UNK         0.5000 
     88 O          -3.2106  -22.9208  -51.8985 O.2       15 UNK        -0.5000 
     89 N          -3.3465  -24.9302  -50.8517 N.am      16 UNK        -0.5000 
     90 CA         -3.9694  -25.7239  -51.9170 C.3       16 UNK         0.1400 
     91 CB         -3.0117  -25.8716  -53.1186 C.3       16 UNK        -0.1800 
     92 C          -5.3667  -25.1893  -52.3052 C.2       16 UNK         0.5000 
     93 O          -5.7095  -25.1515  -53.4871 O.2       16 UNK        -0.5000 
     94 N          -6.1289  -24.7659  -51.2845 N.am      17 UNK        -0.5000 
     95 CA         -7.4126  -24.0611  -51.3544 C.3       17 UNK         0.1400 
     96 CB         -8.5014  -24.9273  -52.0230 C.3       17 UNK        -0.1800 
     97 C          -7.2559  -22.6614  -51.9842 C.2       17 UNK         0.5000 
     98 O          -7.9940  -22.3075  -52.9054 O.2       17 UNK        -0.5000 
     99 N          -6.2814  -21.9016  -51.4598 N.am      18 UNK        -0.5000 
    100 CA        -5.8841  -20.5488  -51.8713 C.3       18 UNK         0.1400 
    101 CB        -6.9654  -19.5228  -51.4763 C.3       18 UNK        -0.1800 
    102 C         -5.4756  -20.4608  -53.3585 C.2       18 UNK         0.5000 
    103 O         -5.9427  -19.5797  -54.0836 O.2       18 UNK        -0.5000 
    104 N         -4.6152  -21.3926  -53.7836 N.am      19 UNK        -0.5000 
    105 CA        -4.0633  -21.4775  -55.1356 C.3       19 UNK         0.1400 
    106 CB        -4.4668  -22.8206  -55.7617 C.3       19 UNK        -0.1800 
    107 C         -2.5332  -21.3220  -55.1323 C.2       19 UNK         0.5000 
    108 O         -1.9866  -20.7444  -56.0727 O.2       19 UNK        -0.5000 
    109 N         -1.8636  -21.8202  -54.0828 N.am      20 UNK        -0.5000 
    110 CA        -0.4145  -21.7110  -53.8923 C.3       20 UNK         0.1400 
    111 CB         0.0488  -22.8197  -52.9338 C.3       20 UNK        -0.1800 
    112 C          0.0057  -20.3308  -53.3519 C.2       20 UNK         0.5000 
    113 O          1.1540  -19.9269  -53.5381 O.2       20 UNK        -0.5000 
    114 N         -0.9303  -19.6378  -52.6975 N.am      21 UNK        -0.5000 
    115 CA        -0.7982  -18.3000  -52.1393 C.3       21 UNK         0.1400 
    116 CB        -0.0981  -18.3684  -50.7696 C.3       21 UNK        -0.1800 
    117 C         -2.2077  -17.7058  -52.0116 C.2       21 UNK         0.5000 
    118 O         -3.1832  -18.4587  -52.0585 O.2       21 UNK        -0.5000 
    119 N         -2.2744  -16.3778  -51.8547 N.am      22 UNK        -0.5000 
    120 CA        -3.4520  -15.5081  -51.6285 C.3       22 UNK         0.1400 
    121 C         -4.6508  -15.5865  -52.6260 C.2       22 UNK         0.5000 
    122 N         -4.7699  -16.6090  -53.4573 N.am      22 UNK        -0.7600 
    123 O         -5.4685  -14.6712  -52.6702 O.2       22 UNK        -0.5000 
    124 C124       -3.9132  -15.4731  -50.1434 C.3       23 UNK        -0.0398 
    125 S125       -4.7302  -16.9939  -49.5419 S.3       23 UNK        -0.2404 
    126 C126       -3.3834  -17.8050  -48.6256 C.3       23 UNK        -0.0205 
    127 H127        2.6662  -12.2908  -45.4147 H         1 UNK         0.0600 
    128 H128        3.0979  -11.6415  -43.8278 H         1 UNK         0.0600 
    129 H129        2.4600  -10.5754  -45.0874 H         1 UNK         0.0600 
    130 H130        0.9461  -13.6764  -44.9836 H         1 UNK         0.3000 
    131 H131       -1.0763  -13.1250  -43.0214 H         1 UNK         0.0600 
    132 H132       -1.4245  -15.2114  -45.2326 H         1 UNK         0.0800 
    133 H133       -0.2457  -15.4517  -43.9831 H         1 UNK         0.0800 
    134 H134       -4.7852  -15.6336  -43.4201 H         1 UNK         0.0800 
    135 H135       -4.0038  -14.7206  -44.6760 H         1 UNK         0.0800 
    136 H136       -3.3170  -15.8284  -46.7468 H         1 UNK         0.1150 
    137 H137       -4.1801  -19.9989  -47.2290 H         1 UNK         0.1150 
    138 H138       -4.6426  -18.1452  -43.3920 H         1 UNK         0.1150 
    139 H139       -5.9676  -20.4398  -44.3713 H         1 UNK         0.0800 
    140 H140       -4.8957  -21.3320  -45.4150 H         1 UNK         0.0800 
    141 H141       -1.5761  -21.2098  -42.9998 H         1 UNK         0.0800 
    142 H142       -2.0499  -20.2231  -44.3464 H         1 UNK         0.0800 
    143 H143       -2.7820  -22.3518  -45.5655 H         1 UNK         0.0600 
    144 H144       -0.2497  -21.2920  -45.3605 H         1 UNK         0.3000 
    145 H145        1.6460  -23.5140  -47.3409 H         1 UNK         0.0600 
    146 H146        1.9912  -21.4252  -48.7039 H         1 UNK         0.0600 
    147 H147        0.4953  -22.2360  -49.1118 H         1 UNK         0.0600 
    148 H148        0.4585  -20.7921  -48.1072 H         1 UNK         0.0600 
    149 H149        2.3424  -20.9859  -46.3532 H         1 UNK         0.3000 
    150 H150        3.2641  -21.9239  -43.0098 H         1 UNK         0.0600 
    151 H151        4.7821  -21.0306  -45.5206 H         1 UNK         0.0600 
    152 H152        5.1556  -22.4351  -44.5322 H         1 UNK         0.0600 
    153 H153        5.3242  -20.8221  -43.8569 H         1 UNK         0.0600 
    154 H154        3.1162  -19.4549  -44.5539 H         1 UNK         0.3000 
    155 H155        0.0189  -18.3835  -43.2046 H         1 UNK         0.0600 
    156 H156        1.6008  -17.7902  -41.3709 H         1 UNK         0.0600 
    157 H157        1.3626  -16.4291  -42.4533 H         1 UNK         0.0600 
    158 H158        2.8427  -17.3821  -42.5477 H         1 UNK         0.0600 
    159 H159        2.0290  -17.1660  -44.8752 H         1 UNK         0.3000 
    160 H160        0.7780  -18.3836  -47.9752 H         1 UNK         0.0600 
    161 H161        0.5204  -15.6145  -46.6866 H         1 UNK         0.0600 
    162 H162       -0.8103  -16.5442  -47.3513 H         1 UNK         0.0600 
    163 H163        0.4666  -15.9606  -48.4111 H         1 UNK         0.0600 
    164 H164        2.7488  -16.4319  -47.3962 H         1 UNK         0.3000 
    165 H165        5.4739  -18.5268  -46.5902 H         1 UNK         0.0600 
    166 H166        6.5422  -17.8530  -48.7276 H         1 UNK         0.0600 
    167 H167        5.3616  -19.1196  -49.0200 H         1 UNK         0.0600 
    168 H168        4.9693  -17.4511  -49.4189 H         1 UNK         0.0600 
    169 H169        5.4577  -15.8718  -47.5837 H         1 UNK         0.3000 
    170 H170        4.1627  -14.1248  -44.8642 H         1 UNK         0.0600 
    171 H171        6.4289  -14.6057  -43.9222 H         1 UNK         0.0600 
    172 H172        7.1489  -14.3628  -45.5094 H         1 UNK         0.0600 
    173 H173        6.3683  -13.0196  -44.6726 H         1 UNK         0.0600 
    174 H174        5.6046  -13.1164  -47.0424 H         1 UNK         0.3000 
    175 H175        4.2020  -11.9150  -48.6289 H         1 UNK         0.0600 
    176 H176        4.4988  -14.5593  -50.1731 H         1 UNK         0.0600 
    177 H177        4.8904  -12.9603  -50.8047 H         1 UNK         0.0600 
    178 H178        5.8195  -13.6287  -49.4762 H         1 UNK         0.0600 
    179 H179        2.3929  -13.3276  -50.3743 H         1 UNK         0.3000 
    180 H180        0.0232  -11.3050  -50.3779 H         1 UNK         0.0600 
    181 H181        0.2596  -14.3654  -50.2593 H         1 UNK         0.0600 
    182 H182        0.8019  -13.3197  -51.5740 H         1 UNK         0.0600 
    183 H183       -0.9063  -13.4752  -51.2332 H         1 UNK         0.0600 
    184 H184       -1.0122  -13.2493  -48.3729 H         1 UNK         0.3000 
    185 H185       -2.8635  -10.7118  -46.6877 H         1 UNK         0.0600 
    186 H186       -3.5126  -13.4846  -47.8515 H         1 UNK         0.0600 
    187 H187       -4.4606  -12.6016  -46.6613 H         1 UNK         0.0600 
    188 H188       -4.3478  -12.0037  -48.3066 H         1 UNK         0.0600 
    189 H189       -0.7789  -12.5993  -46.4750 H         1 UNK         0.3000 
    190 H190       -0.0587  -23.9154  -44.0078 H         1 UNK         0.3000 
    191 H191       -1.4415  -25.7776  -42.3564 H         1 UNK         0.0600 
    192 H192        1.2161  -26.0666  -43.8561 H         1 UNK         0.0600 
    193 H193        1.0182  -25.3647  -42.2504 H         1 UNK         0.0600 
    194 H194        0.6767  -27.0682  -42.5144 H         1 UNK         0.0600 
    195 H195       -1.1303  -25.5828  -45.8411 H         1 UNK         0.3000 
    196 H196       -2.6179  -28.1568  -46.1879 H         1 UNK         0.0600 
    197 H197       -0.2966  -28.2403  -47.1575 H         1 UNK         0.0600 
    198 H198       -0.6502  -26.8027  -48.1149 H         1 UNK         0.0600 
    199 H199       -1.5267  -28.3022  -48.4079 H         1 UNK         0.0600 
    200 H200       -3.5200  -25.3418  -45.5571 H         1 UNK         0.3000 
    201 H201       -5.0002  -23.7964  -46.0849 H         1 UNK         0.0600 
    202 H202       -7.0346  -24.4817  -47.3019 H         1 UNK         0.0600 
    203 H203       -6.5091  -25.7916  -46.2595 H         1 UNK         0.0600 
    204 H204       -6.2070  -25.8698  -47.9944 H         1 UNK         0.0600 
    205 H205       -2.5203  -23.9667  -47.7473 H         1 UNK         0.3000 
    206 H206       -1.4819  -23.2668  -49.5392 H         1 UNK         0.0600 
    207 H207       -2.1389  -21.0382  -48.6910 H         1 UNK         0.0600 
    208 H208       -3.6415  -21.0993  -49.6065 H         1 UNK         0.0600 
    209 H209       -2.0968  -21.0162  -50.4458 H         1 UNK         0.0600 
    210 H210       -3.2281  -25.4203  -49.9698 H         1 UNK         0.3000 
    211 H211       -4.1318  -26.7196  -51.5017 H         1 UNK         0.0600 
    212 H212       -2.0550  -26.2909  -52.8075 H         1 UNK         0.0600 
    213 H213       -3.4284  -26.5411  -53.8718 H         1 UNK         0.0600 
    214 H214       -2.8131  -24.9167  -53.6044 H         1 UNK         0.0600 
    215 H215       -5.7179  -24.7945  -50.3611 H         1 UNK         0.3000 
    216 H216       -7.7225  -23.8953  -50.3214 H         1 UNK         0.0600 
    217 H217       -9.4783  -24.4492  -51.9435 H         1 UNK         0.0600 
    218 H218       -8.3054  -25.0875  -53.0833 H         1 UNK         0.0600 
    219 H219       -8.5779  -25.9032  -51.5439 H         1 UNK         0.0600 
    220 H220       -5.7563  -22.2940  -50.6850 H         1 UNK         0.3000 
    221 H221       -4.9882  -20.3052  -51.3012 H         1 UNK         0.0600 
    222 H222       -7.8962  -19.6827  -52.0210 H         1 UNK         0.0600 
    223 H223       -7.1842  -19.5733  -50.4098 H         1 UNK         0.0600 
    224 H224       -6.6303  -18.5064  -51.6882 H         1 UNK         0.0600 
    225 H225       -4.2670  -22.0663  -53.1056 H         1 UNK         0.3000 
    226 H226       -4.4655  -20.6801  -55.7635 H         1 UNK         0.0600 
    227 H227       -5.5512  -22.9273  -55.7973 H         1 UNK         0.0600 
    228 H228       -4.0957  -22.9036  -56.7839 H         1 UNK         0.0600 
    229 H229       -4.0692  -23.6640  -55.1975 H         1 UNK         0.0600 
    230 H230       -2.3794  -22.2777  -53.3345 H         1 UNK         0.3000 
    231 H231        0.0808  -21.8618  -54.8538 H         1 UNK         0.0600 
    232 H232        1.1362  -22.8307  -52.8498 H         1 UNK         0.0600 
    233 H233       -0.2611  -23.8040  -53.2855 H         1 UNK         0.0600 
    234 H234       -0.3530  -22.6781  -51.9305 H         1 UNK         0.0600 
    235 H235       -1.8701  -20.0102  -52.6378 H         1 UNK         0.3000 
    236 H236       -0.2178  -17.6790  -52.8248 H         1 UNK         0.0600 
    237 H237        0.8961  -18.8081  -50.8513 H         1 UNK         0.0600 
    238 H238        0.0249  -17.3725  -50.3446 H         1 UNK         0.0600 
    239 H239       -0.6678  -18.9643  -50.0558 H         1 UNK         0.0600 
    240 H240       -1.4005  -15.8745  -51.8880 H         1 UNK         0.3000 
    241 H241       -3.0487  -14.5139  -51.8238 H         1 UNK         0.0600 
    242 H242       -5.5462  -16.6586  -54.0969 H         1 UNK         0.3800 
    243 H243       -4.1878  -17.4244  -53.3003 H         1 UNK         0.3800 
    244 H244       -3.0645  -15.2340  -49.5029 H         1 UNK         0.0800 
    245 H245       -4.6147  -14.6501  -49.9969 H         1 UNK         0.0800 
    246 H246       -2.4391  -17.2835  -48.7718 H         1 UNK         0.0800 
    247 H247       -3.2381  -18.7961  -49.0516 H         1 UNK         0.0800 
@<TRIPOS>BOND
     1    1    2 1    
     2    1  127 1    
     3    1  128 1    
     4    1  129 1    
     5    2    3 2    
     6    2    4 am   BACKBONE|DICT|INTERRES
     7    4    5 1    
     8    4  130 1    
     9    5    6 1    
    10    5   65 1    
    11    5  131 1    
    12    6    7 1    
    13    6  132 1    
    14    6  133 1    
    15    7    8 1    
    16    8    9 1    
    17    8  134 1    
    18    8  135 1    
    19    9   10 ar   
    20    9   14 ar   
    21   10   11 ar   
    22   10  136 1    
    23   11   12 ar   
    24   11  126 1    
    25   12   13 ar   
    26   12  137 1    
    27   13   14 ar   
    28   13   15 1    
    29   14  138 1    
    30   15   16 1    
    31   15  139 1    
    32   15  140 1    
    33   16   17 1    
    34   17   18 1    
    35   17  141 1    
    36   17  142 1    
    37   18   19 1    
    38   18   67 1    
    39   18  143 1    
    40   19   20 am   BACKBONE|DICT|INTERRES
    41   19  144 1    
    42   20   21 2    
    43   20   22 1    
    44   22   23 1    
    45   22   24 1    
    46   22  145 1    
    47   23  146 1    
    48   23  147 1    
    49   23  148 1    
    50   24   25 am   BACKBONE|DICT|INTERRES
    51   24  149 1    
    52   25   26 2    
    53   25   27 1    
    54   27   28 1    
    55   27   29 1    
    56   27  150 1    
    57   28  151 1    
    58   28  152 1    
    59   28  153 1    
    60   29   30 am   BACKBONE|DICT|INTERRES
    61   29  154 1    
    62   30   31 2    
    63   30   32 1    
    64   32   33 1    
    65   32   34 1    
    66   32  155 1    
    67   33  156 1    
    68   33  157 1    
    69   33  158 1    
    70   34   35 am   BACKBONE|DICT|INTERRES
    71   34  159 1    
    72   35   36 2    
    73   35   37 1    
    74   37   38 1    
    75   37   39 1    
    76   37  160 1    
    77   38  161 1    
    78   38  162 1    
    79   38  163 1    
    80   39   40 am   BACKBONE|DICT|INTERRES
    81   39  164 1    
    82   40   41 2    
    83   40   42 1    
    84   42   43 1    
    85   42   44 1    
    86   42  165 1    
    87   43  166 1    
    88   43  167 1    
    89   43  168 1    
    90   44   45 am   BACKBONE|DICT|INTERRES
    91   44  169 1    
    92   45   46 2    
    93   45   47 1    
    94   47   48 1    
    95   47   49 1    
    96   47  170 1    
    97   48  171 1    
    98   48  172 1    
    99   48  173 1    
   100   49   50 am   BACKBONE|DICT|INTERRES
   101   49  174 1    
   102   50   51 2    
   103   50   52 1    
   104   52   53 1    
   105   52   54 1    
   106   52  175 1    
   107   53  176 1    
   108   53  177 1    
   109   53  178 1    
   110   54   55 am   BACKBONE|DICT|INTERRES
   111   54  179 1    
   112   55   56 2    
   113   55   57 1    
   114   57   58 1    
   115   57   59 1    
   116   57  180 1    
   117   58  181 1    
   118   58  182 1    
   119   58  183 1    
   120   59   60 am   BACKBONE|DICT|INTERRES
   121   59  184 1    
   122   60   61 2    
   123   60   62 1    
   124   62   63 1    
   125   62   64 1    
   126   62  185 1    
   127   63  186 1    
   128   63  187 1    
   129   63  188 1    
   130   64   65 am   BACKBONE|DICT|INTERRES
   131   64  189 1    
   132   65   66 2    
   133   67   68 2    
   134   67   69 am   BACKBONE|DICT|INTERRES
   135   69   70 1    
   136   69  190 1    
   137   70   71 1    
   138   70   72 1    
   139   70  191 1    
   140   71  192 1    
   141   71  193 1    
   142   71  194 1    
   143   72   73 2    
   144   72   74 am   BACKBONE|DICT|INTERRES
   145   74   75 1    
   146   74  195 1    
   147   75   76 1    
   148   75   77 1    
   149   75  196 1    
   150   76  197 1    
   151   76  198 1    
   152   76  199 1    
   153   77   78 2    
   154   77   79 am   BACKBONE|DICT|INTERRES
   155   79   80 1    
   156   79  200 1    
   157   80   81 1    
   158   80   82 1    
   159   80  201 1    
   160   81  202 1    
   161   81  203 1    
   162   81  204 1    
   163   82   83 2    
   164   82   84 am   BACKBONE|DICT|INTERRES
   165   84   85 1    
   166   84  205 1    
   167   85   86 1    
   168   85   87 1    
   169   85  206 1    
   170   86  207 1    
   171   86  208 1    
   172   86  209 1    
   173   87   88 2    
   174   87   89 am   BACKBONE|DICT|INTERRES
   175   89   90 1    
   176   89  210 1    
   177   90   91 1    
   178   90   92 1    
   179   90  211 1    
   180   91  212 1    
   181   91  213 1    
   182   91  214 1    
   183   92   93 2    
   184   92   94 am   BACKBONE|DICT|INTERRES
   185   94   95 1    
   186   94  215 1    
   187   95   96 1    
   188   95   97 1    
   189   95  216 1    
   190   96  217 1    
   191   96  218 1    
   192   96  219 1    
   193   97   98 2    
   194   97   99 am   BACKBONE|DICT|INTERRES
   195   99  100 1    
   196   99  220 1    
   197  100  101 1    
   198  100  102 1    
   199  100  221 1    
   200  101  222 1    
   201  101  223 1    
   202  101  224 1    
   203  102  103 2    
   204  102  104 am   BACKBONE|DICT|INTERRES
   205  104  105 1    
   206  104  225 1    
   207  105  106 1    
   208  105  107 1    
   209  105  226 1    
   210  106  227 1    
   211  106  228 1    
   212  106  229 1    
   213  107  108 2    
   214  107  109 am   BACKBONE|DICT|INTERRES
   215  109  110 1    
   216  109  230 1    
   217  110  111 1    
   218  110  112 1    
   219  110  231 1    
   220  111  232 1    
   221  111  233 1    
   222  111  234 1    
   223  112  113 2    
   224  112  114 am   BACKBONE|DICT|INTERRES
   225  114  115 1    
   226  114  235 1    
   227  115  116 1    
   228  115  117 1    
   229  115  236 1    
   230  116  237 1    
   231  116  238 1    
   232  116  239 1    
   233  117  118 2    
   234  117  119 am   BACKBONE|DICT|INTERRES
   235  119  120 1    
   236  119  240 1    
   237  120  121 1    
   238  120  124 1    
   239  120  241 1    
   240  121  122 am   BACKBONE|DICT|INTERRES
   241  121  123 2    
   242  122  242 1    
   243  122  243 1    
   244  124  125 1    
   245  124  244 1    
   246  124  245 1    
   247  125  126 1    
   248  126  246 1    
   249  126  247 1    
@<TRIPOS>SUBSTRUCTURE
     1 UNK         1 GROUP             0       ****    0 ROOT    
