@<TRIPOS>MOLECULE
3R540
247   249    1
SMALL
USER_CHARGES


@<TRIPOS>ATOM
      1 CA          8.5764  -14.4150  -43.0706 C.3       0 UNK        -0.1800 
      2 C           7.0739  -14.2079  -43.2001 C.2       0 UNK         0.5000 
      3 O           6.4271  -13.8049  -42.2335 O.2       0 UNK        -0.5000 
      4 N           6.5196  -14.4869  -44.3879 N.am      1 UNK        -0.5000 
      5 CA          5.0981  -14.3203  -44.7171 C.3       1 UNK         0.1400 
      6 C6          4.7349  -15.0996  -46.0166 C.3       23 UNK        -0.0398 
      7 S7          3.1680  -14.6569  -46.8638 S.3       23 UNK        -0.2404 
      8 C8          3.6278  -14.7665  -48.6250 C.3       23 UNK        -0.0205 
      9 C9          3.4236  -16.1623  -49.2011 C.ar      23 UNK        -0.0193 
     10 C10         2.5322  -16.3600  -50.2609 C.ar      23 UNK        -0.1150 
     11 C11         2.3603  -17.6293  -50.8217 C.ar      23 UNK        -0.0193 
     12 C12         3.0791  -18.7109  -50.3053 C.ar      23 UNK        -0.1150 
     13 C13         3.9555  -18.5321  -49.2304 C.ar      23 UNK        -0.0193 
     14 C14         4.1372  -17.2541  -48.6983 C.ar      23 UNK        -0.1150 
     15 C15         4.7039  -19.7146  -48.6328 C.3       23 UNK        -0.0205 
     16 S16         3.7812  -20.4606  -47.2489 S.3       23 UNK        -0.2404 
     17 C17         2.3957  -21.2132  -48.1579 C.3       23 UNK        -0.0398 
     18 CA          1.6180  -22.2676  -47.3377 C.3       11 UNK         0.1400 
     19 N           0.8510  -21.6895  -46.2289 N.am      11 UNK        -0.5000 
     20 C           0.2658  -22.4125  -45.2621 C.2       10 UNK         0.5000 
     21 O           0.4252  -23.6262  -45.1291 O.2       10 UNK        -0.5000 
     22 CA         -0.6964  -21.6760  -44.3090 C.3       10 UNK         0.1400 
     23 CB          0.0558  -21.0944  -43.1029 C.3       10 UNK        -0.1800 
     24 N          -1.4707  -20.6250  -44.9739 N.am      10 UNK        -0.5000 
     25 C          -2.3769  -20.8529  -45.9358 C.2       9 UNK         0.5000 
     26 O          -2.6864  -21.9768  -46.3237 O.2       9 UNK        -0.5000 
     27 CA         -3.0146  -19.6315  -46.6195 C.3       9 UNK         0.1400 
     28 CB         -4.2426  -19.1449  -45.8380 C.3       9 UNK        -0.1800 
     29 N          -2.0728  -18.5309  -46.8207 N.am      9 UNK        -0.5000 
     30 C          -0.9800  -18.6042  -47.5952 C.2       8 UNK         0.5000 
     31 O          -0.6833  -19.6056  -48.2460 O.2       8 UNK        -0.5000 
     32 CA         -0.0314  -17.3883  -47.5814 C.3       8 UNK         0.1400 
     33 CB         -0.5667  -16.2408  -48.4504 C.3       8 UNK        -0.1800 
     34 N           0.2004  -16.8906  -46.2266 N.am      8 UNK        -0.5000 
     35 C           0.7741  -17.6020  -45.2470 C.2       7 UNK         0.5000 
     36 O           1.2387  -18.7306  -45.4028 O.2       7 UNK        -0.5000 
     37 CA          0.7591  -16.9774  -43.8418 C.3       7 UNK         0.1400 
     38 CB          1.9194  -15.9938  -43.6506 C.3       7 UNK        -0.1800 
     39 N          -0.5085  -16.3049  -43.5591 N.am      7 UNK        -0.5000 
     40 C          -1.6568  -16.9489  -43.3102 C.2       6 UNK         0.5000 
     41 O          -1.7556  -18.1747  -43.2678 O.2       6 UNK        -0.5000 
     42 CA         -2.9096  -16.0785  -43.1020 C.3       6 UNK         0.1400 
     43 CB         -2.9896  -15.5829  -41.6504 C.3       6 UNK        -0.1800 
     44 N          -2.9607  -14.9314  -44.0094 N.am      6 UNK        -0.5000 
     45 C          -3.1171  -15.0259  -45.3372 C.2       5 UNK         0.5000 
     46 O          -3.2506  -16.0911  -45.9350 O.2       5 UNK        -0.5000 
     47 CA         -3.0749  -13.7133  -46.1388 C.3       5 UNK         0.1400 
     48 CB         -4.4730  -13.0829  -46.2150 C.3       5 UNK        -0.1800 
     49 N          -2.1239  -12.7324  -45.6093 N.am      5 UNK        -0.5000 
     50 C          -0.8026  -12.9297  -45.5153 C.2       4 UNK         0.5000 
     51 O          -0.2467  -13.9944  -45.7957 O.2       4 UNK        -0.5000 
     52 CA          0.0311  -11.7510  -44.9869 C.3       4 UNK         0.1400 
     53 CB          0.4855  -12.0185  -43.5443 C.3       4 UNK        -0.1800 
     54 N           1.1964  -11.5206  -45.8393 N.am      4 UNK        -0.5000 
     55 C           1.1293  -10.9835  -47.0675 C.2       3 UNK         0.5000 
     56 O           0.0805  -10.5547  -47.5533 O.2       3 UNK        -0.5000 
     57 CA          2.4271  -10.9270  -47.9060 C.3       3 UNK         0.1400 
     58 CB          2.4601   -9.7298  -48.8797 C.3       3 UNK        -0.1800 
     59 N           3.6599  -10.9955  -47.1152 N.am      3 UNK        -0.5000 
     60 C           4.1098  -10.1108  -46.2120 C.2       2 UNK         0.5000 
     61 O           3.5577   -9.0370  -45.9672 O.2       2 UNK        -0.5000 
     62 CA          5.3908  -10.5180  -45.4444 C.3       2 UNK         0.1400 
     63 CB          5.4976   -9.8335  -44.0658 C.3       2 UNK        -0.1800 
     64 N           5.5609  -11.9732  -45.3036 N.am      2 UNK        -0.5000 
     65 C           4.6931  -12.8299  -44.7393 C.2       1 UNK         0.5000 
     66 O           3.6118  -12.4906  -44.2595 O.2       1 UNK        -0.5000 
     67 C           0.7001  -23.0788  -48.2728 C.2       11 UNK         0.5000 
     68 O           0.9996  -24.2370  -48.5642 O.2       11 UNK        -0.5000 
     69 N          -0.4077  -22.4652  -48.7138 N.am      12 UNK        -0.5000 
     70 CA         -1.3821  -23.0641  -49.6287 C.3       12 UNK         0.1400 
     71 CB         -2.4246  -22.0112  -50.0203 C.3       12 UNK        -0.1800 
     72 C          -2.0573  -24.3317  -49.0715 C.2       12 UNK         0.5000 
     73 O          -2.3238  -25.2595  -49.8332 O.2       12 UNK        -0.5000 
     74 N          -2.2673  -24.3848  -47.7497 N.am      13 UNK        -0.5000 
     75 CA         -2.8113  -25.5296  -47.0164 C.3       13 UNK         0.1400 
     76 CB         -3.0037  -25.1438  -45.5422 C.3       13 UNK        -0.1800 
     77 C          -1.9778  -26.8229  -47.1308 C.2       13 UNK         0.5000 
     78 O          -2.5373  -27.9034  -46.9436 O.2       13 UNK        -0.5000 
     79 N          -0.6820  -26.7120  -47.4641 N.am      14 UNK        -0.5000 
     80 CA          0.1872  -27.8570  -47.7491 C.3       14 UNK         0.1400 
     81 CB          1.6567  -27.4113  -47.7219 C.3       14 UNK        -0.1800 
     82 C          -0.1523  -28.5338  -49.0925 C.2       14 UNK         0.5000 
     83 O          -0.0199  -29.7530  -49.2053 O.2       14 UNK        -0.5000 
     84 N          -0.6032  -27.7402  -50.0748 N.am      15 UNK        -0.5000 
     85 CA         -1.1295  -28.2201  -51.3555 C.3       15 UNK         0.1400 
     86 CB         -0.8918  -27.1461  -52.4288 C.3       15 UNK        -0.1800 
     87 C          -2.6278  -28.5754  -51.2653 C.2       15 UNK         0.5000 
     88 O          -3.0994  -29.3942  -52.0553 O.2       15 UNK        -0.5000 
     89 N          -3.3218  -27.9600  -50.2963 N.am      16 UNK        -0.5000 
     90 CA         -4.7537  -28.0132  -49.9911 C.3       16 UNK         0.1400 
     91 CB         -5.2705  -29.4626  -49.8750 C.3       16 UNK        -0.1800 
     92 C          -5.5961  -27.1624  -50.9613 C.2       16 UNK         0.5000 
     93 O          -5.0951  -26.6967  -51.9874 O.2       16 UNK        -0.5000 
     94 N          -6.8687  -26.9561  -50.5874 N.am      17 UNK        -0.5000 
     95 CA         -7.8649  -26.1177  -51.2674 C.3       17 UNK         0.1400 
     96 CB         -8.2406  -26.7079  -52.6433 C.3       17 UNK        -0.1800 
     97 C          -7.4320  -24.6374  -51.3350 C.2       17 UNK         0.5000 
     98 O          -7.4680  -24.0209  -52.4016 O.2       17 UNK        -0.5000 
     99 N          -7.0283  -24.0932  -50.1779 N.am      18 UNK        -0.5000 
    100 CA        -6.5139  -22.7324  -49.9797 C.3       18 UNK         0.1400 
    101 CB        -5.7373  -22.6971  -48.6495 C.3       18 UNK        -0.1800 
    102 C         -7.5984  -21.6295  -50.0544 C.2       18 UNK         0.5000 
    103 O         -7.6253  -20.7260  -49.2147 O.2       18 UNK        -0.5000 
    104 N         -8.4865  -21.7203  -51.0514 N.am      19 UNK        -0.5000 
    105 CA        -9.5129  -20.7306  -51.3656 C.3       19 UNK         0.1400 
    106 CB       -10.4908  -21.3244  -52.3916 C.3       19 UNK        -0.1800 
    107 C         -8.8546  -19.4445  -51.8929 C.2       19 UNK         0.5000 
    108 O         -8.1724  -19.4927  -52.9184 O.2       19 UNK        -0.5000 
    109 N         -9.0436  -18.3394  -51.1573 N.am      20 UNK        -0.5000 
    110 CA        -8.3728  -17.0451  -51.3364 C.3       20 UNK         0.1400 
    111 CB        -8.7920  -16.3751  -52.6624 C.3       20 UNK        -0.1800 
    112 C         -6.8413  -17.1566  -51.1644 C.2       20 UNK         0.5000 
    113 O         -6.0821  -16.5648  -51.9360 O.2       20 UNK        -0.5000 
    114 N         -6.4228  -17.9384  -50.1560 N.am      21 UNK        -0.5000 
    115 CA        -5.0396  -18.2800  -49.8197 C.3       21 UNK         0.1400 
    116 CB        -4.2842  -17.0407  -49.2880 C.3       21 UNK        -0.1800 
    117 C         -4.3505  -18.9957  -50.9990 C.2       21 UNK         0.5000 
    118 O         -4.7905  -20.0831  -51.3724 O.2       21 UNK        -0.5000 
    119 N         -3.3122  -18.3787  -51.5743 N.am      22 UNK        -0.5000 
    120 CA        -2.6251  -18.8581  -52.7848 C.3       22 UNK         0.1400 
    121 C         -3.4272  -18.6407  -54.1040 C.2       22 UNK         0.5000 
    122 N         -4.5347  -17.9069  -54.1109 N.am      22 UNK        -0.7600 
    123 O         -3.0353  -19.1536  -55.1486 O.2       22 UNK        -0.5000 
    124 C124       -1.1969  -18.2674  -52.9141 C.3       23 UNK        -0.0398 
    125 S125       -0.1456  -18.6091  -51.4646 S.3       23 UNK        -0.2404 
    126 C126        1.4087  -17.8275  -51.9919 C.3       23 UNK        -0.0205 
    127 H127        9.0632  -13.4749  -42.8108 H         1 UNK         0.0600 
    128 H128        9.0176  -14.7813  -43.9979 H         1 UNK         0.0600 
    129 H129        8.7890  -15.1390  -42.2840 H         1 UNK         0.0600 
    130 H130        7.1112  -14.8266  -45.1329 H         1 UNK         0.3000 
    131 H131        4.5279  -14.7697  -43.9024 H         1 UNK         0.0600 
    132 H132        5.5448  -14.9845  -46.7375 H         1 UNK         0.0800 
    133 H133        4.6975  -16.1647  -45.7858 H         1 UNK         0.0800 
    134 H134        3.0161  -14.0496  -49.1733 H         1 UNK         0.0800 
    135 H135        4.6610  -14.4532  -48.7769 H         1 UNK         0.0800 
    136 H136        1.9759  -15.5225  -50.6576 H         1 UNK         0.1150 
    137 H137        2.9406  -19.6944  -50.7315 H         1 UNK         0.1150 
    138 H138        4.8301  -17.1176  -47.8828 H         1 UNK         0.1150 
    139 H139        4.9035  -20.4672  -49.3971 H         1 UNK         0.0800 
    140 H140        5.6793  -19.3882  -48.2689 H         1 UNK         0.0800 
    141 H141        2.8080  -21.6692  -49.0602 H         1 UNK         0.0800 
    142 H142        1.7312  -20.4177  -48.4944 H         1 UNK         0.0800 
    143 H143        2.3432  -22.9658  -46.9139 H         1 UNK         0.0600 
    144 H144        0.7193  -20.6843  -46.2379 H         1 UNK         0.3000 
    145 H145       -1.4074  -22.4140  -43.9316 H         1 UNK         0.0600 
    146 H146       -0.6300  -20.6199  -42.4010 H         1 UNK         0.0600 
    147 H147        0.5846  -21.8790  -42.5607 H         1 UNK         0.0600 
    148 H148        0.7945  -20.3526  -43.4037 H         1 UNK         0.0600 
    149 H149       -1.3083  -19.6725  -44.6678 H         1 UNK         0.3000 
    150 H150       -3.3546  -19.9517  -47.6049 H         1 UNK         0.0600 
    151 H151       -4.9586  -19.9548  -45.6925 H         1 UNK         0.0600 
    152 H152       -4.7600  -18.3481  -46.3720 H         1 UNK         0.0600 
    153 H153       -3.9687  -18.7661  -44.8533 H         1 UNK         0.0600 
    154 H154       -2.2919  -17.6559  -46.3512 H         1 UNK         0.3000 
    155 H155        0.9288  -17.7099  -47.9907 H         1 UNK         0.0600 
    156 H156        0.1469  -15.4174  -48.4909 H         1 UNK         0.0600 
    157 H157       -1.5060  -15.8468  -48.0644 H         1 UNK         0.0600 
    158 H158       -0.7431  -16.5689  -49.4738 H         1 UNK         0.0600 
    159 H159       -0.1030  -15.9414  -46.0286 H         1 UNK         0.3000 
    160 H160        0.8880  -17.7867  -43.1197 H         1 UNK         0.0600 
    161 H161        1.9671  -15.6325  -42.6234 H         1 UNK         0.0600 
    162 H162        1.8252  -15.1275  -44.3048 H         1 UNK         0.0600 
    163 H163        2.8711  -16.4775  -43.8720 H         1 UNK         0.0600 
    164 H164       -0.5200  -15.2993  -43.6432 H         1 UNK         0.3000 
    165 H165       -3.7837  -16.7034  -43.2969 H         1 UNK         0.0600 
    166 H166       -3.9141  -15.0336  -41.4718 H         1 UNK         0.0600 
    167 H167       -2.9701  -16.4201  -40.9513 H         1 UNK         0.0600 
    168 H168       -2.1549  -14.9268  -41.4005 H         1 UNK         0.0600 
    169 H169       -2.8546  -14.0152  -43.5999 H         1 UNK         0.3000 
    170 H170       -2.7603  -13.9606  -47.1546 H         1 UNK         0.0600 
    171 H171       -5.1964  -13.7879  -46.6273 H         1 UNK         0.0600 
    172 H172       -4.8334  -12.7798  -45.2312 H         1 UNK         0.0600 
    173 H173       -4.4751  -12.2040  -46.8599 H         1 UNK         0.0600 
    174 H174       -2.5038  -11.8320  -45.3549 H         1 UNK         0.3000 
    175 H175       -0.5802  -10.8460  -44.9872 H         1 UNK         0.0600 
    176 H176        1.0729  -12.9339  -43.4689 H         1 UNK         0.0600 
    177 H177        1.0961  -11.1990  -43.1647 H         1 UNK         0.0600 
    178 H178       -0.3712  -12.1238  -42.8779 H         1 UNK         0.0600 
    179 H179        2.0817  -11.8769  -45.4949 H         1 UNK         0.3000 
    180 H180        2.4158  -11.8319  -48.5133 H         1 UNK         0.0600 
    181 H181        3.3810   -9.7204  -49.4628 H         1 UNK         0.0600 
    182 H182        2.3844   -8.7772  -48.3551 H         1 UNK         0.0600 
    183 H183        1.6319   -9.7775  -49.5875 H         1 UNK         0.0600 
    184 H184        4.1864  -11.8511  -47.2156 H         1 UNK         0.3000 
    185 H185        6.2275  -10.1690  -46.0512 H         1 UNK         0.0600 
    186 H186        6.4107  -10.1288  -43.5489 H         1 UNK         0.0600 
    187 H187        5.5201   -8.7478  -44.1662 H         1 UNK         0.0600 
    188 H188        4.6531  -10.0855  -43.4236 H         1 UNK         0.0600 
    189 H189        6.4266  -12.3480  -45.6653 H         1 UNK         0.3000 
    190 H190       -0.5711  -21.4967  -48.4472 H         1 UNK         0.3000 
    191 H191       -0.8439  -23.3561  -50.5327 H         1 UNK         0.0600 
    192 H192       -3.1490  -22.4173  -50.7273 H         1 UNK         0.0600 
    193 H193       -1.9549  -21.1484  -50.4928 H         1 UNK         0.0600 
    194 H194       -2.9750  -21.6542  -49.1519 H         1 UNK         0.0600 
    195 H195       -2.1012  -23.5427  -47.2042 H         1 UNK         0.3000 
    196 H196       -3.7945  -25.7453  -47.4388 H         1 UNK         0.0600 
    197 H197       -2.0624  -24.8454  -45.0801 H         1 UNK         0.0600 
    198 H198       -3.7061  -24.3167  -45.4397 H         1 UNK         0.0600 
    199 H199       -3.4038  -25.9786  -44.9653 H         1 UNK         0.0600 
    200 H200       -0.2860  -25.7908  -47.6104 H         1 UNK         0.3000 
    201 H201        0.0465  -28.5962  -46.9576 H         1 UNK         0.0600 
    202 H202        1.8861  -26.7256  -48.5378 H         1 UNK         0.0600 
    203 H203        2.3232  -28.2688  -47.8213 H         1 UNK         0.0600 
    204 H204        1.9032  -26.9132  -46.7840 H         1 UNK         0.0600 
    205 H205       -0.7141  -26.7515  -49.8890 H         1 UNK         0.3000 
    206 H206       -0.5896  -29.1210  -51.6547 H         1 UNK         0.0600 
    207 H207        0.1680  -26.9085  -52.5218 H         1 UNK         0.0600 
    208 H208       -1.2355  -27.4899  -53.4052 H         1 UNK         0.0600 
    209 H209       -1.4252  -26.2224  -52.2020 H         1 UNK         0.0600 
    210 H210       -2.8269  -27.2175  -49.8165 H         1 UNK         0.3000 
    211 H211       -4.8495  -27.5509  -49.0077 H         1 UNK         0.0600 
    212 H212       -6.2660  -29.4901  -49.4315 H         1 UNK         0.0600 
    213 H213       -4.6194  -30.0638  -49.2401 H         1 UNK         0.0600 
    214 H214       -5.3394  -29.9514  -50.8471 H         1 UNK         0.0600 
    215 H215       -7.1846  -27.3827  -49.7275 H         1 UNK         0.3000 
    216 H216       -8.7634  -26.1429  -50.6490 H         1 UNK         0.0600 
    217 H217       -9.0642  -26.1522  -53.0930 H         1 UNK         0.0600 
    218 H218       -7.4059  -26.6755  -53.3440 H         1 UNK         0.0600 
    219 H219       -8.5614  -27.7456  -52.5523 H         1 UNK         0.0600 
    220 H220       -7.0628  -24.6704  -49.3508 H         1 UNK         0.3000 
    221 H221       -5.8036  -22.5249  -50.7821 H         1 UNK         0.0600 
    222 H222       -4.9384  -23.4376  -48.6381 H         1 UNK         0.0600 
    223 H223       -6.3892  -22.8950  -47.7980 H         1 UNK         0.0600 
    224 H224       -5.2758  -21.7224  -48.4876 H         1 UNK         0.0600 
    225 H225       -8.3450  -22.4640  -51.7284 H         1 UNK         0.3000 
    226 H226      -10.0690  -20.5079  -50.4525 H         1 UNK         0.0600 
    227 H227       -9.9851  -21.6027  -53.3173 H         1 UNK         0.0600 
    228 H228      -10.9818  -22.2147  -51.9983 H         1 UNK         0.0600 
    229 H229      -11.2716  -20.6067  -52.6459 H         1 UNK         0.0600 
    230 H230       -9.6196  -18.4141  -50.3300 H         1 UNK         0.3000 
    231 H231       -8.7208  -16.4047  -50.5247 H         1 UNK         0.0600 
    232 H232       -8.4179  -16.9178  -53.5308 H         1 UNK         0.0600 
    233 H233       -8.4029  -15.3582  -52.7236 H         1 UNK         0.0600 
    234 H234       -9.8768  -16.3125  -52.7471 H         1 UNK         0.0600 
    235 H235       -7.1236  -18.4558  -49.6410 H         1 UNK         0.3000 
    236 H236       -5.0916  -19.0094  -49.0107 H         1 UNK         0.0600 
    237 H237       -3.2627  -17.2965  -49.0136 H         1 UNK         0.0600 
    238 H238       -4.2374  -16.2323  -50.0178 H         1 UNK         0.0600 
    239 H239       -4.7643  -16.6471  -48.3920 H         1 UNK         0.0600 
    240 H240       -3.0188  -17.4808  -51.2210 H         1 UNK         0.3000 
    241 H241       -2.5142  -19.9398  -52.6870 H         1 UNK         0.0600 
    242 H242       -5.0382  -17.7876  -54.9750 H         1 UNK         0.3800 
    243 H243       -4.8981  -17.4843  -53.2627 H         1 UNK         0.3800 
    244 H244       -1.2473  -17.1871  -53.0605 H         1 UNK         0.0800 
    245 H245       -0.6937  -18.6753  -53.7928 H         1 UNK         0.0800 
    246 H246        1.8841  -18.4466  -52.7540 H         1 UNK         0.0800 
    247 H247        1.1918  -16.8683  -52.4645 H         1 UNK         0.0800 
@<TRIPOS>BOND
     1    1    2 1    
     2    1  127 1    
     3    1  128 1    
     4    1  129 1    
     5    2    3 2    
     6    2    4 am   BACKBONE|DICT|INTERRES
     7    4    5 1    
     8    4  130 1    
     9    5    6 1    
    10    5   65 1    
    11    5  131 1    
    12    6    7 1    
    13    6  132 1    
    14    6  133 1    
    15    7    8 1    
    16    8    9 1    
    17    8  134 1    
    18    8  135 1    
    19    9   10 ar   
    20    9   14 ar   
    21   10   11 ar   
    22   10  136 1    
    23   11   12 ar   
    24   11  126 1    
    25   12   13 ar   
    26   12  137 1    
    27   13   14 ar   
    28   13   15 1    
    29   14  138 1    
    30   15   16 1    
    31   15  139 1    
    32   15  140 1    
    33   16   17 1    
    34   17   18 1    
    35   17  141 1    
    36   17  142 1    
    37   18   19 1    
    38   18   67 1    
    39   18  143 1    
    40   19   20 am   BACKBONE|DICT|INTERRES
    41   19  144 1    
    42   20   21 2    
    43   20   22 1    
    44   22   23 1    
    45   22   24 1    
    46   22  145 1    
    47   23  146 1    
    48   23  147 1    
    49   23  148 1    
    50   24   25 am   BACKBONE|DICT|INTERRES
    51   24  149 1    
    52   25   26 2    
    53   25   27 1    
    54   27   28 1    
    55   27   29 1    
    56   27  150 1    
    57   28  151 1    
    58   28  152 1    
    59   28  153 1    
    60   29   30 am   BACKBONE|DICT|INTERRES
    61   29  154 1    
    62   30   31 2    
    63   30   32 1    
    64   32   33 1    
    65   32   34 1    
    66   32  155 1    
    67   33  156 1    
    68   33  157 1    
    69   33  158 1    
    70   34   35 am   BACKBONE|DICT|INTERRES
    71   34  159 1    
    72   35   36 2    
    73   35   37 1    
    74   37   38 1    
    75   37   39 1    
    76   37  160 1    
    77   38  161 1    
    78   38  162 1    
    79   38  163 1    
    80   39   40 am   BACKBONE|DICT|INTERRES
    81   39  164 1    
    82   40   41 2    
    83   40   42 1    
    84   42   43 1    
    85   42   44 1    
    86   42  165 1    
    87   43  166 1    
    88   43  167 1    
    89   43  168 1    
    90   44   45 am   BACKBONE|DICT|INTERRES
    91   44  169 1    
    92   45   46 2    
    93   45   47 1    
    94   47   48 1    
    95   47   49 1    
    96   47  170 1    
    97   48  171 1    
    98   48  172 1    
    99   48  173 1    
   100   49   50 am   BACKBONE|DICT|INTERRES
   101   49  174 1    
   102   50   51 2    
   103   50   52 1    
   104   52   53 1    
   105   52   54 1    
   106   52  175 1    
   107   53  176 1    
   108   53  177 1    
   109   53  178 1    
   110   54   55 am   BACKBONE|DICT|INTERRES
   111   54  179 1    
   112   55   56 2    
   113   55   57 1    
   114   57   58 1    
   115   57   59 1    
   116   57  180 1    
   117   58  181 1    
   118   58  182 1    
   119   58  183 1    
   120   59   60 am   BACKBONE|DICT|INTERRES
   121   59  184 1    
   122   60   61 2    
   123   60   62 1    
   124   62   63 1    
   125   62   64 1    
   126   62  185 1    
   127   63  186 1    
   128   63  187 1    
   129   63  188 1    
   130   64   65 am   BACKBONE|DICT|INTERRES
   131   64  189 1    
   132   65   66 2    
   133   67   68 2    
   134   67   69 am   BACKBONE|DICT|INTERRES
   135   69   70 1    
   136   69  190 1    
   137   70   71 1    
   138   70   72 1    
   139   70  191 1    
   140   71  192 1    
   141   71  193 1    
   142   71  194 1    
   143   72   73 2    
   144   72   74 am   BACKBONE|DICT|INTERRES
   145   74   75 1    
   146   74  195 1    
   147   75   76 1    
   148   75   77 1    
   149   75  196 1    
   150   76  197 1    
   151   76  198 1    
   152   76  199 1    
   153   77   78 2    
   154   77   79 am   BACKBONE|DICT|INTERRES
   155   79   80 1    
   156   79  200 1    
   157   80   81 1    
   158   80   82 1    
   159   80  201 1    
   160   81  202 1    
   161   81  203 1    
   162   81  204 1    
   163   82   83 2    
   164   82   84 am   BACKBONE|DICT|INTERRES
   165   84   85 1    
   166   84  205 1    
   167   85   86 1    
   168   85   87 1    
   169   85  206 1    
   170   86  207 1    
   171   86  208 1    
   172   86  209 1    
   173   87   88 2    
   174   87   89 am   BACKBONE|DICT|INTERRES
   175   89   90 1    
   176   89  210 1    
   177   90   91 1    
   178   90   92 1    
   179   90  211 1    
   180   91  212 1    
   181   91  213 1    
   182   91  214 1    
   183   92   93 2    
   184   92   94 am   BACKBONE|DICT|INTERRES
   185   94   95 1    
   186   94  215 1    
   187   95   96 1    
   188   95   97 1    
   189   95  216 1    
   190   96  217 1    
   191   96  218 1    
   192   96  219 1    
   193   97   98 2    
   194   97   99 am   BACKBONE|DICT|INTERRES
   195   99  100 1    
   196   99  220 1    
   197  100  101 1    
   198  100  102 1    
   199  100  221 1    
   200  101  222 1    
   201  101  223 1    
   202  101  224 1    
   203  102  103 2    
   204  102  104 am   BACKBONE|DICT|INTERRES
   205  104  105 1    
   206  104  225 1    
   207  105  106 1    
   208  105  107 1    
   209  105  226 1    
   210  106  227 1    
   211  106  228 1    
   212  106  229 1    
   213  107  108 2    
   214  107  109 am   BACKBONE|DICT|INTERRES
   215  109  110 1    
   216  109  230 1    
   217  110  111 1    
   218  110  112 1    
   219  110  231 1    
   220  111  232 1    
   221  111  233 1    
   222  111  234 1    
   223  112  113 2    
   224  112  114 am   BACKBONE|DICT|INTERRES
   225  114  115 1    
   226  114  235 1    
   227  115  116 1    
   228  115  117 1    
   229  115  236 1    
   230  116  237 1    
   231  116  238 1    
   232  116  239 1    
   233  117  118 2    
   234  117  119 am   BACKBONE|DICT|INTERRES
   235  119  120 1    
   236  119  240 1    
   237  120  121 1    
   238  120  124 1    
   239  120  241 1    
   240  121  122 am   BACKBONE|DICT|INTERRES
   241  121  123 2    
   242  122  242 1    
   243  122  243 1    
   244  124  125 1    
   245  124  244 1    
   246  124  245 1    
   247  125  126 1    
   248  126  246 1    
   249  126  247 1    
@<TRIPOS>SUBSTRUCTURE
     1 UNK         1 GROUP             0       ****    0 ROOT    
