@<TRIPOS>MOLECULE
3R540
247   249    1
SMALL
USER_CHARGES


@<TRIPOS>ATOM
      1 CA          3.9792   -9.2143  -48.6471 C.3       0 UNK        -0.1800 
      2 C           4.2970  -10.3839  -47.7175 C.2       0 UNK         0.5000 
      3 O           5.4058  -10.4448  -47.1916 O.2       0 UNK        -0.5000 
      4 N           3.3828  -11.3368  -47.4812 N.am      1 UNK        -0.5000 
      5 CA          2.0102  -11.4477  -47.9927 C.3       1 UNK         0.1400 
      6 C6          1.9279  -11.6283  -49.5336 C.3       23 UNK        -0.0398 
      7 S7          0.5703  -12.7449  -50.0232 S.3       23 UNK        -0.2404 
      8 C8          1.4158  -14.3534  -49.9627 C.3       23 UNK        -0.0205 
      9 C9          0.4495  -15.4876  -50.2610 C.ar      23 UNK        -0.0193 
     10 C10         0.2149  -15.8812  -51.5809 C.ar      23 UNK        -0.1150 
     11 C11        -0.6775  -16.9189  -51.8660 C.ar      23 UNK        -0.0193 
     12 C12        -1.3272  -17.5762  -50.8158 C.ar      23 UNK        -0.1150 
     13 C13        -1.0954  -17.1942  -49.4899 C.ar      23 UNK        -0.0193 
     14 C14        -0.2106  -16.1457  -49.2197 C.ar      23 UNK        -0.1150 
     15 C15        -1.7979  -17.9066  -48.3446 C.3       23 UNK        -0.0205 
     16 S16        -0.6829  -19.0905  -47.5315 S.3       23 UNK        -0.2404 
     17 C17        -1.7525  -19.7473  -46.2071 C.3       23 UNK        -0.0398 
     18 CA         -2.1436  -21.2221  -46.4567 C.3       11 UNK         0.1400 
     19 N          -0.9762  -22.1028  -46.5876 N.am      11 UNK        -0.5000 
     20 C          -1.0153  -23.3870  -46.9665 C.2       10 UNK         0.5000 
     21 O          -2.0551  -23.9882  -47.2287 O.2       10 UNK        -0.5000 
     22 CA          0.3258  -24.1345  -47.0226 C.3       10 UNK         0.1400 
     23 CB          1.1114  -23.7426  -48.2831 C.3       10 UNK        -0.1800 
     24 N           1.1353  -23.8820  -45.8309 N.am      10 UNK        -0.5000 
     25 C           0.8214  -24.3195  -44.6023 C.2       9 UNK         0.5000 
     26 O          -0.1402  -25.0484  -44.3601 O.2       9 UNK        -0.5000 
     27 CA          1.7054  -23.8199  -43.4433 C.3       9 UNK         0.1400 
     28 CB          2.9155  -24.7455  -43.2485 C.3       9 UNK        -0.1800 
     29 N           2.1710  -22.4396  -43.6179 N.am      9 UNK        -0.5000 
     30 C           1.3654  -21.3733  -43.7009 C.2       8 UNK         0.5000 
     31 O           0.1328  -21.4406  -43.6565 O.2       8 UNK        -0.5000 
     32 CA          2.0408  -20.0115  -43.9087 C.3       8 UNK         0.1400 
     33 CB          2.5365  -19.8691  -45.3610 C.3       8 UNK        -0.1800 
     34 N           1.0560  -18.9834  -43.5924 N.am      8 UNK        -0.5000 
     35 C           1.2826  -17.6789  -43.4268 C.2       7 UNK         0.5000 
     36 O           2.3912  -17.1502  -43.5413 O.2       7 UNK        -0.5000 
     37 CA          0.0616  -16.8374  -43.0187 C.3       7 UNK         0.1400 
     38 CB         -0.0843  -16.8032  -41.4894 C.3       7 UNK        -0.1800 
     39 N           0.1946  -15.4705  -43.5116 N.am      7 UNK        -0.5000 
     40 C          -0.2019  -15.0600  -44.7238 C.2       6 UNK         0.5000 
     41 O          -0.8073  -15.7771  -45.5200 O.2       6 UNK        -0.5000 
     42 CA          0.1225  -13.6072  -45.1221 C.3       6 UNK         0.1400 
     43 CB         -1.1325  -12.7263  -45.0335 C.3       6 UNK        -0.1800 
     44 N           1.1849  -13.0278  -44.2958 N.am      6 UNK        -0.5000 
     45 C           2.4942  -13.2304  -44.5082 C.2       5 UNK         0.5000 
     46 O           2.9354  -13.7638  -45.5264 O.2       5 UNK        -0.5000 
     47 CA          3.4872  -12.7575  -43.4270 C.3       5 UNK         0.1400 
     48 CB          4.4842  -11.7322  -43.9914 C.3       5 UNK        -0.1800 
     49 N           2.8325  -12.1965  -42.2434 N.am      5 UNK        -0.5000 
     50 C           2.3278  -12.9271  -41.2386 C.2       4 UNK         0.5000 
     51 O           2.3564  -14.1569  -41.2165 O.2       4 UNK        -0.5000 
     52 CA          1.6476  -12.1697  -40.0798 C.3       4 UNK         0.1400 
     53 CB          2.6331  -11.9692  -38.9188 C.3       4 UNK        -0.1800 
     54 N           1.0963  -10.8693  -40.4674 N.am      4 UNK        -0.5000 
     55 C           0.0948  -10.6933  -41.3391 C.2       3 UNK         0.5000 
     56 O          -0.4852  -11.6272  -41.8956 O.2       3 UNK        -0.5000 
     57 CA         -0.3050   -9.2426  -41.6911 C.3       3 UNK         0.1400 
     58 CB          0.5223   -8.1601  -40.9609 C.3       3 UNK        -0.1800 
     59 N          -0.2726   -9.0119  -43.1402 N.am      3 UNK        -0.5000 
     60 C           0.7700   -9.2227  -43.9551 C.2       2 UNK         0.5000 
     61 O           1.8773   -9.6137  -43.5763 O.2       2 UNK        -0.5000 
     62 CA          0.5413   -8.9525  -45.4460 C.3       2 UNK         0.1400 
     63 CB          0.9427   -7.5156  -45.8182 C.3       2 UNK        -0.1800 
     64 N           1.3454   -9.9024  -46.2043 N.am      2 UNK        -0.5000 
     65 C           1.0472  -10.3820  -47.4162 C.2       1 UNK         0.5000 
     66 O           0.0662  -10.0133  -48.0625 O.2       1 UNK        -0.5000 
     67 C          -3.1226  -21.7308  -45.3800 C.2       11 UNK         0.5000 
     68 O          -4.3304  -21.7469  -45.6191 O.2       11 UNK        -0.5000 
     69 N          -2.5763  -22.2102  -44.2530 N.am      12 UNK        -0.5000 
     70 CA         -3.3079  -22.8654  -43.1658 C.3       12 UNK         0.1400 
     71 CB         -2.3485  -23.0960  -41.9887 C.3       12 UNK        -0.1800 
     72 C          -3.9818  -24.1899  -43.5822 C.2       12 UNK         0.5000 
     73 O          -4.9966  -24.5624  -42.9935 O.2       12 UNK        -0.5000 
     74 N          -3.4382  -24.8524  -44.6115 N.am      13 UNK        -0.5000 
     75 CA         -3.9772  -26.0585  -45.2408 C.3       13 UNK         0.1400 
     76 CB         -2.8057  -26.9778  -45.6324 C.3       13 UNK        -0.1800 
     77 C          -4.8810  -25.7222  -46.4477 C.2       13 UNK         0.5000 
     78 O          -4.9466  -26.5058  -47.3961 O.2       13 UNK        -0.5000 
     79 N          -5.5498  -24.5591  -46.4055 N.am      14 UNK        -0.5000 
     80 CA         -6.4609  -24.0174  -47.4206 C.3       14 UNK         0.1400 
     81 CB         -7.7334  -24.8838  -47.5311 C.3       14 UNK        -0.1800 
     82 C          -5.7629  -23.7959  -48.7769 C.2       14 UNK         0.5000 
     83 O          -6.2808  -24.2037  -49.8175 O.2       14 UNK        -0.5000 
     84 N          -4.5704  -23.1857  -48.7227 N.am      15 UNK        -0.5000 
     85 CA         -3.6460  -22.9578  -49.8397 C.3       15 UNK         0.1400 
     86 CB         -4.2261  -21.9336  -50.8336 C.3       15 UNK        -0.1800 
     87 C          -3.2191  -24.2835  -50.5004 C.2       15 UNK         0.5000 
     88 O          -3.3002  -24.4259  -51.7207 O.2       15 UNK        -0.5000 
     89 N          -2.8084  -25.2382  -49.6534 N.am      16 UNK        -0.5000 
     90 CA         -2.4363  -26.6203  -49.9673 C.3       16 UNK         0.1400 
     91 CB         -1.1007  -26.6505  -50.7391 C.3       16 UNK        -0.1800 
     92 C          -3.5699  -27.3727  -50.6940 C.2       16 UNK         0.5000 
     93 O          -3.3489  -27.9388  -51.7641 O.2       16 UNK        -0.5000 
     94 N          -4.7825  -27.3107  -50.1240 N.am      17 UNK        -0.5000 
     95 CA         -6.0460  -27.7980  -50.6933 C.3       17 UNK         0.1400 
     96 CB         -6.0806  -29.3401  -50.6975 C.3       17 UNK        -0.1800 
     97 C          -6.3385  -27.1784  -52.0792 C.2       17 UNK         0.5000 
     98 O          -6.6966  -27.8858  -53.0224 O.2       17 UNK        -0.5000 
     99 N          -6.1305  -25.8584  -52.1656 N.am      18 UNK        -0.5000 
    100 CA        -6.2260  -24.9834  -53.3356 C.3       18 UNK         0.1400 
    101 CB        -7.6612  -24.9664  -53.8992 C.3       18 UNK        -0.1800 
    102 C         -5.1691  -25.2241  -54.4372 C.2       18 UNK         0.5000 
    103 O         -5.2463  -24.5729  -55.4800 O.2       18 UNK        -0.5000 
    104 N         -4.1828  -26.1052  -54.2117 N.am      19 UNK        -0.5000 
    105 CA        -3.1080  -26.3872  -55.1692 C.3       19 UNK         0.1400 
    106 CB        -2.4259  -27.7147  -54.8086 C.3       19 UNK        -0.1800 
    107 C         -2.0619  -25.2591  -55.2618 C.2       19 UNK         0.5000 
    108 O         -1.4133  -25.1273  -56.3005 O.2       19 UNK        -0.5000 
    109 N         -1.9180  -24.4700  -54.1899 N.am      20 UNK        -0.5000 
    110 CA        -0.9957  -23.3390  -54.0812 C.3       20 UNK         0.1400 
    111 CB        -0.1020  -23.5460  -52.8442 C.3       20 UNK        -0.1800 
    112 C         -1.7494  -21.9952  -54.0212 C.2       20 UNK         0.5000 
    113 O         -1.1615  -20.9903  -53.6187 O.2       20 UNK        -0.5000 
    114 N         -3.0348  -21.9886  -54.4045 N.am      21 UNK        -0.5000 
    115 CA        -3.8790  -20.7952  -54.4696 C.3       21 UNK         0.1400 
    116 CB        -5.3403  -21.2233  -54.6708 C.3       21 UNK        -0.1800 
    117 C         -3.4396  -19.8259  -55.5831 C.2       21 UNK         0.5000 
    118 O         -2.8709  -20.2540  -56.5911 O.2       21 UNK        -0.5000 
    119 N         -3.7368  -18.5396  -55.3813 N.am      22 UNK        -0.5000 
    120 CA        -3.3619  -17.4325  -56.2752 C.3       22 UNK         0.1400 
    121 C         -4.4990  -16.3923  -56.4995 C.2       22 UNK         0.5000 
    122 N         -5.7323  -16.6546  -56.0818 N.am      22 UNK        -0.7600 
    123 O         -4.2713  -15.3380  -57.0870 O.2       22 UNK        -0.5000 
    124 C124       -2.0082  -16.7948  -55.8597 C.3       23 UNK        -0.0398 
    125 S125       -1.9947  -16.1204  -54.1592 S.3       23 UNK        -0.2404 
    126 C126       -0.9280  -17.3258  -53.3099 C.3       23 UNK        -0.0205 
    127 H127        4.7784   -8.4739  -48.6073 H         1 UNK         0.0600 
    128 H128        3.0575   -8.7081  -48.3654 H         1 UNK         0.0600 
    129 H129        3.8987   -9.5533  -49.6792 H         1 UNK         0.0600 
    130 H130        3.6473  -12.1024  -46.8733 H         1 UNK         0.3000 
    131 H131        1.6691  -12.3817  -47.5508 H         1 UNK         0.0600 
    132 H132        2.8598  -12.0422  -49.9214 H         1 UNK         0.0800 
    133 H133        1.7962  -10.6720  -50.0420 H         1 UNK         0.0800 
    134 H134        1.8660  -14.4947  -48.9786 H         1 UNK         0.0800 
    135 H135        2.2354  -14.3632  -50.6830 H         1 UNK         0.0800 
    136 H136        0.7175  -15.3705  -52.3905 H         1 UNK         0.1150 
    137 H137       -2.0116  -18.3851  -51.0305 H         1 UNK         0.1150 
    138 H138       -0.0332  -15.8480  -48.1953 H         1 UNK         0.1150 
    139 H139       -2.1417  -17.1710  -47.6155 H         1 UNK         0.0800 
    140 H140       -2.6849  -18.4303  -48.7046 H         1 UNK         0.0800 
    141 H141       -2.6437  -19.1230  -46.1203 H         1 UNK         0.0800 
    142 H142       -1.2202  -19.6449  -45.2615 H         1 UNK         0.0800 
    143 H143       -2.6784  -21.2554  -47.4071 H         1 UNK         0.0600 
    144 H144       -0.0836  -21.6893  -46.3664 H         1 UNK         0.3000 
    145 H145        0.1105  -25.2041  -47.0742 H         1 UNK         0.0600 
    146 H146        1.3910  -22.6883  -48.2766 H         1 UNK         0.0600 
    147 H147        2.0243  -24.3310  -48.3760 H         1 UNK         0.0600 
    148 H148        0.5195  -23.9188  -49.1825 H         1 UNK         0.0600 
    149 H149        1.9488  -23.2952  -45.9409 H         1 UNK         0.3000 
    150 H150        1.1013  -23.8534  -42.5341 H         1 UNK         0.0600 
    151 H151        2.5968  -25.7776  -43.0961 H         1 UNK         0.0600 
    152 H152        3.4980  -24.4548  -42.3740 H         1 UNK         0.0600 
    153 H153        3.5784  -24.7310  -44.1146 H         1 UNK         0.0600 
    154 H154        3.1708  -22.3053  -43.6674 H         1 UNK         0.3000 
    155 H155        2.8802  -19.9249  -43.2160 H         1 UNK         0.0600 
    156 H156        3.2796  -20.6304  -45.6000 H         1 UNK         0.0600 
    157 H157        3.0069  -18.9012  -45.5328 H         1 UNK         0.0600 
    158 H158        1.7208  -19.9728  -46.0756 H         1 UNK         0.0600 
    159 H159        0.1316  -19.3642  -43.4306 H         1 UNK         0.3000 
    160 H160       -0.8391  -17.2907  -43.4390 H         1 UNK         0.0600 
    161 H161       -0.9402  -16.1992  -41.1878 H         1 UNK         0.0600 
    162 H162        0.8033  -16.3907  -41.0083 H         1 UNK         0.0600 
    163 H163       -0.2369  -17.8062  -41.0890 H         1 UNK         0.0600 
    164 H164        0.7519  -14.8478  -42.9435 H         1 UNK         0.3000 
    165 H165        0.4405  -13.6291  -46.1646 H         1 UNK         0.0600 
    166 H166       -1.5597  -12.7317  -44.0307 H         1 UNK         0.0600 
    167 H167       -0.9149  -11.6932  -45.3015 H         1 UNK         0.0600 
    168 H168       -1.9043  -13.0826  -45.7170 H         1 UNK         0.0600 
    169 H169        0.8914  -12.5539  -43.4502 H         1 UNK         0.3000 
    170 H170        4.0607  -13.6358  -43.1229 H         1 UNK         0.0600 
    171 H171        3.9861  -10.8485  -44.3874 H         1 UNK         0.0600 
    172 H172        5.1885  -11.4047  -43.2267 H         1 UNK         0.0600 
    173 H173        5.0708  -12.1644  -44.8030 H         1 UNK         0.0600 
    174 H174        2.7072  -11.1910  -42.2364 H         1 UNK         0.3000 
    175 H175        0.8227  -12.7908  -39.7243 H         1 UNK         0.0600 
    176 H176        3.4715  -11.3342  -39.2079 H         1 UNK         0.0600 
    177 H177        2.1435  -11.5103  -38.0596 H         1 UNK         0.0600 
    178 H178        3.0437  -12.9234  -38.5855 H         1 UNK         0.0600 
    179 H179        1.5377  -10.0533  -40.0691 H         1 UNK         0.3000 
    180 H180       -1.3447   -9.1317  -41.3802 H         1 UNK         0.0600 
    181 H181        1.5822   -8.2100  -41.2134 H         1 UNK         0.0600 
    182 H182        0.4291   -8.2526  -39.8781 H         1 UNK         0.0600 
    183 H183        0.1710   -7.1623  -41.2240 H         1 UNK         0.0600 
    184 H184       -1.1482   -8.7152  -43.5476 H         1 UNK         0.3000 
    185 H185       -0.5167   -9.1059  -45.6694 H         1 UNK         0.0600 
    186 H186        0.7656   -7.3173  -46.8754 H         1 UNK         0.0600 
    187 H187        0.3635   -6.7876  -45.2490 H         1 UNK         0.0600 
    188 H188        1.9981   -7.3293  -45.6150 H         1 UNK         0.0600 
    189 H189        2.1531  -10.2539  -45.7067 H         1 UNK         0.3000 
    190 H190       -1.5710  -22.1209  -44.1262 H         1 UNK         0.3000 
    191 H191       -4.0963  -22.1849  -42.8377 H         1 UNK         0.0600 
    192 H192       -1.5280  -23.7589  -42.2649 H         1 UNK         0.0600 
    193 H193       -1.9168  -22.1570  -41.6415 H         1 UNK         0.0600 
    194 H194       -2.8673  -23.5487  -41.1429 H         1 UNK         0.0600 
    195 H195       -2.6156  -24.4625  -45.0529 H         1 UNK         0.3000 
    196 H196       -4.5965  -26.5996  -44.5230 H         1 UNK         0.0600 
    197 H197       -2.1773  -27.2018  -44.7702 H         1 UNK         0.0600 
    198 H198       -2.1727  -26.5242  -46.3950 H         1 UNK         0.0600 
    199 H199       -3.1648  -27.9293  -46.0260 H         1 UNK         0.0600 
    200 H200       -5.3892  -23.9596  -45.6075 H         1 UNK         0.3000 
    201 H201       -6.7631  -23.0302  -47.0681 H         1 UNK         0.0600 
    202 H202       -8.4617  -24.4229  -48.1994 H         1 UNK         0.0600 
    203 H203       -8.2144  -25.0027  -46.5604 H         1 UNK         0.0600 
    204 H204       -7.5170  -25.8784  -47.9221 H         1 UNK         0.0600 
    205 H205       -4.2112  -22.9623  -47.8045 H         1 UNK         0.3000 
    206 H206       -2.7392  -22.5213  -49.4213 H         1 UNK         0.0600 
    207 H207       -5.0962  -22.3220  -51.3626 H         1 UNK         0.0600 
    208 H208       -3.4792  -21.6640  -51.5785 H         1 UNK         0.0600 
    209 H209       -4.5225  -21.0155  -50.3268 H         1 UNK         0.0600 
    210 H210       -2.7641  -24.9853  -48.6698 H         1 UNK         0.3000 
    211 H211       -2.2851  -27.1281  -49.0138 H         1 UNK         0.0600 
    212 H212       -0.3173  -26.1254  -50.1931 H         1 UNK         0.0600 
    213 H213       -0.7609  -27.6756  -50.8899 H         1 UNK         0.0600 
    214 H214       -1.1908  -26.1893  -51.7228 H         1 UNK         0.0600 
    215 H215       -4.8598  -26.8517  -49.2179 H         1 UNK         0.3000 
    216 H216       -6.8368  -27.4495  -50.0275 H         1 UNK         0.0600 
    217 H217       -7.0570  -29.7075  -51.0149 H         1 UNK         0.0600 
    218 H218       -5.3367  -29.7611  -51.3746 H         1 UNK         0.0600 
    219 H219       -5.8918  -29.7399  -49.7013 H         1 UNK         0.0600 
    220 H220       -5.8755  -25.3733  -51.3089 H         1 UNK         0.3000 
    221 H221       -6.0191  -23.9857  -52.9497 H         1 UNK         0.0600 
    222 H222       -7.9257  -25.9161  -54.3647 H         1 UNK         0.0600 
    223 H223       -8.3900  -24.7604  -53.1153 H         1 UNK         0.0600 
    224 H224       -7.7751  -24.1902  -54.6569 H         1 UNK         0.0600 
    225 H225       -4.1436  -26.5908  -53.3231 H         1 UNK         0.3000 
    226 H226       -3.5576  -26.5030  -56.1577 H         1 UNK         0.0600 
    227 H227       -3.1536  -28.5180  -54.6917 H         1 UNK         0.0600 
    228 H228       -1.7285  -28.0169  -55.5907 H         1 UNK         0.0600 
    229 H229       -1.8573  -27.6356  -53.8817 H         1 UNK         0.0600 
    230 H230       -2.5103  -24.6270  -53.3753 H         1 UNK         0.3000 
    231 H231       -0.3467  -23.2912  -54.9574 H         1 UNK         0.0600 
    232 H232        0.6602  -22.7692  -52.7750 H         1 UNK         0.0600 
    233 H233        0.4175  -24.5032  -52.8894 H         1 UNK         0.0600 
    234 H234       -0.6785  -23.5212  -51.9197 H         1 UNK         0.0600 
    235 H235       -3.4326  -22.8467  -54.7583 H         1 UNK         0.3000 
    236 H236       -3.8006  -20.2726  -53.5142 H         1 UNK         0.0600 
    237 H237       -5.6850  -21.8453  -53.8463 H         1 UNK         0.0600 
    238 H238       -6.0022  -20.3578  -54.7175 H         1 UNK         0.0600 
    239 H239       -5.4708  -21.7858  -55.5962 H         1 UNK         0.0600 
    240 H240       -4.1969  -18.2623  -54.5260 H         1 UNK         0.3000 
    241 H241       -3.2140  -17.8443  -57.2751 H         1 UNK         0.0600 
    242 H242       -6.4595  -15.9748  -56.2420 H         1 UNK         0.3800 
    243 H243       -5.9627  -17.5354  -55.6516 H         1 UNK         0.3800 
    244 H244       -1.2167  -17.5387  -55.9585 H         1 UNK         0.0800 
    245 H245       -1.7341  -15.9941  -56.5483 H         1 UNK         0.0800 
    246 H246        0.0261  -17.4054  -53.8331 H         1 UNK         0.0800 
    247 H247       -1.3912  -18.3122  -53.3562 H         1 UNK         0.0800 
@<TRIPOS>BOND
     1    1    2 1    
     2    1  127 1    
     3    1  128 1    
     4    1  129 1    
     5    2    3 2    
     6    2    4 am   BACKBONE|DICT|INTERRES
     7    4    5 1    
     8    4  130 1    
     9    5    6 1    
    10    5   65 1    
    11    5  131 1    
    12    6    7 1    
    13    6  132 1    
    14    6  133 1    
    15    7    8 1    
    16    8    9 1    
    17    8  134 1    
    18    8  135 1    
    19    9   10 ar   
    20    9   14 ar   
    21   10   11 ar   
    22   10  136 1    
    23   11   12 ar   
    24   11  126 1    
    25   12   13 ar   
    26   12  137 1    
    27   13   14 ar   
    28   13   15 1    
    29   14  138 1    
    30   15   16 1    
    31   15  139 1    
    32   15  140 1    
    33   16   17 1    
    34   17   18 1    
    35   17  141 1    
    36   17  142 1    
    37   18   19 1    
    38   18   67 1    
    39   18  143 1    
    40   19   20 am   BACKBONE|DICT|INTERRES
    41   19  144 1    
    42   20   21 2    
    43   20   22 1    
    44   22   23 1    
    45   22   24 1    
    46   22  145 1    
    47   23  146 1    
    48   23  147 1    
    49   23  148 1    
    50   24   25 am   BACKBONE|DICT|INTERRES
    51   24  149 1    
    52   25   26 2    
    53   25   27 1    
    54   27   28 1    
    55   27   29 1    
    56   27  150 1    
    57   28  151 1    
    58   28  152 1    
    59   28  153 1    
    60   29   30 am   BACKBONE|DICT|INTERRES
    61   29  154 1    
    62   30   31 2    
    63   30   32 1    
    64   32   33 1    
    65   32   34 1    
    66   32  155 1    
    67   33  156 1    
    68   33  157 1    
    69   33  158 1    
    70   34   35 am   BACKBONE|DICT|INTERRES
    71   34  159 1    
    72   35   36 2    
    73   35   37 1    
    74   37   38 1    
    75   37   39 1    
    76   37  160 1    
    77   38  161 1    
    78   38  162 1    
    79   38  163 1    
    80   39   40 am   BACKBONE|DICT|INTERRES
    81   39  164 1    
    82   40   41 2    
    83   40   42 1    
    84   42   43 1    
    85   42   44 1    
    86   42  165 1    
    87   43  166 1    
    88   43  167 1    
    89   43  168 1    
    90   44   45 am   BACKBONE|DICT|INTERRES
    91   44  169 1    
    92   45   46 2    
    93   45   47 1    
    94   47   48 1    
    95   47   49 1    
    96   47  170 1    
    97   48  171 1    
    98   48  172 1    
    99   48  173 1    
   100   49   50 am   BACKBONE|DICT|INTERRES
   101   49  174 1    
   102   50   51 2    
   103   50   52 1    
   104   52   53 1    
   105   52   54 1    
   106   52  175 1    
   107   53  176 1    
   108   53  177 1    
   109   53  178 1    
   110   54   55 am   BACKBONE|DICT|INTERRES
   111   54  179 1    
   112   55   56 2    
   113   55   57 1    
   114   57   58 1    
   115   57   59 1    
   116   57  180 1    
   117   58  181 1    
   118   58  182 1    
   119   58  183 1    
   120   59   60 am   BACKBONE|DICT|INTERRES
   121   59  184 1    
   122   60   61 2    
   123   60   62 1    
   124   62   63 1    
   125   62   64 1    
   126   62  185 1    
   127   63  186 1    
   128   63  187 1    
   129   63  188 1    
   130   64   65 am   BACKBONE|DICT|INTERRES
   131   64  189 1    
   132   65   66 2    
   133   67   68 2    
   134   67   69 am   BACKBONE|DICT|INTERRES
   135   69   70 1    
   136   69  190 1    
   137   70   71 1    
   138   70   72 1    
   139   70  191 1    
   140   71  192 1    
   141   71  193 1    
   142   71  194 1    
   143   72   73 2    
   144   72   74 am   BACKBONE|DICT|INTERRES
   145   74   75 1    
   146   74  195 1    
   147   75   76 1    
   148   75   77 1    
   149   75  196 1    
   150   76  197 1    
   151   76  198 1    
   152   76  199 1    
   153   77   78 2    
   154   77   79 am   BACKBONE|DICT|INTERRES
   155   79   80 1    
   156   79  200 1    
   157   80   81 1    
   158   80   82 1    
   159   80  201 1    
   160   81  202 1    
   161   81  203 1    
   162   81  204 1    
   163   82   83 2    
   164   82   84 am   BACKBONE|DICT|INTERRES
   165   84   85 1    
   166   84  205 1    
   167   85   86 1    
   168   85   87 1    
   169   85  206 1    
   170   86  207 1    
   171   86  208 1    
   172   86  209 1    
   173   87   88 2    
   174   87   89 am   BACKBONE|DICT|INTERRES
   175   89   90 1    
   176   89  210 1    
   177   90   91 1    
   178   90   92 1    
   179   90  211 1    
   180   91  212 1    
   181   91  213 1    
   182   91  214 1    
   183   92   93 2    
   184   92   94 am   BACKBONE|DICT|INTERRES
   185   94   95 1    
   186   94  215 1    
   187   95   96 1    
   188   95   97 1    
   189   95  216 1    
   190   96  217 1    
   191   96  218 1    
   192   96  219 1    
   193   97   98 2    
   194   97   99 am   BACKBONE|DICT|INTERRES
   195   99  100 1    
   196   99  220 1    
   197  100  101 1    
   198  100  102 1    
   199  100  221 1    
   200  101  222 1    
   201  101  223 1    
   202  101  224 1    
   203  102  103 2    
   204  102  104 am   BACKBONE|DICT|INTERRES
   205  104  105 1    
   206  104  225 1    
   207  105  106 1    
   208  105  107 1    
   209  105  226 1    
   210  106  227 1    
   211  106  228 1    
   212  106  229 1    
   213  107  108 2    
   214  107  109 am   BACKBONE|DICT|INTERRES
   215  109  110 1    
   216  109  230 1    
   217  110  111 1    
   218  110  112 1    
   219  110  231 1    
   220  111  232 1    
   221  111  233 1    
   222  111  234 1    
   223  112  113 2    
   224  112  114 am   BACKBONE|DICT|INTERRES
   225  114  115 1    
   226  114  235 1    
   227  115  116 1    
   228  115  117 1    
   229  115  236 1    
   230  116  237 1    
   231  116  238 1    
   232  116  239 1    
   233  117  118 2    
   234  117  119 am   BACKBONE|DICT|INTERRES
   235  119  120 1    
   236  119  240 1    
   237  120  121 1    
   238  120  124 1    
   239  120  241 1    
   240  121  122 am   BACKBONE|DICT|INTERRES
   241  121  123 2    
   242  122  242 1    
   243  122  243 1    
   244  124  125 1    
   245  124  244 1    
   246  124  245 1    
   247  125  126 1    
   248  126  246 1    
   249  126  247 1    
@<TRIPOS>SUBSTRUCTURE
     1 UNK         1 GROUP             0       ****    0 ROOT    
