@<TRIPOS>MOLECULE
3R540
247   249    1
SMALL
USER_CHARGES


@<TRIPOS>ATOM
      1 CA          2.2372   -9.4201  -48.3455 C.3       0 UNK        -0.1800 
      2 C           1.9880  -10.7101  -47.5767 C.2       0 UNK         0.5000 
      3 O           1.9202  -10.6830  -46.3484 O.2       0 UNK        -0.5000 
      4 N           1.8573  -11.8322  -48.2990 N.am      1 UNK        -0.5000 
      5 CA          1.5984  -13.1848  -47.7777 C.3       1 UNK         0.1400 
      6 C6          0.2402  -13.3192  -47.0341 C.3       23 UNK        -0.0398 
      7 S7         -1.1958  -12.9016  -48.0864 S.3       23 UNK        -0.2404 
      8 C8         -2.2774  -14.3561  -47.8692 C.3       23 UNK        -0.0205 
      9 C9         -2.0722  -15.4336  -48.9276 C.ar      23 UNK        -0.0193 
     10 C10        -3.1526  -15.8527  -49.7094 C.ar      23 UNK        -0.1150 
     11 C11        -3.0025  -16.8739  -50.6527 C.ar      23 UNK        -0.0193 
     12 C12        -1.7450  -17.4570  -50.8357 C.ar      23 UNK        -0.1150 
     13 C13        -0.6520  -17.0410  -50.0691 C.ar      23 UNK        -0.0193 
     14 C14        -0.8263  -16.0418  -49.1073 C.ar      23 UNK        -0.1150 
     15 C15         0.7250  -17.6529  -50.2876 C.3       23 UNK        -0.0205 
     16 S16         0.8032  -19.4109  -49.8256 S.3       23 UNK        -0.2404 
     17 C17         0.4084  -19.3587  -48.0469 C.3       23 UNK        -0.0398 
     18 CA         -0.2586  -20.6627  -47.5533 C.3       11 UNK         0.1400 
     19 N          -0.1257  -20.8138  -46.1041 N.am      11 UNK        -0.5000 
     20 C          -0.3589  -21.9461  -45.4291 C.2       10 UNK         0.5000 
     21 O          -0.7158  -22.9962  -45.9613 O.2       10 UNK        -0.5000 
     22 CA         -0.2005  -21.8855  -43.8994 C.3       10 UNK         0.1400 
     23 CB          1.2824  -21.9103  -43.5002 C.3       10 UNK        -0.1800 
     24 N          -0.8495  -20.7140  -43.3104 N.am      10 UNK        -0.5000 
     25 C          -2.1704  -20.4860  -43.3477 C.2       9 UNK         0.5000 
     26 O          -2.9838  -21.2478  -43.8710 O.2       9 UNK        -0.5000 
     27 CA         -2.6639  -19.1665  -42.7309 C.3       9 UNK         0.1400 
     28 CB         -2.7197  -19.2689  -41.1995 C.3       9 UNK        -0.1800 
     29 N          -1.8425  -18.0202  -43.1179 N.am      9 UNK        -0.5000 
     30 C          -1.6944  -17.5827  -44.3768 C.2       8 UNK         0.5000 
     31 O          -2.2484  -18.0884  -45.3516 O.2       8 UNK        -0.5000 
     32 CA         -0.7168  -16.4166  -44.5918 C.3       8 UNK         0.1400 
     33 CB         -1.3315  -15.0967  -44.1023 C.3       8 UNK        -0.1800 
     34 N           0.5717  -16.6380  -43.9367 N.am      8 UNK        -0.5000 
     35 C           1.3818  -17.6775  -44.1844 C.2       7 UNK         0.5000 
     36 O           1.1459  -18.5471  -45.0209 O.2       7 UNK        -0.5000 
     37 CA          2.6436  -17.8057  -43.3199 C.3       7 UNK         0.1400 
     38 CB          3.7849  -16.9693  -43.9004 C.3       7 UNK        -0.1800 
     39 N           2.4018  -17.4295  -41.9292 N.am      7 UNK        -0.5000 
     40 C           1.6580  -18.1576  -41.0848 C.2       6 UNK         0.5000 
     41 O           1.1262  -19.2281  -41.3848 O.2       6 UNK        -0.5000 
     42 CA          1.4350  -17.5612  -39.6851 C.3       6 UNK         0.1400 
     43 CB          2.7067  -17.6718  -38.8299 C.3       6 UNK        -0.1800 
     44 N           1.0063  -16.1641  -39.7430 N.am      6 UNK        -0.5000 
     45 C          -0.1511  -15.7475  -40.2749 C.2       5 UNK         0.5000 
     46 O          -0.9953  -16.5019  -40.7573 O.2       5 UNK        -0.5000 
     47 CA         -0.4007  -14.2289  -40.2935 C.3       5 UNK         0.1400 
     48 CB         -1.0970  -13.7867  -38.9978 C.3       5 UNK        -0.1800 
     49 N           0.8056  -13.4221  -40.4887 N.am      5 UNK        -0.5000 
     50 C           1.6355  -13.4833  -41.5402 C.2       4 UNK         0.5000 
     51 O           1.5065  -14.2907  -42.4630 O.2       4 UNK        -0.5000 
     52 CA          2.7741  -12.4394  -41.5746 C.3       4 UNK         0.1400 
     53 CB          3.1837  -11.9276  -40.1743 C.3       4 UNK        -0.1800 
     54 N           3.9638  -12.8805  -42.3053 N.am      4 UNK        -0.5000 
     55 C           4.7377  -13.9430  -42.0544 C.2       3 UNK         0.5000 
     56 O           4.4778  -14.8037  -41.2094 O.2       3 UNK        -0.5000 
     57 CA          6.0368  -14.0282  -42.8871 C.3       3 UNK         0.1400 
     58 CB          6.9995  -15.1196  -42.3845 C.3       3 UNK        -0.1800 
     59 N           5.8001  -14.2237  -44.3202 N.am      3 UNK        -0.5000 
     60 C           5.3624  -13.2954  -45.1822 C.2       2 UNK         0.5000 
     61 O           5.0673  -12.1463  -44.8454 O.2       2 UNK        -0.5000 
     62 CA          5.2867  -13.6802  -46.6772 C.3       2 UNK         0.1400 
     63 CB          5.6278  -15.1561  -46.9845 C.3       2 UNK        -0.1800 
     64 N           4.0083  -13.3027  -47.2873 N.am      2 UNK        -0.5000 
     65 C           2.7862  -13.7508  -46.9593 C.2       1 UNK         0.5000 
     66 O           2.5823  -14.5939  -46.0863 O.2       1 UNK        -0.5000 
     67 C          -1.7256  -20.7953  -48.0175 C.2       11 UNK         0.5000 
     68 O          -1.9799  -21.4330  -49.0412 O.2       11 UNK        -0.5000 
     69 N          -2.6704  -20.2533  -47.2341 N.am      12 UNK        -0.5000 
     70 CA         -4.1068  -20.4215  -47.4492 C.3       12 UNK         0.1400 
     71 CB         -4.8993  -19.5129  -46.4991 C.3       12 UNK        -0.1800 
     72 C          -4.5441  -21.8902  -47.3130 C.2       12 UNK         0.5000 
     73 O          -5.2042  -22.4072  -48.2132 O.2       12 UNK        -0.5000 
     74 N          -4.1132  -22.5579  -46.2316 N.am      13 UNK        -0.5000 
     75 CA         -4.3663  -23.9796  -45.9724 C.3       13 UNK         0.1400 
     76 CB         -3.8395  -24.3486  -44.5777 C.3       13 UNK        -0.1800 
     77 C          -3.7715  -24.9163  -47.0431 C.2       13 UNK         0.5000 
     78 O          -4.3819  -25.9354  -47.3670 O.2       13 UNK        -0.5000 
     79 N          -2.6159  -24.5336  -47.6012 N.am      14 UNK        -0.5000 
     80 CA         -1.9545  -25.2036  -48.7214 C.3       14 UNK         0.1400 
     81 CB         -0.4726  -24.7918  -48.7370 C.3       14 UNK        -0.1800 
     82 C          -2.6012  -24.9118  -50.0919 C.2       14 UNK         0.5000 
     83 O          -2.1385  -25.4641  -51.0904 O.2       14 UNK        -0.5000 
     84 N          -3.6123  -24.0294  -50.1436 N.am      15 UNK        -0.5000 
     85 CA         -4.2993  -23.5418  -51.3444 C.3       15 UNK         0.1400 
     86 CB         -5.1369  -24.6623  -51.9915 C.3       15 UNK        -0.1800 
     87 C          -3.3250  -22.8644  -52.3294 C.2       15 UNK         0.5000 
     88 O          -3.3212  -23.1763  -53.5234 O.2       15 UNK        -0.5000 
     89 N          -2.4640  -21.9964  -51.7793 N.am      16 UNK        -0.5000 
     90 CA         -1.3492  -21.2966  -52.4284 C.3       16 UNK         0.1400 
     91 CB         -1.8503  -20.4003  -53.5781 C.3       16 UNK        -0.1800 
     92 C          -0.2047  -22.2263  -52.8872 C.2       16 UNK         0.5000 
     93 O           0.6817  -21.7740  -53.6122 O.2       16 UNK        -0.5000 
     94 N          -0.2597  -23.5092  -52.4909 N.am      17 UNK        -0.5000 
     95 CA          0.5776  -24.6254  -52.9456 C.3       17 UNK         0.1400 
     96 CB          2.0464  -24.4283  -52.5173 C.3       17 UNK        -0.1800 
     97 C           0.4196  -24.9206  -54.4552 C.2       17 UNK         0.5000 
     98 O           1.3160  -25.5116  -55.0601 O.2       17 UNK        -0.5000 
     99 N          -0.7132  -24.5001  -55.0361 N.am      18 UNK        -0.5000 
    100 CA        -0.9953  -24.5514  -56.4712 C.3       18 UNK         0.1400 
    101 CB        -0.7061  -23.1638  -57.0726 C.3       18 UNK        -0.1800 
    102 C         -2.4370  -24.9997  -56.7741 C.2       18 UNK         0.5000 
    103 O         -2.8321  -24.9794  -57.9407 O.2       18 UNK        -0.5000 
    104 N         -3.2002  -25.3775  -55.7350 N.am      19 UNK        -0.5000 
    105 CA        -4.6307  -25.7096  -55.7680 C.3       19 UNK         0.1400 
    106 CB        -4.8851  -27.0040  -56.5687 C.3       19 UNK        -0.1800 
    107 C         -5.4924  -24.5175  -56.2400 C.2       19 UNK         0.5000 
    108 O         -6.4182  -24.6862  -57.0351 O.2       19 UNK        -0.5000 
    109 N         -5.1567  -23.3219  -55.7366 N.am      20 UNK        -0.5000 
    110 CA        -5.7606  -22.0407  -56.1128 C.3       20 UNK         0.1400 
    111 CB        -4.7557  -20.9236  -55.7903 C.3       20 UNK        -0.1800 
    112 C         -7.1148  -21.7585  -55.4296 C.2       20 UNK         0.5000 
    113 O         -7.7115  -20.7148  -55.6960 O.2       20 UNK        -0.5000 
    114 N         -7.5588  -22.6670  -54.5471 N.am      21 UNK        -0.5000 
    115 CA        -8.7723  -22.5904  -53.7233 C.3       21 UNK         0.1400 
    116 CB       -10.0438  -22.5833  -54.5982 C.3       21 UNK        -0.1800 
    117 C         -8.7323  -21.4372  -52.6961 C.2       21 UNK         0.5000 
    118 O         -9.7702  -20.8589  -52.3696 O.2       21 UNK        -0.5000 
    119 N         -7.5258  -21.1387  -52.1936 N.am      22 UNK        -0.5000 
    120 CA        -7.2672  -20.1367  -51.1448 C.3       22 UNK         0.1400 
    121 C         -7.7741  -20.5459  -49.7241 C.2       22 UNK         0.5000 
    122 N         -8.1213  -21.8035  -49.4770 N.am      22 UNK        -0.7600 
    123 O         -7.8856  -19.7058  -48.8365 O.2       22 UNK        -0.5000 
    124 C124       -5.7705  -19.7160  -51.1442 C.3       23 UNK        -0.0398 
    125 S125       -5.4906  -18.0649  -50.4140 S.3       23 UNK        -0.2404 
    126 C126       -4.1996  -17.3330  -51.4745 C.3       23 UNK        -0.0205 
    127 H127        2.2769   -9.5894  -49.4218 H         1 UNK         0.0600 
    128 H128        3.1831   -8.9758  -48.0359 H         1 UNK         0.0600 
    129 H129        1.4406   -8.7040  -48.1436 H         1 UNK         0.0600 
    130 H130        1.9157  -11.7690  -49.3060 H         1 UNK         0.3000 
    131 H131        1.5433  -13.8259  -48.6585 H         1 UNK         0.0600 
    132 H132        0.2178  -12.6835  -46.1484 H         1 UNK         0.0800 
    133 H133        0.1157  -14.3359  -46.6660 H         1 UNK         0.0800 
    134 H134       -2.1387  -14.7946  -46.8835 H         1 UNK         0.0800 
    135 H135       -3.3094  -14.0027  -47.8913 H         1 UNK         0.0800 
    136 H136       -4.1247  -15.4000  -49.5718 H         1 UNK         0.1150 
    137 H137       -1.6125  -18.2360  -51.5721 H         1 UNK         0.1150 
    138 H138        0.0136  -15.7355  -48.5035 H         1 UNK         0.1150 
    139 H139        0.9914  -17.5557  -51.3409 H         1 UNK         0.0800 
    140 H140        1.4874  -17.1073  -49.7291 H         1 UNK         0.0800 
    141 H141        1.3574  -19.2074  -47.5317 H         1 UNK         0.0800 
    142 H142       -0.2086  -18.4941  -47.7994 H         1 UNK         0.0800 
    143 H143        0.2887  -21.4983  -47.9950 H         1 UNK         0.0600 
    144 H144        0.1935  -19.9916  -45.5947 H         1 UNK         0.3000 
    145 H145       -0.6778  -22.7747  -43.4822 H         1 UNK         0.0600 
    146 H146        1.3979  -21.9446  -42.4167 H         1 UNK         0.0600 
    147 H147        1.7823  -22.7890  -43.9094 H         1 UNK         0.0600 
    148 H148        1.8131  -21.0304  -43.8643 H         1 UNK         0.0600 
    149 H149       -0.2482  -20.0438  -42.8444 H         1 UNK         0.3000 
    150 H150       -3.6770  -18.9880  -43.0969 H         1 UNK         0.0600 
    151 H151       -3.3258  -20.1195  -40.8853 H         1 UNK         0.0600 
    152 H152       -3.1628  -18.3742  -40.7619 H         1 UNK         0.0600 
    153 H153       -1.7256  -19.3937  -40.7679 H         1 UNK         0.0600 
    154 H154       -1.3649  -17.5318  -42.3653 H         1 UNK         0.3000 
    155 H155       -0.5288  -16.3390  -45.6638 H         1 UNK         0.0600 
    156 H156       -2.2765  -14.8896  -44.6041 H         1 UNK         0.0600 
    157 H157       -0.6664  -14.2533  -44.2859 H         1 UNK         0.0600 
    158 H158       -1.5427  -15.1293  -43.0358 H         1 UNK         0.0600 
    159 H159        0.8771  -15.9293  -43.2749 H         1 UNK         0.3000 
    160 H160        2.9552  -18.8522  -43.3385 H         1 UNK         0.0600 
    161 H161        3.5336  -15.9087  -43.9096 H         1 UNK         0.0600 
    162 H162        3.9970  -17.2693  -44.9265 H         1 UNK         0.0600 
    163 H163        4.6984  -17.1033  -43.3242 H         1 UNK         0.0600 
    164 H164        2.7749  -16.5399  -41.6228 H         1 UNK         0.3000 
    165 H165        0.6450  -18.1376  -39.1990 H         1 UNK         0.0600 
    166 H166        2.5263  -17.3307  -37.8104 H         1 UNK         0.0600 
    167 H167        3.0478  -18.7062  -38.7704 H         1 UNK         0.0600 
    168 H168        3.5245  -17.0788  -39.2420 H         1 UNK         0.0600 
    169 H169        1.6519  -15.4713  -39.3936 H         1 UNK         0.3000 
    170 H170       -1.0734  -14.0119  -41.1237 H         1 UNK         0.0600 
    171 H171       -2.0149  -14.3535  -38.8348 H         1 UNK         0.0600 
    172 H172       -0.4592  -13.9372  -38.1259 H         1 UNK         0.0600 
    173 H173       -1.3715  -12.7324  -39.0363 H         1 UNK         0.0600 
    174 H174        0.9934  -12.7296  -39.7785 H         1 UNK         0.3000 
    175 H175        2.3814  -11.5904  -42.1356 H         1 UNK         0.0600 
    176 H176        3.4894  -12.7440  -39.5185 H         1 UNK         0.0600 
    177 H177        4.0184  -11.2296  -40.2423 H         1 UNK         0.0600 
    178 H178        2.3688  -11.3922  -39.6862 H         1 UNK         0.0600 
    179 H179        4.2297  -12.3074  -43.1012 H         1 UNK         0.3000 
    180 H180        6.5497  -13.0724  -42.7596 H         1 UNK         0.0600 
    181 H181        6.5810  -16.1191  -42.4940 H         1 UNK         0.0600 
    182 H182        7.2315  -14.9775  -41.3282 H         1 UNK         0.0600 
    183 H183        7.9443  -15.0914  -42.9275 H         1 UNK         0.0600 
    184 H184        5.9962  -15.1464  -44.6784 H         1 UNK         0.3000 
    185 H185        6.0434  -13.0691  -47.1711 H         1 UNK         0.0600 
    186 H186        6.6298  -15.4143  -46.6398 H         1 UNK         0.0600 
    187 H187        4.9244  -15.8462  -46.5207 H         1 UNK         0.0600 
    188 H188        5.6066  -15.3421  -48.0583 H         1 UNK         0.0600 
    189 H189        4.0610  -12.5826  -47.9934 H         1 UNK         0.3000 
    190 H190       -2.3959  -19.6932  -46.4317 H         1 UNK         0.3000 
    191 H191       -4.3239  -20.1033  -48.4689 H         1 UNK         0.0600 
    192 H192       -4.6662  -18.4631  -46.6780 H         1 UNK         0.0600 
    193 H193       -5.9727  -19.6355  -46.6486 H         1 UNK         0.0600 
    194 H194       -4.6833  -19.7318  -45.4533 H         1 UNK         0.0600 
    195 H195       -3.5841  -22.0577  -45.5218 H         1 UNK         0.3000 
    196 H196       -5.4483  -24.1254  -45.9761 H         1 UNK         0.0600 
    197 H197       -4.0294  -25.3986  -44.3519 H         1 UNK         0.0600 
    198 H198       -4.3271  -23.7563  -43.8032 H         1 UNK         0.0600 
    199 H199       -2.7647  -24.1835  -44.4974 H         1 UNK         0.0600 
    200 H200       -2.1418  -23.7219  -47.2184 H         1 UNK         0.3000 
    201 H201       -2.0064  -26.2823  -48.5617 H         1 UNK         0.0600 
    202 H202        0.0127  -25.0279  -47.7899 H         1 UNK         0.0600 
    203 H203       -0.3555  -23.7228  -48.9162 H         1 UNK         0.0600 
    204 H204        0.0761  -25.3168  -49.5200 H         1 UNK         0.0600 
    205 H205       -3.9209  -23.6058  -49.2748 H         1 UNK         0.3000 
    206 H206       -4.9908  -22.7692  -51.0099 H         1 UNK         0.0600 
    207 H207       -5.8383  -25.0896  -51.2749 H         1 UNK         0.0600 
    208 H208       -5.7210  -24.2820  -52.8286 H         1 UNK         0.0600 
    209 H209       -4.5107  -25.4716  -52.3672 H         1 UNK         0.0600 
    210 H210       -2.4981  -21.8608  -50.7694 H         1 UNK         0.3000 
    211 H211       -0.9307  -20.6466  -51.6635 H         1 UNK         0.0600 
    212 H212       -2.1111  -20.9865  -54.4589 H         1 UNK         0.0600 
    213 H213       -1.0799  -19.6903  -53.8805 H         1 UNK         0.0600 
    214 H214       -2.7260  -19.8242  -53.2833 H         1 UNK         0.0600 
    215 H215       -1.0424  -23.7869  -51.9117 H         1 UNK         0.3000 
    216 H216        0.2064  -25.5116  -52.4300 H         1 UNK         0.0600 
    217 H217        2.6325  -25.3282  -52.7067 H         1 UNK         0.0600 
    218 H218        2.1199  -24.2135  -51.4511 H         1 UNK         0.0600 
    219 H219        2.5225  -23.6107  -53.0589 H         1 UNK         0.0600 
    220 H220       -1.3893  -24.0066  -54.4661 H         1 UNK         0.3000 
    221 H221       -0.3446  -25.2818  -56.9559 H         1 UNK         0.0600 
    222 H222       -1.3571  -22.4002  -56.6448 H         1 UNK         0.0600 
    223 H223        0.3256  -22.8626  -56.8900 H         1 UNK         0.0600 
    224 H224       -0.8572  -23.1598  -58.1528 H         1 UNK         0.0600 
    225 H225       -2.7825  -25.3584  -54.8159 H         1 UNK         0.3000 
    226 H226       -4.9238  -25.9061  -54.7367 H         1 UNK         0.0600 
    227 H227       -4.2640  -27.8217  -56.2031 H         1 UNK         0.0600 
    228 H228       -4.6786  -26.8751  -57.6314 H         1 UNK         0.0600 
    229 H229       -5.9245  -27.3208  -56.4760 H         1 UNK         0.0600 
    230 H230       -4.3953  -23.2776  -55.0630 H         1 UNK         0.3000 
    231 H231       -5.9349  -22.0411  -57.1907 H         1 UNK         0.0600 
    232 H232       -4.5770  -20.8471  -54.7176 H         1 UNK         0.0600 
    233 H233       -5.1198  -19.9538  -56.1318 H         1 UNK         0.0600 
    234 H234       -3.7987  -21.0998  -56.2819 H         1 UNK         0.0600 
    235 H235       -6.9986  -23.4979  -54.4301 H         1 UNK         0.3000 
    236 H236       -8.7928  -23.5089  -53.1350 H         1 UNK         0.0600 
    237 H237      -10.0369  -23.4086  -55.3102 H         1 UNK         0.0600 
    238 H238      -10.9396  -22.6925  -53.9859 H         1 UNK         0.0600 
    239 H239      -10.1467  -21.6552  -55.1609 H         1 UNK         0.0600 
    240 H240       -6.7315  -21.6553  -52.5346 H         1 UNK         0.3000 
    241 H241       -7.8503  -19.2561  -51.4220 H         1 UNK         0.0600 
    242 H242       -8.4424  -22.0504  -48.5549 H         1 UNK         0.3800 
    243 H243       -8.0405  -22.5141  -50.1838 H         1 UNK         0.3800 
    244 H244       -5.1551  -20.4468  -50.6197 H         1 UNK         0.0800 
    245 H245       -5.4022  -19.6971  -52.1704 H         1 UNK         0.0800 
    246 H246       -4.6206  -16.4755  -52.0011 H         1 UNK         0.0800 
    247 H247       -3.8846  -18.0366  -52.2443 H         1 UNK         0.0800 
@<TRIPOS>BOND
     1    1    2 1    
     2    1  127 1    
     3    1  128 1    
     4    1  129 1    
     5    2    3 2    
     6    2    4 am   BACKBONE|DICT|INTERRES
     7    4    5 1    
     8    4  130 1    
     9    5    6 1    
    10    5   65 1    
    11    5  131 1    
    12    6    7 1    
    13    6  132 1    
    14    6  133 1    
    15    7    8 1    
    16    8    9 1    
    17    8  134 1    
    18    8  135 1    
    19    9   10 ar   
    20    9   14 ar   
    21   10   11 ar   
    22   10  136 1    
    23   11   12 ar   
    24   11  126 1    
    25   12   13 ar   
    26   12  137 1    
    27   13   14 ar   
    28   13   15 1    
    29   14  138 1    
    30   15   16 1    
    31   15  139 1    
    32   15  140 1    
    33   16   17 1    
    34   17   18 1    
    35   17  141 1    
    36   17  142 1    
    37   18   19 1    
    38   18   67 1    
    39   18  143 1    
    40   19   20 am   BACKBONE|DICT|INTERRES
    41   19  144 1    
    42   20   21 2    
    43   20   22 1    
    44   22   23 1    
    45   22   24 1    
    46   22  145 1    
    47   23  146 1    
    48   23  147 1    
    49   23  148 1    
    50   24   25 am   BACKBONE|DICT|INTERRES
    51   24  149 1    
    52   25   26 2    
    53   25   27 1    
    54   27   28 1    
    55   27   29 1    
    56   27  150 1    
    57   28  151 1    
    58   28  152 1    
    59   28  153 1    
    60   29   30 am   BACKBONE|DICT|INTERRES
    61   29  154 1    
    62   30   31 2    
    63   30   32 1    
    64   32   33 1    
    65   32   34 1    
    66   32  155 1    
    67   33  156 1    
    68   33  157 1    
    69   33  158 1    
    70   34   35 am   BACKBONE|DICT|INTERRES
    71   34  159 1    
    72   35   36 2    
    73   35   37 1    
    74   37   38 1    
    75   37   39 1    
    76   37  160 1    
    77   38  161 1    
    78   38  162 1    
    79   38  163 1    
    80   39   40 am   BACKBONE|DICT|INTERRES
    81   39  164 1    
    82   40   41 2    
    83   40   42 1    
    84   42   43 1    
    85   42   44 1    
    86   42  165 1    
    87   43  166 1    
    88   43  167 1    
    89   43  168 1    
    90   44   45 am   BACKBONE|DICT|INTERRES
    91   44  169 1    
    92   45   46 2    
    93   45   47 1    
    94   47   48 1    
    95   47   49 1    
    96   47  170 1    
    97   48  171 1    
    98   48  172 1    
    99   48  173 1    
   100   49   50 am   BACKBONE|DICT|INTERRES
   101   49  174 1    
   102   50   51 2    
   103   50   52 1    
   104   52   53 1    
   105   52   54 1    
   106   52  175 1    
   107   53  176 1    
   108   53  177 1    
   109   53  178 1    
   110   54   55 am   BACKBONE|DICT|INTERRES
   111   54  179 1    
   112   55   56 2    
   113   55   57 1    
   114   57   58 1    
   115   57   59 1    
   116   57  180 1    
   117   58  181 1    
   118   58  182 1    
   119   58  183 1    
   120   59   60 am   BACKBONE|DICT|INTERRES
   121   59  184 1    
   122   60   61 2    
   123   60   62 1    
   124   62   63 1    
   125   62   64 1    
   126   62  185 1    
   127   63  186 1    
   128   63  187 1    
   129   63  188 1    
   130   64   65 am   BACKBONE|DICT|INTERRES
   131   64  189 1    
   132   65   66 2    
   133   67   68 2    
   134   67   69 am   BACKBONE|DICT|INTERRES
   135   69   70 1    
   136   69  190 1    
   137   70   71 1    
   138   70   72 1    
   139   70  191 1    
   140   71  192 1    
   141   71  193 1    
   142   71  194 1    
   143   72   73 2    
   144   72   74 am   BACKBONE|DICT|INTERRES
   145   74   75 1    
   146   74  195 1    
   147   75   76 1    
   148   75   77 1    
   149   75  196 1    
   150   76  197 1    
   151   76  198 1    
   152   76  199 1    
   153   77   78 2    
   154   77   79 am   BACKBONE|DICT|INTERRES
   155   79   80 1    
   156   79  200 1    
   157   80   81 1    
   158   80   82 1    
   159   80  201 1    
   160   81  202 1    
   161   81  203 1    
   162   81  204 1    
   163   82   83 2    
   164   82   84 am   BACKBONE|DICT|INTERRES
   165   84   85 1    
   166   84  205 1    
   167   85   86 1    
   168   85   87 1    
   169   85  206 1    
   170   86  207 1    
   171   86  208 1    
   172   86  209 1    
   173   87   88 2    
   174   87   89 am   BACKBONE|DICT|INTERRES
   175   89   90 1    
   176   89  210 1    
   177   90   91 1    
   178   90   92 1    
   179   90  211 1    
   180   91  212 1    
   181   91  213 1    
   182   91  214 1    
   183   92   93 2    
   184   92   94 am   BACKBONE|DICT|INTERRES
   185   94   95 1    
   186   94  215 1    
   187   95   96 1    
   188   95   97 1    
   189   95  216 1    
   190   96  217 1    
   191   96  218 1    
   192   96  219 1    
   193   97   98 2    
   194   97   99 am   BACKBONE|DICT|INTERRES
   195   99  100 1    
   196   99  220 1    
   197  100  101 1    
   198  100  102 1    
   199  100  221 1    
   200  101  222 1    
   201  101  223 1    
   202  101  224 1    
   203  102  103 2    
   204  102  104 am   BACKBONE|DICT|INTERRES
   205  104  105 1    
   206  104  225 1    
   207  105  106 1    
   208  105  107 1    
   209  105  226 1    
   210  106  227 1    
   211  106  228 1    
   212  106  229 1    
   213  107  108 2    
   214  107  109 am   BACKBONE|DICT|INTERRES
   215  109  110 1    
   216  109  230 1    
   217  110  111 1    
   218  110  112 1    
   219  110  231 1    
   220  111  232 1    
   221  111  233 1    
   222  111  234 1    
   223  112  113 2    
   224  112  114 am   BACKBONE|DICT|INTERRES
   225  114  115 1    
   226  114  235 1    
   227  115  116 1    
   228  115  117 1    
   229  115  236 1    
   230  116  237 1    
   231  116  238 1    
   232  116  239 1    
   233  117  118 2    
   234  117  119 am   BACKBONE|DICT|INTERRES
   235  119  120 1    
   236  119  240 1    
   237  120  121 1    
   238  120  124 1    
   239  120  241 1    
   240  121  122 am   BACKBONE|DICT|INTERRES
   241  121  123 2    
   242  122  242 1    
   243  122  243 1    
   244  124  125 1    
   245  124  244 1    
   246  124  245 1    
   247  125  126 1    
   248  126  246 1    
   249  126  247 1    
@<TRIPOS>SUBSTRUCTURE
     1 UNK         1 GROUP             0       ****    0 ROOT    
