@<TRIPOS>MOLECULE
3R540
247   249    1
SMALL
USER_CHARGES


@<TRIPOS>ATOM
      1 CA          7.1188  -15.9063  -45.6089 C.3       0 UNK        -0.1800 
      2 C           5.9526  -14.9980  -45.2490 C.2       0 UNK         0.5000 
      3 O           5.4126  -15.0958  -44.1471 O.2       0 UNK        -0.5000 
      4 N           5.5725  -14.0959  -46.1620 N.am      1 UNK        -0.5000 
      5 CA          4.4315  -13.1763  -46.0488 C.3       1 UNK         0.1400 
      6 C6          3.8520  -12.8029  -47.4388 C.3       23 UNK        -0.0398 
      7 S7          2.9439  -14.1989  -48.1844 S.3       23 UNK        -0.2404 
      8 C8          4.1887  -14.9229  -49.2886 C.3       23 UNK        -0.0205 
      9 C9          3.6555  -16.1861  -49.9441 C.ar      23 UNK        -0.0193 
     10 C10         2.8025  -16.0935  -51.0455 C.ar      23 UNK        -0.1150 
     11 C11         2.3105  -17.2397  -51.6762 C.ar      23 UNK        -0.0193 
     12 C12         2.6986  -18.4970  -51.1883 C.ar      23 UNK        -0.1150 
     13 C13         3.5445  -18.6053  -50.0799 C.ar      23 UNK        -0.0193 
     14 C14         4.0160  -17.4454  -49.4588 C.ar      23 UNK        -0.1150 
     15 C15         3.9807  -19.9722  -49.5705 C.3       23 UNK        -0.0205 
     16 S16         2.9465  -20.5596  -48.1916 S.3       23 UNK        -0.2404 
     17 C17         1.4790  -21.1926  -49.0687 C.3       23 UNK        -0.0398 
     18 CA          0.6150  -22.1180  -48.1746 C.3       11 UNK         0.1400 
     19 N          -0.0286  -21.4151  -47.0580 N.am      11 UNK        -0.5000 
     20 C          -0.7171  -22.0140  -46.0739 C.2       10 UNK         0.5000 
     21 O          -0.8207  -23.2351  -45.9617 O.2       10 UNK        -0.5000 
     22 CA         -1.4742  -21.1073  -45.0834 C.3       10 UNK         0.1400 
     23 CB         -0.5644  -20.6578  -43.9309 C.3       10 UNK        -0.1800 
     24 N          -2.0929  -19.9477  -45.7307 N.am      10 UNK        -0.5000 
     25 C          -3.0542  -20.0356  -46.6621 C.2       9 UNK         0.5000 
     26 O          -3.5471  -21.0999  -47.0281 O.2       9 UNK        -0.5000 
     27 CA         -3.4976  -18.7360  -47.3539 C.3       9 UNK         0.1400 
     28 CB         -4.5169  -17.9718  -46.4990 C.3       9 UNK        -0.1800 
     29 N          -2.3678  -17.8697  -47.6779 N.am      9 UNK        -0.5000 
     30 C          -1.3858  -18.1876  -48.5329 C.2       8 UNK         0.5000 
     31 O          -1.3876  -19.2098  -49.2211 O.2       8 UNK        -0.5000 
     32 CA         -0.1906  -17.2175  -48.5913 C.3       8 UNK         0.1400 
     33 CB         -0.5004  -16.0216  -49.5021 C.3       8 UNK        -0.1800 
     34 N           0.1880  -16.7311  -47.2630 N.am      8 UNK        -0.5000 
     35 C           0.6525  -17.5149  -46.2800 C.2       7 UNK         0.5000 
     36 O           0.8439  -18.7214  -46.4069 O.2       7 UNK        -0.5000 
     37 CA          0.8816  -16.8560  -44.9101 C.3       7 UNK         0.1400 
     38 CB          2.2394  -16.1517  -44.8715 C.3       7 UNK        -0.1800 
     39 N          -0.1788  -15.9026  -44.5850 N.am      7 UNK        -0.5000 
     40 C          -1.4177  -16.2711  -44.2262 C.2       6 UNK         0.5000 
     41 O          -1.7654  -17.4442  -44.0937 O.2       6 UNK        -0.5000 
     42 CA         -2.4563  -15.1501  -44.0270 C.3       6 UNK         0.1400 
     43 CB         -2.4255  -14.6396  -42.5796 C.3       6 UNK        -0.1800 
     44 N          -2.2656  -14.0267  -44.9457 N.am      6 UNK        -0.5000 
     45 C          -2.3535  -14.1191  -46.2805 C.2       5 UNK         0.5000 
     46 O          -2.6825  -15.1508  -46.8642 O.2       5 UNK        -0.5000 
     47 CA         -1.9776  -12.8803  -47.1171 C.3       5 UNK         0.1400 
     48 CB         -3.2413  -12.2078  -47.6736 C.3       5 UNK        -0.1800 
     49 N          -1.1709  -11.8751  -46.4186 N.am      5 UNK        -0.5000 
     50 C           0.0387  -12.0727  -45.8767 C.2       4 UNK         0.5000 
     51 O           0.5951  -13.1732  -45.8382 O.2       4 UNK        -0.5000 
     52 CA          0.7476  -10.8428  -45.2694 C.3       4 UNK         0.1400 
     53 CB         -0.1643   -9.6107  -45.0695 C.3       4 UNK        -0.1800 
     54 N           1.4415  -11.1840  -44.0265 N.am      4 UNK        -0.5000 
     55 C           0.8979  -11.6563  -42.8938 C.2       3 UNK         0.5000 
     56 O          -0.3156  -11.7874  -42.7274 O.2       3 UNK        -0.5000 
     57 CA          1.8658  -12.0846  -41.7675 C.3       3 UNK         0.1400 
     58 CB          1.5097  -13.4875  -41.2447 C.3       3 UNK        -0.1800 
     59 N           3.2639  -12.0980  -42.2052 N.am      3 UNK        -0.5000 
     60 C           4.1120  -11.0598  -42.1675 C.2       2 UNK         0.5000 
     61 O           3.8432   -9.9715  -41.6597 O.2       2 UNK        -0.5000 
     62 CA          5.4693  -11.2650  -42.8725 C.3       2 UNK         0.1400 
     63 CB          6.5242  -11.7805  -41.8826 C.3       2 UNK        -0.1800 
     64 N           5.3592  -12.2058  -43.9909 N.am      2 UNK        -0.5000 
     65 C           4.7231  -11.9575  -45.1434 C.2       1 UNK         0.5000 
     66 O           4.3116  -10.8386  -45.4516 O.2       1 UNK        -0.5000 
     67 C          -0.4118  -22.9016  -49.0187 C.2       11 UNK         0.5000 
     68 O          -0.1932  -24.0841  -49.2800 O.2       11 UNK        -0.5000 
     69 N          -1.5330  -22.2616  -49.3851 N.am      12 UNK        -0.5000 
     70 CA         -2.6415  -22.9092  -50.0955 C.3       12 UNK         0.1400 
     71 CB         -3.6631  -21.8628  -50.5545 C.3       12 UNK        -0.1800 
     72 C          -3.3436  -24.0031  -49.2739 C.2       12 UNK         0.5000 
     73 O          -3.7049  -25.0415  -49.8300 O.2       12 UNK        -0.5000 
     74 N          -3.5297  -23.7558  -47.9714 N.am      13 UNK        -0.5000 
     75 CA         -4.1095  -24.7051  -47.0229 C.3       13 UNK         0.1400 
     76 CB         -4.3602  -24.0164  -45.6746 C.3       13 UNK        -0.1800 
     77 C          -3.2444  -25.9670  -46.8499 C.2       13 UNK         0.5000 
     78 O          -3.7866  -27.0702  -46.8049 O.2       13 UNK        -0.5000 
     79 N          -1.9184  -25.7898  -46.8023 N.am      14 UNK        -0.5000 
     80 CA         -0.9467  -26.8805  -46.7688 C.3       14 UNK         0.1400 
     81 CB          0.4340  -26.3224  -46.3907 C.3       14 UNK        -0.1800 
     82 C          -0.8774  -27.6518  -48.1003 C.2       14 UNK         0.5000 
     83 O          -0.8126  -28.8817  -48.0839 O.2       14 UNK        -0.5000 
     84 N          -0.8770  -26.9198  -49.2228 N.am      15 UNK        -0.5000 
     85 CA         -0.7120  -27.4743  -50.5648 C.3       15 UNK         0.1400 
     86 CB         -0.3139  -26.3542  -51.5389 C.3       15 UNK        -0.1800 
     87 C          -1.9505  -28.2200  -51.0895 C.2       15 UNK         0.5000 
     88 O          -1.8017  -29.3197  -51.6249 O.2       15 UNK        -0.5000 
     89 N          -3.1320  -27.5985  -50.9753 N.am      16 UNK        -0.5000 
     90 CA         -4.3453  -28.0310  -51.6767 C.3       16 UNK         0.1400 
     91 CB         -4.5420  -27.1176  -52.9005 C.3       16 UNK        -0.1800 
     92 C          -5.6098  -28.0337  -50.8014 C.2       16 UNK         0.5000 
     93 O          -6.6585  -28.4578  -51.2877 O.2       16 UNK        -0.5000 
     94 N          -5.5180  -27.5367  -49.5579 N.am      17 UNK        -0.5000 
     95 CA         -6.6210  -27.3380  -48.6014 C.3       17 UNK         0.1400 
     96 CB         -7.2991  -28.6758  -48.2370 C.3       17 UNK        -0.1800 
     97 C          -7.6399  -26.2569  -49.0320 C.2       17 UNK         0.5000 
     98 O          -8.7094  -26.1550  -48.4297 O.2       17 UNK        -0.5000 
     99 N          -7.2965  -25.4650  -50.0573 N.am      18 UNK        -0.5000 
    100 CA        -8.1709  -24.4606  -50.6630 C.3       18 UNK         0.1400 
    101 CB        -7.7335  -24.2446  -52.1209 C.3       18 UNK        -0.1800 
    102 C         -8.1612  -23.1219  -49.9067 C.2       18 UNK         0.5000 
    103 O         -9.1718  -22.4197  -49.9088 O.2       18 UNK        -0.5000 
    104 N         -7.0052  -22.7807  -49.3155 N.am      19 UNK        -0.5000 
    105 CA        -6.6916  -21.5287  -48.6078 C.3       19 UNK         0.1400 
    106 CB        -7.5351  -21.3961  -47.3248 C.3       19 UNK        -0.1800 
    107 C         -6.7508  -20.2516  -49.4838 C.2       19 UNK         0.5000 
    108 O         -6.7080  -19.1417  -48.9526 O.2       19 UNK        -0.5000 
    109 N         -6.8163  -20.4164  -50.8119 N.am      20 UNK        -0.5000 
    110 CA        -7.0526  -19.3713  -51.8110 C.3       20 UNK         0.1400 
    111 CB        -7.7024  -20.0287  -53.0426 C.3       20 UNK        -0.1800 
    112 C         -5.7930  -18.5527  -52.1734 C.2       20 UNK         0.5000 
    113 O         -5.5026  -18.3622  -53.3565 O.2       20 UNK        -0.5000 
    114 N         -5.0619  -18.0862  -51.1502 N.am      21 UNK        -0.5000 
    115 CA        -3.9084  -17.1731  -51.2207 C.3       21 UNK         0.1400 
    116 CB        -4.3936  -15.7401  -51.5163 C.3       21 UNK        -0.1800 
    117 C         -2.7822  -17.6280  -52.1811 C.2       21 UNK         0.5000 
    118 O         -2.1513  -16.7980  -52.8350 O.2       21 UNK        -0.5000 
    119 N         -2.5790  -18.9475  -52.2565 N.am      22 UNK        -0.5000 
    120 CA        -1.6462  -19.6595  -53.1474 C.3       22 UNK         0.1400 
    121 C         -2.0052  -19.6165  -54.6683 C.2       22 UNK         0.5000 
    122 N         -3.1608  -19.0955  -55.0659 N.am      22 UNK        -0.7600 
    123 O         -1.2677  -20.1367  -55.5007 O.2       22 UNK        -0.5000 
    124 C124       -0.1487  -19.4561  -52.7410 C.3       23 UNK        -0.0398 
    125 S125        0.9621  -18.5185  -53.8550 S.3       23 UNK        -0.2404 
    126 C126        1.3658  -17.0404  -52.8653 C.3       23 UNK        -0.0205 
    127 H127        7.4979  -15.7022  -46.6105 H         1 UNK         0.0600 
    128 H128        6.8051  -16.9495  -45.5704 H         1 UNK         0.0600 
    129 H129        7.9352  -15.7677  -44.9001 H         1 UNK         0.0600 
    130 H130        6.0960  -14.0277  -47.0223 H         1 UNK         0.3000 
    131 H131        3.6397  -13.6930  -45.5089 H         1 UNK         0.0600 
    132 H132        4.6330  -12.4473  -48.1124 H         1 UNK         0.0800 
    133 H133        3.1276  -11.9913  -47.3596 H         1 UNK         0.0800 
    134 H134        4.4654  -14.1962  -50.0538 H         1 UNK         0.0800 
    135 H135        5.0959  -15.1468  -48.7271 H         1 UNK         0.0800 
    136 H136        2.5155  -15.1169  -51.4104 H         1 UNK         0.1150 
    137 H137        2.3543  -19.4031  -51.6614 H         1 UNK         0.1150 
    138 H138        4.6709  -17.5248  -48.6024 H         1 UNK         0.1150 
    139 H139        3.9777  -20.7044  -50.3792 H         1 UNK         0.0800 
    140 H140        5.0142  -19.9140  -49.2258 H         1 UNK         0.0800 
    141 H141        1.8270  -21.7364  -49.9489 H         1 UNK         0.0800 
    142 H142        0.9000  -20.3477  -49.4399 H         1 UNK         0.0800 
    143 H143        1.2808  -22.8633  -47.7336 H         1 UNK         0.0600 
    144 H144        0.0850  -20.4056  -47.0278 H         1 UNK         0.3000 
    145 H145       -2.2810  -21.6995  -44.6485 H         1 UNK         0.0600 
    146 H146       -1.1110  -20.0494  -43.2103 H         1 UNK         0.0600 
    147 H147       -0.1677  -21.5199  -43.3934 H         1 UNK         0.0600 
    148 H148        0.2863  -20.0771  -44.2836 H         1 UNK         0.0600 
    149 H149       -1.7619  -19.0334  -45.4445 H         1 UNK         0.3000 
    150 H150       -3.9824  -19.0109  -48.2920 H         1 UNK         0.0600 
    151 H151       -5.3853  -18.5945  -46.2805 H         1 UNK         0.0600 
    152 H152       -4.8775  -17.0836  -47.0183 H         1 UNK         0.0600 
    153 H153       -4.0905  -17.6542  -45.5477 H         1 UNK         0.0600 
    154 H154       -2.3336  -16.9694  -47.2062 H         1 UNK         0.3000 
    155 H155        0.6629  -17.7565  -49.0077 H         1 UNK         0.0600 
    156 H156       -0.6971  -16.3553  -50.5188 H         1 UNK         0.0600 
    157 H157        0.3398  -15.3290  -49.5461 H         1 UNK         0.0600 
    158 H158       -1.3765  -15.4669  -49.1675 H         1 UNK         0.0600 
    159 H159        0.0566  -15.7478  -47.0774 H         1 UNK         0.3000 
    160 H160        0.8888  -17.6414  -44.1514 H         1 UNK         0.0600 
    161 H161        2.2845  -15.3785  -45.6332 H         1 UNK         0.0600 
    162 H162        3.0526  -16.8521  -45.0660 H         1 UNK         0.0600 
    163 H163        2.4275  -15.6891  -43.9029 H         1 UNK         0.0600 
    164 H164        0.0226  -14.9209  -44.7392 H         1 UNK         0.3000 
    165 H165       -3.4441  -15.5737  -44.2190 H         1 UNK         0.0600 
    166 H166       -3.1813  -13.8719  -42.4136 H         1 UNK         0.0600 
    167 H167       -2.6242  -15.4497  -41.8767 H         1 UNK         0.0600 
    168 H168       -1.4542  -14.2159  -42.3240 H         1 UNK         0.0600 
    169 H169       -1.9668  -13.1509  -44.5400 H         1 UNK         0.3000 
    170 H170       -1.3843  -13.2382  -47.9608 H         1 UNK         0.0600 
    171 H171       -3.8508  -12.9200  -48.2319 H         1 UNK         0.0600 
    172 H172       -3.8625  -11.7984  -46.8759 H         1 UNK         0.0600 
    173 H173       -2.9896  -11.3955  -48.3557 H         1 UNK         0.0600 
    174 H174       -1.5596  -10.9440  -46.3813 H         1 UNK         0.3000 
    175 H175        1.5239  -10.5626  -45.9822 H         1 UNK         0.0600 
    176 H176       -1.0211   -9.8311  -44.4317 H         1 UNK         0.0600 
    177 H177        0.3867   -8.7913  -44.6077 H         1 UNK         0.0600 
    178 H178       -0.5431   -9.2380  -46.0218 H         1 UNK         0.0600 
    179 H179        2.4479  -11.1125  -44.0686 H         1 UNK         0.3000 
    180 H180        1.7479  -11.3736  -40.9474 H         1 UNK         0.0600 
    181 H181        1.5404  -14.2337  -42.0396 H         1 UNK         0.0600 
    182 H182        0.5063  -13.5047  -40.8175 H         1 UNK         0.0600 
    183 H183        2.1974  -13.8032  -40.4600 H         1 UNK         0.0600 
    184 H184        3.5832  -12.9534  -42.6364 H         1 UNK         0.3000 
    185 H185        5.7995  -10.2986  -43.2591 H         1 UNK         0.0600 
    186 H186        6.6422  -11.0924  -41.0445 H         1 UNK         0.0600 
    187 H187        6.2517  -12.7543  -41.4734 H         1 UNK         0.0600 
    188 H188        7.4985  -11.8789  -42.3616 H         1 UNK         0.0600 
    189 H189        5.6340  -13.1670  -43.8124 H         1 UNK         0.3000 
    190 H190       -1.6395  -21.2821  -49.1422 H         1 UNK         0.3000 
    191 H191       -2.2358  -23.3943  -50.9857 H         1 UNK         0.0600 
    192 H192       -3.2980  -21.3239  -51.4190 H         1 UNK         0.0600 
    193 H193       -4.5996  -22.3288  -50.8620 H         1 UNK         0.0600 
    194 H194       -3.8808  -21.1367  -49.7727 H         1 UNK         0.0600 
    195 H195       -3.2725  -22.8433  -47.6018 H         1 UNK         0.3000 
    196 H196       -5.0775  -25.0069  -47.4221 H         1 UNK         0.0600 
    197 H197       -4.8556  -24.6938  -44.9782 H         1 UNK         0.0600 
    198 H198       -5.0011  -23.1421  -45.7899 H         1 UNK         0.0600 
    199 H199       -3.4298  -23.6929  -45.2097 H         1 UNK         0.0600 
    200 H200       -1.5473  -24.8440  -46.7800 H         1 UNK         0.3000 
    201 H201       -1.2504  -27.5840  -45.9907 H         1 UNK         0.0600 
    202 H202        0.4096  -25.8440  -45.4114 H         1 UNK         0.0600 
    203 H203        0.7822  -25.5832  -47.1131 H         1 UNK         0.0600 
    204 H204        1.1794  -27.1174  -46.3468 H         1 UNK         0.0600 
    205 H205       -0.8707  -25.9066  -49.1478 H         1 UNK         0.3000 
    206 H206        0.1127  -28.1898  -50.5335 H         1 UNK         0.0600 
    207 H207        0.6269  -25.8906  -51.2419 H         1 UNK         0.0600 
    208 H208       -0.1790  -26.7422  -52.5493 H         1 UNK         0.0600 
    209 H209       -1.0724  -25.5721  -51.5856 H         1 UNK         0.0600 
    210 H210       -3.1716  -26.6848  -50.5293 H         1 UNK         0.3000 
    211 H211       -4.2354  -29.0570  -52.0333 H         1 UNK         0.0600 
    212 H212       -4.6642  -26.0745  -52.6056 H         1 UNK         0.0600 
    213 H213       -5.4251  -27.4040  -53.4730 H         1 UNK         0.0600 
    214 H214       -3.6882  -27.1756  -53.5759 H         1 UNK         0.0600 
    215 H215       -4.6124  -27.2139  -49.2449 H         1 UNK         0.3000 
    216 H216       -6.1743  -26.9639  -47.6837 H         1 UNK         0.0600 
    217 H217       -7.9810  -28.5503  -47.3953 H         1 UNK         0.0600 
    218 H218       -6.5620  -29.4238  -47.9450 H         1 UNK         0.0600 
    219 H219       -7.8811  -29.0805  -49.0650 H         1 UNK         0.0600 
    220 H220       -6.3987  -25.6185  -50.4926 H         1 UNK         0.3000 
    221 H221       -9.1969  -24.8354  -50.6678 H         1 UNK         0.0600 
    222 H222       -6.7052  -23.8868  -52.1882 H         1 UNK         0.0600 
    223 H223       -7.8020  -25.1708  -52.6921 H         1 UNK         0.0600 
    224 H224       -8.3707  -23.5110  -52.6169 H         1 UNK         0.0600 
    225 H225       -6.2539  -23.4525  -49.3642 H         1 UNK         0.3000 
    226 H226       -5.6552  -21.6265  -48.2947 H         1 UNK         0.0600 
    227 H227       -7.4584  -22.2927  -46.7097 H         1 UNK         0.0600 
    228 H228       -7.1927  -20.5583  -46.7163 H         1 UNK         0.0600 
    229 H229       -8.5892  -21.2293  -47.5474 H         1 UNK         0.0600 
    230 H230       -6.8179  -21.3614  -51.1620 H         1 UNK         0.3000 
    231 H231       -7.7746  -18.6625  -51.4002 H         1 UNK         0.0600 
    232 H232       -7.0306  -20.7447  -53.5177 H         1 UNK         0.0600 
    233 H233       -7.9726  -19.2828  -53.7913 H         1 UNK         0.0600 
    234 H234       -8.6172  -20.5563  -52.7712 H         1 UNK         0.0600 
    235 H235       -5.4069  -18.3008  -50.2197 H         1 UNK         0.3000 
    236 H236       -3.4707  -17.1620  -50.2239 H         1 UNK         0.0600 
    237 H237       -5.1543  -15.4264  -50.8014 H         1 UNK         0.0600 
    238 H238       -3.5733  -15.0245  -51.4470 H         1 UNK         0.0600 
    239 H239       -4.8188  -15.6588  -52.5173 H         1 UNK         0.0600 
    240 H240       -3.1627  -19.5340  -51.6807 H         1 UNK         0.3000 
    241 H241       -1.8448  -20.7056  -52.9203 H         1 UNK         0.0600 
    242 H242       -3.3912  -19.1004  -56.0464 H         1 UNK         0.3800 
    243 H243       -3.8285  -18.7230  -54.3984 H         1 UNK         0.3800 
    244 H244       -0.0901  -19.0297  -51.7387 H         1 UNK         0.0800 
    245 H245        0.3101  -20.4408  -52.6417 H         1 UNK         0.0800 
    246 H246        0.4406  -16.5862  -52.5148 H         1 UNK         0.0800 
    247 H247        1.8176  -16.3149  -53.5432 H         1 UNK         0.0800 
@<TRIPOS>BOND
     1    1    2 1    
     2    1  127 1    
     3    1  128 1    
     4    1  129 1    
     5    2    3 2    
     6    2    4 am   BACKBONE|DICT|INTERRES
     7    4    5 1    
     8    4  130 1    
     9    5    6 1    
    10    5   65 1    
    11    5  131 1    
    12    6    7 1    
    13    6  132 1    
    14    6  133 1    
    15    7    8 1    
    16    8    9 1    
    17    8  134 1    
    18    8  135 1    
    19    9   10 ar   
    20    9   14 ar   
    21   10   11 ar   
    22   10  136 1    
    23   11   12 ar   
    24   11  126 1    
    25   12   13 ar   
    26   12  137 1    
    27   13   14 ar   
    28   13   15 1    
    29   14  138 1    
    30   15   16 1    
    31   15  139 1    
    32   15  140 1    
    33   16   17 1    
    34   17   18 1    
    35   17  141 1    
    36   17  142 1    
    37   18   19 1    
    38   18   67 1    
    39   18  143 1    
    40   19   20 am   BACKBONE|DICT|INTERRES
    41   19  144 1    
    42   20   21 2    
    43   20   22 1    
    44   22   23 1    
    45   22   24 1    
    46   22  145 1    
    47   23  146 1    
    48   23  147 1    
    49   23  148 1    
    50   24   25 am   BACKBONE|DICT|INTERRES
    51   24  149 1    
    52   25   26 2    
    53   25   27 1    
    54   27   28 1    
    55   27   29 1    
    56   27  150 1    
    57   28  151 1    
    58   28  152 1    
    59   28  153 1    
    60   29   30 am   BACKBONE|DICT|INTERRES
    61   29  154 1    
    62   30   31 2    
    63   30   32 1    
    64   32   33 1    
    65   32   34 1    
    66   32  155 1    
    67   33  156 1    
    68   33  157 1    
    69   33  158 1    
    70   34   35 am   BACKBONE|DICT|INTERRES
    71   34  159 1    
    72   35   36 2    
    73   35   37 1    
    74   37   38 1    
    75   37   39 1    
    76   37  160 1    
    77   38  161 1    
    78   38  162 1    
    79   38  163 1    
    80   39   40 am   BACKBONE|DICT|INTERRES
    81   39  164 1    
    82   40   41 2    
    83   40   42 1    
    84   42   43 1    
    85   42   44 1    
    86   42  165 1    
    87   43  166 1    
    88   43  167 1    
    89   43  168 1    
    90   44   45 am   BACKBONE|DICT|INTERRES
    91   44  169 1    
    92   45   46 2    
    93   45   47 1    
    94   47   48 1    
    95   47   49 1    
    96   47  170 1    
    97   48  171 1    
    98   48  172 1    
    99   48  173 1    
   100   49   50 am   BACKBONE|DICT|INTERRES
   101   49  174 1    
   102   50   51 2    
   103   50   52 1    
   104   52   53 1    
   105   52   54 1    
   106   52  175 1    
   107   53  176 1    
   108   53  177 1    
   109   53  178 1    
   110   54   55 am   BACKBONE|DICT|INTERRES
   111   54  179 1    
   112   55   56 2    
   113   55   57 1    
   114   57   58 1    
   115   57   59 1    
   116   57  180 1    
   117   58  181 1    
   118   58  182 1    
   119   58  183 1    
   120   59   60 am   BACKBONE|DICT|INTERRES
   121   59  184 1    
   122   60   61 2    
   123   60   62 1    
   124   62   63 1    
   125   62   64 1    
   126   62  185 1    
   127   63  186 1    
   128   63  187 1    
   129   63  188 1    
   130   64   65 am   BACKBONE|DICT|INTERRES
   131   64  189 1    
   132   65   66 2    
   133   67   68 2    
   134   67   69 am   BACKBONE|DICT|INTERRES
   135   69   70 1    
   136   69  190 1    
   137   70   71 1    
   138   70   72 1    
   139   70  191 1    
   140   71  192 1    
   141   71  193 1    
   142   71  194 1    
   143   72   73 2    
   144   72   74 am   BACKBONE|DICT|INTERRES
   145   74   75 1    
   146   74  195 1    
   147   75   76 1    
   148   75   77 1    
   149   75  196 1    
   150   76  197 1    
   151   76  198 1    
   152   76  199 1    
   153   77   78 2    
   154   77   79 am   BACKBONE|DICT|INTERRES
   155   79   80 1    
   156   79  200 1    
   157   80   81 1    
   158   80   82 1    
   159   80  201 1    
   160   81  202 1    
   161   81  203 1    
   162   81  204 1    
   163   82   83 2    
   164   82   84 am   BACKBONE|DICT|INTERRES
   165   84   85 1    
   166   84  205 1    
   167   85   86 1    
   168   85   87 1    
   169   85  206 1    
   170   86  207 1    
   171   86  208 1    
   172   86  209 1    
   173   87   88 2    
   174   87   89 am   BACKBONE|DICT|INTERRES
   175   89   90 1    
   176   89  210 1    
   177   90   91 1    
   178   90   92 1    
   179   90  211 1    
   180   91  212 1    
   181   91  213 1    
   182   91  214 1    
   183   92   93 2    
   184   92   94 am   BACKBONE|DICT|INTERRES
   185   94   95 1    
   186   94  215 1    
   187   95   96 1    
   188   95   97 1    
   189   95  216 1    
   190   96  217 1    
   191   96  218 1    
   192   96  219 1    
   193   97   98 2    
   194   97   99 am   BACKBONE|DICT|INTERRES
   195   99  100 1    
   196   99  220 1    
   197  100  101 1    
   198  100  102 1    
   199  100  221 1    
   200  101  222 1    
   201  101  223 1    
   202  101  224 1    
   203  102  103 2    
   204  102  104 am   BACKBONE|DICT|INTERRES
   205  104  105 1    
   206  104  225 1    
   207  105  106 1    
   208  105  107 1    
   209  105  226 1    
   210  106  227 1    
   211  106  228 1    
   212  106  229 1    
   213  107  108 2    
   214  107  109 am   BACKBONE|DICT|INTERRES
   215  109  110 1    
   216  109  230 1    
   217  110  111 1    
   218  110  112 1    
   219  110  231 1    
   220  111  232 1    
   221  111  233 1    
   222  111  234 1    
   223  112  113 2    
   224  112  114 am   BACKBONE|DICT|INTERRES
   225  114  115 1    
   226  114  235 1    
   227  115  116 1    
   228  115  117 1    
   229  115  236 1    
   230  116  237 1    
   231  116  238 1    
   232  116  239 1    
   233  117  118 2    
   234  117  119 am   BACKBONE|DICT|INTERRES
   235  119  120 1    
   236  119  240 1    
   237  120  121 1    
   238  120  124 1    
   239  120  241 1    
   240  121  122 am   BACKBONE|DICT|INTERRES
   241  121  123 2    
   242  122  242 1    
   243  122  243 1    
   244  124  125 1    
   245  124  244 1    
   246  124  245 1    
   247  125  126 1    
   248  126  246 1    
   249  126  247 1    
@<TRIPOS>SUBSTRUCTURE
     1 UNK         1 GROUP             0       ****    0 ROOT    
