@<TRIPOS>MOLECULE
3R540
247   249    1
SMALL
USER_CHARGES


@<TRIPOS>ATOM
      1 CA          4.4950   -9.5735  -46.8294 C.3       0 UNK        -0.1800 
      2 C           3.7592  -10.8899  -47.0314 C.2       0 UNK         0.5000 
      3 O           2.5556  -10.8852  -47.2912 O.2       0 UNK        -0.5000 
      4 N           4.4740  -12.0158  -46.8970 N.am      1 UNK        -0.5000 
      5 CA          3.9719  -13.3896  -47.0189 C.3       1 UNK         0.1400 
      6 C6          3.6060  -13.7635  -48.4854 C.3       23 UNK        -0.0398 
      7 S7          3.9312  -15.5178  -48.8673 S.3       23 UNK        -0.2404 
      8 C8          2.2665  -16.2532  -48.8422 C.3       23 UNK        -0.0205 
      9 C9          2.2780  -17.6420  -49.4673 C.ar      23 UNK        -0.0193 
     10 C10         1.7414  -17.8468  -50.7426 C.ar      23 UNK        -0.1150 
     11 C11         1.7722  -19.1149  -51.3411 C.ar      23 UNK        -0.0193 
     12 C12         2.3607  -20.1747  -50.6417 C.ar      23 UNK        -0.1150 
     13 C13         2.9110  -19.9832  -49.3706 C.ar      23 UNK        -0.0193 
     14 C14         2.8500  -18.7171  -48.7822 C.ar      23 UNK        -0.1150 
     15 C15         3.6421  -21.1224  -48.6696 C.3       23 UNK        -0.0205 
     16 S16         2.5316  -22.4264  -48.0511 S.3       23 UNK        -0.2404 
     17 C17         1.6828  -21.5699  -46.6819 C.3       23 UNK        -0.0398 
     18 CA          0.1526  -21.7902  -46.6798 C.3       11 UNK         0.1400 
     19 N          -0.4568  -21.3272  -45.4312 N.am      11 UNK        -0.5000 
     20 C          -1.7378  -21.5159  -45.0829 C.2       10 UNK         0.5000 
     21 O          -2.5409  -22.1687  -45.7491 O.2       10 UNK        -0.5000 
     22 CA         -2.2160  -20.7997  -43.8062 C.3       10 UNK         0.1400 
     23 CB         -1.8132  -21.5818  -42.5475 C.3       10 UNK        -0.1800 
     24 N          -1.7076  -19.4300  -43.7204 N.am      10 UNK        -0.5000 
     25 C          -2.0072  -18.4575  -44.5929 C.2       9 UNK         0.5000 
     26 O          -2.8094  -18.5926  -45.5162 O.2       9 UNK        -0.5000 
     27 CA         -1.2415  -17.1319  -44.4453 C.3       9 UNK         0.1400 
     28 CB         -1.8743  -16.2481  -43.3612 C.3       9 UNK        -0.1800 
     29 N           0.1828  -17.3368  -44.1678 N.am      9 UNK        -0.5000 
     30 C           1.0426  -17.8890  -45.0364 C.2       8 UNK         0.5000 
     31 O           0.7320  -18.2114  -46.1793 O.2       8 UNK        -0.5000 
     32 CA          2.4685  -18.1896  -44.5427 C.3       8 UNK         0.1400 
     33 CB          3.4083  -17.0033  -44.7783 C.3       8 UNK        -0.1800 
     34 N           2.4927  -18.5654  -43.1325 N.am      8 UNK        -0.5000 
     35 C           2.0265  -19.7291  -42.6597 C.2       7 UNK         0.5000 
     36 O           1.5864  -20.6295  -43.3749 O.2       7 UNK        -0.5000 
     37 CA          1.9959  -19.8783  -41.1280 C.3       7 UNK         0.1400 
     38 CB          3.3660  -20.3258  -40.5977 C.3       7 UNK        -0.1800 
     39 N           1.5979  -18.6345  -40.4639 N.am      7 UNK        -0.5000 
     40 C           0.3810  -18.0812  -40.5701 C.2       6 UNK         0.5000 
     41 O          -0.5485  -18.6030  -41.1843 O.2       6 UNK        -0.5000 
     42 CA          0.1823  -16.6970  -39.9248 C.3       6 UNK         0.1400 
     43 CB         -0.3183  -16.8441  -38.4806 C.3       6 UNK        -0.1800 
     44 N           1.3983  -15.8793  -39.9363 N.am      6 UNK        -0.5000 
     45 C           1.9622  -15.3627  -41.0364 C.2       5 UNK         0.5000 
     46 O           1.5188  -15.5215  -42.1752 O.2       5 UNK        -0.5000 
     47 CA          3.2810  -14.6105  -40.8238 C.3       5 UNK         0.1400 
     48 CB          4.4781  -15.5510  -41.0496 C.3       5 UNK        -0.1800 
     49 N           3.3842  -13.4619  -41.7223 N.am      5 UNK        -0.5000 
     50 C           4.0458  -12.3363  -41.4170 C.2       4 UNK         0.5000 
     51 O           4.5985  -12.1482  -40.3318 O.2       4 UNK        -0.5000 
     52 CA          4.1213  -11.2288  -42.4811 C.3       4 UNK         0.1400 
     53 CB          5.3448  -11.4368  -43.3882 C.3       4 UNK        -0.1800 
     54 N           2.9138  -11.1544  -43.3019 N.am      4 UNK        -0.5000 
     55 C           1.8872  -10.3241  -43.0664 C.2       3 UNK         0.5000 
     56 O           1.8433   -9.5559  -42.1046 O.2       3 UNK        -0.5000 
     57 CA          0.7179  -10.3213  -44.0727 C.3       3 UNK         0.1400 
     58 CB          0.7572   -9.0565  -44.9448 C.3       3 UNK        -0.1800 
     59 N           0.7147  -11.4990  -44.9406 N.am      3 UNK        -0.5000 
     60 C           0.2061  -12.6858  -44.5817 C.2       2 UNK         0.5000 
     61 O          -0.3936  -12.8715  -43.5236 O.2       2 UNK        -0.5000 
     62 CA          0.4191  -13.8690  -45.5486 C.3       2 UNK         0.1400 
     63 CB         -0.8163  -14.0647  -46.4402 C.3       2 UNK        -0.1800 
     64 N           1.5977  -13.7385  -46.4071 N.am      2 UNK        -0.5000 
     65 C           2.8614  -13.6404  -45.9740 C.2       1 UNK         0.5000 
     66 O           3.1648  -13.6651  -44.7808 O.2       1 UNK        -0.5000 
     67 C          -0.5316  -21.1712  -47.9176 C.2       11 UNK         0.5000 
     68 O          -0.8755  -21.9087  -48.8403 O.2       11 UNK        -0.5000 
     69 N          -0.7629  -19.8507  -47.8942 N.am      12 UNK        -0.5000 
     70 CA         -1.4490  -19.1057  -48.9484 C.3       12 UNK         0.1400 
     71 CB         -1.3964  -17.6002  -48.6471 C.3       12 UNK        -0.1800 
     72 C          -2.9053  -19.5551  -49.1550 C.2       12 UNK         0.5000 
     73 O          -3.3476  -19.6698  -50.2978 O.2       12 UNK        -0.5000 
     74 N          -3.6177  -19.8111  -48.0503 N.am      13 UNK        -0.5000 
     75 CA         -4.9869  -20.3213  -48.0522 C.3       13 UNK         0.1400 
     76 CB         -5.5650  -20.2388  -46.6313 C.3       13 UNK        -0.1800 
     77 C          -5.0857  -21.7558  -48.6021 C.2       13 UNK         0.5000 
     78 O          -6.0221  -22.0514  -49.3440 O.2       13 UNK        -0.5000 
     79 N          -4.1247  -22.6135  -48.2305 N.am      14 UNK        -0.5000 
     80 CA         -4.0318  -23.9982  -48.6869 C.3       14 UNK         0.1400 
     81 CB         -3.0709  -24.7808  -47.7771 C.3       14 UNK        -0.1800 
     82 C          -3.6064  -24.0977  -50.1613 C.2       14 UNK         0.5000 
     83 O          -4.3392  -24.6828  -50.9583 O.2       14 UNK        -0.5000 
     84 N          -2.4325  -23.5311  -50.4797 N.am      15 UNK        -0.5000 
     85 CA         -1.7586  -23.4690  -51.7802 C.3       15 UNK         0.1400 
     86 CB         -2.3508  -22.3229  -52.6151 C.3       15 UNK        -0.1800 
     87 C          -1.7249  -24.8176  -52.5279 C.2       15 UNK         0.5000 
     88 O          -0.8486  -25.6393  -52.2572 O.2       15 UNK        -0.5000 
     89 N          -2.6871  -25.0265  -53.4366 N.am      16 UNK        -0.5000 
     90 CA         -2.8840  -26.2533  -54.2114 C.3       16 UNK         0.1400 
     91 CB         -3.8424  -25.9331  -55.3703 C.3       16 UNK        -0.1800 
     92 C          -3.4231  -27.4467  -53.3907 C.2       16 UNK         0.5000 
     93 O          -3.4987  -28.5502  -53.9322 O.2       16 UNK        -0.5000 
     94 N          -3.8131  -27.2039  -52.1295 N.am      17 UNK        -0.5000 
     95 CA         -4.5352  -28.0992  -51.2189 C.3       17 UNK         0.1400 
     96 CB         -3.7466  -29.3934  -50.9281 C.3       17 UNK        -0.1800 
     97 C          -5.9710  -28.3386  -51.7240 C.2       17 UNK         0.5000 
     98 O          -6.4433  -29.4755  -51.7817 O.2       17 UNK        -0.5000 
     99 N          -6.6232  -27.2371  -52.1073 N.am      18 UNK        -0.5000 
    100 CA        -7.9530  -27.1652  -52.6979 C.3       18 UNK         0.1400 
    101 CB        -7.8734  -27.5536  -54.1897 C.3       18 UNK        -0.1800 
    102 C         -8.4890  -25.7365  -52.4981 C.2       18 UNK         0.5000 
    103 O         -7.8632  -24.9373  -51.7974 O.2       18 UNK        -0.5000 
    104 N         -9.6226  -25.4209  -53.1387 N.am      19 UNK        -0.5000 
    105 CA       -10.2300  -24.0840  -53.1512 C.3       19 UNK         0.1400 
    106 CB       -11.6383  -24.1847  -53.7576 C.3       19 UNK        -0.1800 
    107 C         -9.3932  -23.0245  -53.9026 C.2       19 UNK         0.5000 
    108 O         -9.6047  -21.8278  -53.6994 O.2       19 UNK        -0.5000 
    109 N         -8.4614  -23.4765  -54.7530 N.am      20 UNK        -0.5000 
    110 CA        -7.4908  -22.6614  -55.4784 C.3       20 UNK         0.1400 
    111 CB        -6.9452  -23.4840  -56.6595 C.3       20 UNK        -0.1800 
    112 C         -6.3712  -22.1573  -54.5438 C.2       20 UNK         0.5000 
    113 O         -5.2634  -22.6978  -54.5553 O.2       20 UNK        -0.5000 
    114 N         -6.6981  -21.1381  -53.7399 N.am      21 UNK        -0.5000 
    115 CA        -5.7749  -20.3981  -52.8780 C.3       21 UNK         0.1400 
    116 CB        -6.5963  -19.4948  -51.9442 C.3       21 UNK        -0.1800 
    117 C         -4.7626  -19.5625  -53.6912 C.2       21 UNK         0.5000 
    118 O         -4.9947  -19.2773  -54.8697 O.2       21 UNK        -0.5000 
    119 N         -3.6639  -19.1734  -53.0368 N.am      22 UNK        -0.5000 
    120 CA        -2.5871  -18.3442  -53.5963 C.3       22 UNK         0.1400 
    121 C         -3.0591  -16.9087  -53.9668 C.2       22 UNK         0.5000 
    122 N         -2.5919  -16.3604  -55.0802 N.am      22 UNK        -0.7600 
    123 O         -3.8152  -16.2745  -53.2340 O.2       22 UNK        -0.5000 
    124 C124       -1.3710  -18.3042  -52.6339 C.3       23 UNK        -0.0398 
    125 S125        0.2151  -18.0705  -53.5024 S.3       23 UNK        -0.2404 
    126 C126        1.2493  -19.3835  -52.7568 C.3       23 UNK        -0.0205 
    127 H127        4.3145   -8.9089  -47.6742 H         1 UNK         0.0600 
    128 H128        5.5712   -9.7212  -46.7376 H         1 UNK         0.0600 
    129 H129        4.1405   -9.0813  -45.9240 H         1 UNK         0.0600 
    130 H130        5.4534  -11.9422  -46.6598 H         1 UNK         0.3000 
    131 H131        4.8109  -14.0165  -46.7122 H         1 UNK         0.0600 
    132 H132        4.2496  -13.2017  -49.1639 H         1 UNK         0.0800 
    133 H133        2.5950  -13.4728  -48.7713 H         1 UNK         0.0800 
    134 H134        1.5702  -15.6054  -49.3768 H         1 UNK         0.0800 
    135 H135        1.9077  -16.3162  -47.8143 H         1 UNK         0.0800 
    136 H136        1.3193  -17.0039  -51.2688 H         1 UNK         0.1150 
    137 H137        2.4172  -21.1525  -51.0996 H         1 UNK         0.1150 
    138 H138        3.2794  -18.5539  -47.8041 H         1 UNK         0.1150 
    139 H139        4.3454  -21.5719  -49.3720 H         1 UNK         0.0800 
    140 H140        4.2457  -20.7446  -47.8427 H         1 UNK         0.0800 
    141 H141        1.9136  -20.5065  -46.7097 H         1 UNK         0.0800 
    142 H142        2.1117  -21.9459  -45.7522 H         1 UNK         0.0800 
    143 H143       -0.0235  -22.8673  -46.7236 H         1 UNK         0.0600 
    144 H144        0.1473  -20.8211  -44.7925 H         1 UNK         0.3000 
    145 H145       -3.3063  -20.7500  -43.8411 H         1 UNK         0.0600 
    146 H146       -2.2008  -21.1044  -41.6473 H         1 UNK         0.0600 
    147 H147       -0.7306  -21.6559  -42.4449 H         1 UNK         0.0600 
    148 H148       -2.2109  -22.5970  -42.5757 H         1 UNK         0.0600 
    149 H149       -1.0893  -19.2153  -42.9434 H         1 UNK         0.3000 
    150 H150       -1.3185  -16.6067  -45.3972 H         1 UNK         0.0600 
    151 H151       -2.8769  -15.9365  -43.6560 H         1 UNK         0.0600 
    152 H152       -1.2893  -15.3456  -43.1901 H         1 UNK         0.0600 
    153 H153       -1.9659  -16.7708  -42.4102 H         1 UNK         0.0600 
    154 H154        0.5287  -17.0284  -43.2670 H         1 UNK         0.3000 
    155 H155        2.8495  -19.0301  -45.1253 H         1 UNK         0.0600 
    156 H156        3.3957  -16.6930  -45.8233 H         1 UNK         0.0600 
    157 H157        4.4377  -17.2592  -44.5277 H         1 UNK         0.0600 
    158 H158        3.1213  -16.1465  -44.1721 H         1 UNK         0.0600 
    159 H159        2.7989  -17.8611  -42.4789 H         1 UNK         0.3000 
    160 H160        1.2627  -20.6493  -40.8813 H         1 UNK         0.0600 
    161 H161        4.1393  -19.5822  -40.7946 H         1 UNK         0.0600 
    162 H162        3.6799  -21.2587  -41.0681 H         1 UNK         0.0600 
    163 H163        3.3341  -20.5004  -39.5221 H         1 UNK         0.0600 
    164 H164        2.3039  -18.1526  -39.9278 H         1 UNK         0.3000 
    165 H165       -0.5832  -16.1703  -40.4979 H         1 UNK         0.0600 
    166 H166       -0.5365  -15.8721  -38.0378 H         1 UNK         0.0600 
    167 H167       -1.2382  -17.4295  -38.4445 H         1 UNK         0.0600 
    168 H168        0.4149  -17.3455  -37.8477 H         1 UNK         0.0600 
    169 H169        1.8309  -15.7112  -39.0392 H         1 UNK         0.3000 
    170 H170        3.2979  -14.2635  -39.7883 H         1 UNK         0.0600 
    171 H171        4.5293  -15.8936  -42.0836 H         1 UNK         0.0600 
    172 H172        5.4194  -15.0522  -40.8185 H         1 UNK         0.0600 
    173 H173        4.4150  -16.4329  -40.4111 H         1 UNK         0.0600 
    174 H174        2.9581  -13.5734  -42.6366 H         1 UNK         0.3000 
    175 H175        4.2659  -10.2813  -41.9573 H         1 UNK         0.0600 
    176 H176        5.2959  -12.3812  -43.9299 H         1 UNK         0.0600 
    177 H177        5.4352  -10.6327  -44.1179 H         1 UNK         0.0600 
    178 H178        6.2646  -11.4463  -42.8022 H         1 UNK         0.0600 
    179 H179        2.8505  -11.8211  -44.0623 H         1 UNK         0.3000 
    180 H180       -0.2095  -10.2978  -43.4965 H         1 UNK         0.0600 
    181 H181        1.6774   -8.9921  -45.5246 H         1 UNK         0.0600 
    182 H182        0.6950   -8.1572  -44.3308 H         1 UNK         0.0600 
    183 H183       -0.0805   -9.0316  -45.6418 H         1 UNK         0.0600 
    184 H184        1.2000  -11.4124  -45.8280 H         1 UNK         0.3000 
    185 H185        0.5580  -14.7600  -44.9362 H         1 UNK         0.0600 
    186 H186       -0.9816  -13.2047  -47.0902 H         1 UNK         0.0600 
    187 H187       -0.7121  -14.9470  -47.0720 H         1 UNK         0.0600 
    188 H188       -1.7167  -14.1971  -45.8389 H         1 UNK         0.0600 
    189 H189        1.4156  -13.6345  -47.3935 H         1 UNK         0.3000 
    190 H190       -0.3850  -19.2983  -47.1277 H         1 UNK         0.3000 
    191 H191       -0.9003  -19.2904  -49.8716 H         1 UNK         0.0600 
    192 H192       -1.9347  -17.3517  -47.7330 H         1 UNK         0.0600 
    193 H193       -1.8435  -17.0226  -49.4565 H         1 UNK         0.0600 
    194 H194       -0.3715  -17.2556  -48.5295 H         1 UNK         0.0600 
    195 H195       -3.1981  -19.6241  -47.1442 H         1 UNK         0.3000 
    196 H196       -5.5846  -19.6756  -48.6991 H         1 UNK         0.0600 
    197 H197       -5.5662  -19.2117  -46.2660 H         1 UNK         0.0600 
    198 H198       -4.9913  -20.8423  -45.9273 H         1 UNK         0.0600 
    199 H199       -6.5956  -20.5950  -46.6073 H         1 UNK         0.0600 
    200 H200       -3.4148  -22.2995  -47.5766 H         1 UNK         0.3000 
    201 H201       -5.0203  -24.4539  -48.5960 H         1 UNK         0.0600 
    202 H202       -3.4336  -24.7998  -46.7493 H         1 UNK         0.0600 
    203 H203       -2.0724  -24.3423  -47.7671 H         1 UNK         0.0600 
    204 H204       -2.9741  -25.8157  -48.1078 H         1 UNK         0.0600 
    205 H205       -1.9265  -23.0484  -49.7381 H         1 UNK         0.3000 
    206 H206       -0.7194  -23.2114  -51.5699 H         1 UNK         0.0600 
    207 H207       -1.8788  -22.2521  -53.5958 H         1 UNK         0.0600 
    208 H208       -3.4212  -22.4469  -52.7629 H         1 UNK         0.0600 
    209 H209       -2.1964  -21.3724  -52.1096 H         1 UNK         0.0600 
    210 H210       -3.3858  -24.3055  -53.5632 H         1 UNK         0.3000 
    211 H211       -1.9213  -26.5526  -54.6304 H         1 UNK         0.0600 
    212 H212       -4.8260  -25.6400  -55.0012 H         1 UNK         0.0600 
    213 H213       -3.9796  -26.7980  -56.0205 H         1 UNK         0.0600 
    214 H214       -3.4610  -25.1200  -55.9884 H         1 UNK         0.0600 
    215 H215       -3.7632  -26.2384  -51.8130 H         1 UNK         0.3000 
    216 H216       -4.6292  -27.5588  -50.2757 H         1 UNK         0.0600 
    217 H217       -4.2269  -29.9673  -50.1350 H         1 UNK         0.0600 
    218 H218       -2.7316  -29.1705  -50.5991 H         1 UNK         0.0600 
    219 H219       -3.6825  -30.0423  -51.8016 H         1 UNK         0.0600 
    220 H220       -6.1972  -26.3302  -51.9502 H         1 UNK         0.3000 
    221 H221       -8.6194  -27.8511  -52.1715 H         1 UNK         0.0600 
    222 H222       -7.2533  -26.8549  -54.7529 H         1 UNK         0.0600 
    223 H223       -7.4472  -28.5487  -54.3178 H         1 UNK         0.0600 
    224 H224       -8.8596  -27.5724  -54.6540 H         1 UNK         0.0600 
    225 H225      -10.0892  -26.1289  -53.6873 H         1 UNK         0.3000 
    226 H226      -10.3264  -23.7458  -52.1173 H         1 UNK         0.0600 
    227 H227      -12.2657  -24.8706  -53.1880 H         1 UNK         0.0600 
    228 H228      -12.1361  -23.2140  -53.7545 H         1 UNK         0.0600 
    229 H229      -11.6076  -24.5342  -54.7903 H         1 UNK         0.0600 
    230 H230       -8.3554  -24.4753  -54.8405 H         1 UNK         0.3000 
    231 H231       -8.0002  -21.7878  -55.8907 H         1 UNK         0.0600 
    232 H232       -6.2010  -22.9162  -57.2195 H         1 UNK         0.0600 
    233 H233       -7.7415  -23.7491  -57.3552 H         1 UNK         0.0600 
    234 H234       -6.4716  -24.4078  -56.3266 H         1 UNK         0.0600 
    235 H235       -7.6543  -20.8079  -53.7660 H         1 UNK         0.3000 
    236 H236       -5.2272  -21.1161  -52.2651 H         1 UNK         0.0600 
    237 H237       -7.1790  -18.7616  -52.5030 H         1 UNK         0.0600 
    238 H238       -7.2848  -20.0817  -51.3356 H         1 UNK         0.0600 
    239 H239       -5.9486  -18.9468  -51.2586 H         1 UNK         0.0600 
    240 H240       -3.5809  -19.3980  -52.0460 H         1 UNK         0.3000 
    241 H241       -2.2790  -18.8460  -54.5160 H         1 UNK         0.0600 
    242 H242       -2.8792  -15.4257  -55.3255 H         1 UNK         0.3800 
    243 H243       -1.9497  -16.8545  -55.6805 H         1 UNK         0.3800 
    244 H244       -1.4850  -17.5339  -51.8694 H         1 UNK         0.0800 
    245 H245       -1.3044  -19.2471  -52.0952 H         1 UNK         0.0800 
    246 H246        2.1132  -19.5320  -53.4058 H         1 UNK         0.0800 
    247 H247        0.6950  -20.3234  -52.7720 H         1 UNK         0.0800 
@<TRIPOS>BOND
     1    1    2 1    
     2    1  127 1    
     3    1  128 1    
     4    1  129 1    
     5    2    3 2    
     6    2    4 am   BACKBONE|DICT|INTERRES
     7    4    5 1    
     8    4  130 1    
     9    5    6 1    
    10    5   65 1    
    11    5  131 1    
    12    6    7 1    
    13    6  132 1    
    14    6  133 1    
    15    7    8 1    
    16    8    9 1    
    17    8  134 1    
    18    8  135 1    
    19    9   10 ar   
    20    9   14 ar   
    21   10   11 ar   
    22   10  136 1    
    23   11   12 ar   
    24   11  126 1    
    25   12   13 ar   
    26   12  137 1    
    27   13   14 ar   
    28   13   15 1    
    29   14  138 1    
    30   15   16 1    
    31   15  139 1    
    32   15  140 1    
    33   16   17 1    
    34   17   18 1    
    35   17  141 1    
    36   17  142 1    
    37   18   19 1    
    38   18   67 1    
    39   18  143 1    
    40   19   20 am   BACKBONE|DICT|INTERRES
    41   19  144 1    
    42   20   21 2    
    43   20   22 1    
    44   22   23 1    
    45   22   24 1    
    46   22  145 1    
    47   23  146 1    
    48   23  147 1    
    49   23  148 1    
    50   24   25 am   BACKBONE|DICT|INTERRES
    51   24  149 1    
    52   25   26 2    
    53   25   27 1    
    54   27   28 1    
    55   27   29 1    
    56   27  150 1    
    57   28  151 1    
    58   28  152 1    
    59   28  153 1    
    60   29   30 am   BACKBONE|DICT|INTERRES
    61   29  154 1    
    62   30   31 2    
    63   30   32 1    
    64   32   33 1    
    65   32   34 1    
    66   32  155 1    
    67   33  156 1    
    68   33  157 1    
    69   33  158 1    
    70   34   35 am   BACKBONE|DICT|INTERRES
    71   34  159 1    
    72   35   36 2    
    73   35   37 1    
    74   37   38 1    
    75   37   39 1    
    76   37  160 1    
    77   38  161 1    
    78   38  162 1    
    79   38  163 1    
    80   39   40 am   BACKBONE|DICT|INTERRES
    81   39  164 1    
    82   40   41 2    
    83   40   42 1    
    84   42   43 1    
    85   42   44 1    
    86   42  165 1    
    87   43  166 1    
    88   43  167 1    
    89   43  168 1    
    90   44   45 am   BACKBONE|DICT|INTERRES
    91   44  169 1    
    92   45   46 2    
    93   45   47 1    
    94   47   48 1    
    95   47   49 1    
    96   47  170 1    
    97   48  171 1    
    98   48  172 1    
    99   48  173 1    
   100   49   50 am   BACKBONE|DICT|INTERRES
   101   49  174 1    
   102   50   51 2    
   103   50   52 1    
   104   52   53 1    
   105   52   54 1    
   106   52  175 1    
   107   53  176 1    
   108   53  177 1    
   109   53  178 1    
   110   54   55 am   BACKBONE|DICT|INTERRES
   111   54  179 1    
   112   55   56 2    
   113   55   57 1    
   114   57   58 1    
   115   57   59 1    
   116   57  180 1    
   117   58  181 1    
   118   58  182 1    
   119   58  183 1    
   120   59   60 am   BACKBONE|DICT|INTERRES
   121   59  184 1    
   122   60   61 2    
   123   60   62 1    
   124   62   63 1    
   125   62   64 1    
   126   62  185 1    
   127   63  186 1    
   128   63  187 1    
   129   63  188 1    
   130   64   65 am   BACKBONE|DICT|INTERRES
   131   64  189 1    
   132   65   66 2    
   133   67   68 2    
   134   67   69 am   BACKBONE|DICT|INTERRES
   135   69   70 1    
   136   69  190 1    
   137   70   71 1    
   138   70   72 1    
   139   70  191 1    
   140   71  192 1    
   141   71  193 1    
   142   71  194 1    
   143   72   73 2    
   144   72   74 am   BACKBONE|DICT|INTERRES
   145   74   75 1    
   146   74  195 1    
   147   75   76 1    
   148   75   77 1    
   149   75  196 1    
   150   76  197 1    
   151   76  198 1    
   152   76  199 1    
   153   77   78 2    
   154   77   79 am   BACKBONE|DICT|INTERRES
   155   79   80 1    
   156   79  200 1    
   157   80   81 1    
   158   80   82 1    
   159   80  201 1    
   160   81  202 1    
   161   81  203 1    
   162   81  204 1    
   163   82   83 2    
   164   82   84 am   BACKBONE|DICT|INTERRES
   165   84   85 1    
   166   84  205 1    
   167   85   86 1    
   168   85   87 1    
   169   85  206 1    
   170   86  207 1    
   171   86  208 1    
   172   86  209 1    
   173   87   88 2    
   174   87   89 am   BACKBONE|DICT|INTERRES
   175   89   90 1    
   176   89  210 1    
   177   90   91 1    
   178   90   92 1    
   179   90  211 1    
   180   91  212 1    
   181   91  213 1    
   182   91  214 1    
   183   92   93 2    
   184   92   94 am   BACKBONE|DICT|INTERRES
   185   94   95 1    
   186   94  215 1    
   187   95   96 1    
   188   95   97 1    
   189   95  216 1    
   190   96  217 1    
   191   96  218 1    
   192   96  219 1    
   193   97   98 2    
   194   97   99 am   BACKBONE|DICT|INTERRES
   195   99  100 1    
   196   99  220 1    
   197  100  101 1    
   198  100  102 1    
   199  100  221 1    
   200  101  222 1    
   201  101  223 1    
   202  101  224 1    
   203  102  103 2    
   204  102  104 am   BACKBONE|DICT|INTERRES
   205  104  105 1    
   206  104  225 1    
   207  105  106 1    
   208  105  107 1    
   209  105  226 1    
   210  106  227 1    
   211  106  228 1    
   212  106  229 1    
   213  107  108 2    
   214  107  109 am   BACKBONE|DICT|INTERRES
   215  109  110 1    
   216  109  230 1    
   217  110  111 1    
   218  110  112 1    
   219  110  231 1    
   220  111  232 1    
   221  111  233 1    
   222  111  234 1    
   223  112  113 2    
   224  112  114 am   BACKBONE|DICT|INTERRES
   225  114  115 1    
   226  114  235 1    
   227  115  116 1    
   228  115  117 1    
   229  115  236 1    
   230  116  237 1    
   231  116  238 1    
   232  116  239 1    
   233  117  118 2    
   234  117  119 am   BACKBONE|DICT|INTERRES
   235  119  120 1    
   236  119  240 1    
   237  120  121 1    
   238  120  124 1    
   239  120  241 1    
   240  121  122 am   BACKBONE|DICT|INTERRES
   241  121  123 2    
   242  122  242 1    
   243  122  243 1    
   244  124  125 1    
   245  124  244 1    
   246  124  245 1    
   247  125  126 1    
   248  126  246 1    
   249  126  247 1    
@<TRIPOS>SUBSTRUCTURE
     1 UNK         1 GROUP             0       ****    0 ROOT    
