@<TRIPOS>MOLECULE
3R540
247   249    1
SMALL
USER_CHARGES


@<TRIPOS>ATOM
      1 CA          5.0456  -20.5936  -50.6154 C.3       0 UNK        -0.1800 
      2 C           5.2291  -19.1847  -50.0684 C.2       0 UNK         0.5000 
      3 O           6.1544  -18.4821  -50.4767 O.2       0 UNK        -0.5000 
      4 N           4.3608  -18.7778  -49.1355 N.am      1 UNK        -0.5000 
      5 CA          4.3295  -17.4423  -48.5334 C.3       1 UNK         0.1400 
      6 C6          3.4990  -17.4377  -47.2252 C.3       23 UNK        -0.0398 
      7 S7          1.7563  -17.9478  -47.4400 S.3       23 UNK        -0.2404 
      8 C8          0.9238  -16.3477  -47.2442 C.3       23 UNK        -0.0205 
      9 C9         -0.4144  -16.3252  -47.9587 C.ar      23 UNK        -0.0193 
     10 C10        -0.4958  -15.8609  -49.2757 C.ar      23 UNK        -0.1150 
     11 C11        -1.7302  -15.7702  -49.9257 C.ar      23 UNK        -0.0193 
     12 C12        -2.8813  -16.1655  -49.2413 C.ar      23 UNK        -0.1150 
     13 C13        -2.8117  -16.6671  -47.9404 C.ar      23 UNK        -0.0193 
     14 C14        -1.5739  -16.7374  -47.2971 C.ar      23 UNK        -0.1150 
     15 C15        -4.0826  -17.1181  -47.2413 C.3       23 UNK        -0.0205 
     16 S16        -4.3918  -18.8914  -47.5088 S.3       23 UNK        -0.2404 
     17 C17        -3.4162  -19.6581  -46.1707 C.3       23 UNK        -0.0398 
     18 CA         -2.1564  -20.4158  -46.6595 C.3       11 UNK         0.1400 
     19 N          -1.1672  -20.5253  -45.5824 N.am      11 UNK        -0.5000 
     20 C           0.0874  -20.9791  -45.7252 C.2       10 UNK         0.5000 
     21 O           0.5623  -21.3400  -46.7986 O.2       10 UNK        -0.5000 
     22 CA          0.9375  -21.1198  -44.4476 C.3       10 UNK         0.1400 
     23 CB          1.7481  -19.8447  -44.2016 C.3       10 UNK        -0.1800 
     24 N           0.1430  -21.4211  -43.2582 N.am      10 UNK        -0.5000 
     25 C          -0.6104  -22.5202  -43.1035 C.2       9 UNK         0.5000 
     26 O          -0.6504  -23.4347  -43.9281 O.2       9 UNK        -0.5000 
     27 CA         -1.5159  -22.5837  -41.8565 C.3       9 UNK         0.1400 
     28 CB         -0.8624  -23.4443  -40.7656 C.3       9 UNK        -0.1800 
     29 N          -1.8466  -21.2707  -41.2929 N.am      9 UNK        -0.5000 
     30 C          -2.4733  -20.2745  -41.9375 C.2       8 UNK         0.5000 
     31 O          -2.8888  -20.3672  -43.0926 O.2       8 UNK        -0.5000 
     32 CA         -2.6114  -18.9335  -41.1904 C.3       8 UNK         0.1400 
     33 CB         -4.0200  -18.7962  -40.5939 C.3       8 UNK        -0.1800 
     34 N          -1.6183  -18.7362  -40.1280 N.am      8 UNK        -0.5000 
     35 C          -0.2964  -18.6296  -40.3180 C.2       7 UNK         0.5000 
     36 O           0.2515  -18.7189  -41.4202 O.2       7 UNK        -0.5000 
     37 CA          0.5548  -18.4436  -39.0565 C.3       7 UNK         0.1400 
     38 CB          0.8335  -19.8004  -38.3843 C.3       7 UNK        -0.1800 
     39 N           1.8128  -17.8038  -39.4228 N.am      7 UNK        -0.5000 
     40 C           2.5850  -17.0814  -38.6027 C.2       6 UNK         0.5000 
     41 O           2.3217  -16.8879  -37.4149 O.2       6 UNK        -0.5000 
     42 CA          3.8718  -16.4727  -39.1959 C.3       6 UNK         0.1400 
     43 CB          5.0876  -17.3420  -38.8379 C.3       6 UNK        -0.1800 
     44 N           3.8250  -16.3015  -40.6504 N.am      6 UNK        -0.5000 
     45 C           3.1152  -15.3585  -41.2816 C.2       5 UNK         0.5000 
     46 O           2.4224  -14.5146  -40.7054 O.2       5 UNK        -0.5000 
     47 CA          3.1839  -15.3754  -42.8147 C.3       5 UNK         0.1400 
     48 CB          2.3641  -16.5448  -43.3850 C.3       5 UNK        -0.1800 
     49 N           2.6795  -14.1071  -43.3273 N.am      5 UNK        -0.5000 
     50 C           2.9042  -13.6175  -44.5485 C.2       4 UNK         0.5000 
     51 O           3.5630  -14.1997  -45.4152 O.2       4 UNK        -0.5000 
     52 CA          2.3203  -12.2240  -44.8406 C.3       4 UNK         0.1400 
     53 CB          3.2975  -11.1257  -44.3936 C.3       4 UNK        -0.1800 
     54 N           2.0628  -12.0721  -46.2702 N.am      4 UNK        -0.5000 
     55 C           1.0070  -12.5953  -46.9069 C.2       3 UNK         0.5000 
     56 O           0.0558  -13.1311  -46.3394 O.2       3 UNK        -0.5000 
     57 CA          1.0650  -12.5570  -48.4374 C.3       3 UNK         0.1400 
     58 CB          0.8894  -11.1163  -48.9594 C.3       3 UNK        -0.1800 
     59 N           2.3358  -13.1401  -48.8698 N.am      3 UNK        -0.5000 
     60 C           2.6766  -13.4391  -50.1282 C.2       2 UNK         0.5000 
     61 O           1.9424  -13.2704  -51.1020 O.2       2 UNK        -0.5000 
     62 CA          4.0818  -14.0348  -50.3255 C.3       2 UNK         0.1400 
     63 CB          5.1607  -12.9517  -50.1637 C.3       2 UNK        -0.1800 
     64 N           4.3643  -15.1430  -49.4093 N.am      2 UNK        -0.5000 
     65 C           3.8536  -16.3743  -49.5482 C.2       1 UNK         0.5000 
     66 O           3.0516  -16.6792  -50.4347 O.2       1 UNK        -0.5000 
     67 C          -2.5178  -21.7997  -47.2467 C.2       11 UNK         0.5000 
     68 O          -2.7104  -21.9254  -48.4568 O.2       11 UNK        -0.5000 
     69 N          -2.5692  -22.8261  -46.3858 N.am      12 UNK        -0.5000 
     70 CA         -2.7654  -24.2161  -46.7883 C.3       12 UNK         0.1400 
     71 CB         -3.2871  -25.0348  -45.5980 C.3       12 UNK        -0.1800 
     72 C          -1.4730  -24.8223  -47.3599 C.2       12 UNK         0.5000 
     73 O          -1.5264  -25.4763  -48.4008 O.2       12 UNK        -0.5000 
     74 N          -0.3349  -24.5711  -46.6949 N.am      13 UNK        -0.5000 
     75 CA          0.9865  -25.0804  -47.0797 C.3       13 UNK         0.1400 
     76 CB          2.0068  -24.7458  -45.9825 C.3       13 UNK        -0.1800 
     77 C           1.4749  -24.5633  -48.4474 C.2       13 UNK         0.5000 
     78 O           2.0546  -25.3313  -49.2154 O.2       13 UNK        -0.5000 
     79 N           1.2016  -23.2850  -48.7418 N.am      14 UNK        -0.5000 
     80 CA          1.4811  -22.6360  -50.0253 C.3       14 UNK         0.1400 
     81 CB          1.4683  -21.1121  -49.8175 C.3       14 UNK        -0.1800 
     82 C           0.4839  -23.0233  -51.1365 C.2       14 UNK         0.5000 
     83 O           0.6948  -22.6405  -52.2872 O.2       14 UNK        -0.5000 
     84 N          -0.5947  -23.7334  -50.7700 N.am      15 UNK        -0.5000 
     85 CA         -1.7402  -24.1327  -51.5942 C.3       15 UNK         0.1400 
     86 CB         -1.3086  -25.0340  -52.7693 C.3       15 UNK        -0.1800 
     87 C          -2.6232  -22.9520  -52.0483 C.2       15 UNK         0.5000 
     88 O          -3.4836  -23.1363  -52.9089 O.2       15 UNK        -0.5000 
     89 N          -2.4419  -21.7770  -51.4315 N.am      16 UNK        -0.5000 
     90 CA         -3.2120  -20.5580  -51.6706 C.3       16 UNK         0.1400 
     91 CB         -2.5857  -19.4029  -50.8780 C.3       16 UNK        -0.1800 
     92 C          -4.6976  -20.7128  -51.3104 C.2       16 UNK         0.5000 
     93 O          -5.5553  -20.2005  -52.0350 O.2       16 UNK        -0.5000 
     94 N          -4.9679  -21.4255  -50.2096 N.am      17 UNK        -0.5000 
     95 CA         -6.3100  -21.8026  -49.7720 C.3       17 UNK         0.1400 
     96 CB         -6.2824  -22.1496  -48.2748 C.3       17 UNK        -0.1800 
     97 C          -6.8613  -22.9932  -50.5742 C.2       17 UNK         0.5000 
     98 O          -8.0516  -23.0159  -50.8843 O.2       17 UNK        -0.5000 
     99 N          -5.9869  -23.9602  -50.8889 N.am      18 UNK        -0.5000 
    100 CA        -6.3311  -25.2163  -51.5590 C.3       18 UNK         0.1400 
    101 CB        -5.1504  -26.1940  -51.4551 C.3       18 UNK        -0.1800 
    102 C         -6.7491  -25.0167  -53.0254 C.2       18 UNK         0.5000 
    103 O         -7.7563  -25.5809  -53.4541 O.2       18 UNK        -0.5000 
    104 N         -5.9851  -24.1956  -53.7576 N.am      19 UNK        -0.5000 
    105 CA        -6.2830  -23.7997  -55.1352 C.3       19 UNK         0.1400 
    106 CB        -4.9747  -23.3732  -55.8205 C.3       19 UNK        -0.1800 
    107 C         -7.3177  -22.6605  -55.2126 C.2       19 UNK         0.5000 
    108 O         -7.8298  -22.3892  -56.2992 O.2       19 UNK        -0.5000 
    109 N         -7.5757  -21.9991  -54.0726 N.am      20 UNK        -0.5000 
    110 CA        -8.4018  -20.7991  -53.8988 C.3       20 UNK         0.1400 
    111 CB        -9.8858  -21.0997  -54.1932 C.3       20 UNK        -0.1800 
    112 C         -7.8555  -19.5890  -54.6875 C.2       20 UNK         0.5000 
    113 O         -8.6262  -18.7519  -55.1606 O.2       20 UNK        -0.5000 
    114 N         -6.5230  -19.5288  -54.8163 N.am      21 UNK        -0.5000 
    115 CA        -5.7874  -18.4683  -55.5009 C.3       21 UNK         0.1400 
    116 CB        -4.3546  -18.9511  -55.7750 C.3       21 UNK        -0.1800 
    117 C         -5.7740  -17.1599  -54.6932 C.2       21 UNK         0.5000 
    118 O         -5.8378  -16.0804  -55.2832 O.2       21 UNK        -0.5000 
    119 N         -5.7119  -17.2855  -53.3632 N.am      22 UNK        -0.5000 
    120 CA        -5.7348  -16.1668  -52.4106 C.3       22 UNK         0.1400 
    121 C         -6.1879  -16.5567  -50.9754 C.2       22 UNK         0.5000 
    122 N         -6.3938  -17.8249  -50.6393 N.am      22 UNK        -0.7600 
    123 O         -6.3936  -15.6770  -50.1442 O.2       22 UNK        -0.5000 
    124 C124       -4.4510  -15.2788  -52.4454 C.3       23 UNK        -0.0398 
    125 S125       -2.8600  -16.1877  -52.4735 S.3       23 UNK        -0.2404 
    126 C126       -1.8080  -15.2083  -51.3434 C.3       23 UNK        -0.0205 
    127 H127        6.0142  -21.0656  -50.7804 H         1 UNK         0.0600 
    128 H128        4.5139  -20.5613  -51.5662 H         1 UNK         0.0600 
    129 H129        4.4821  -21.2211  -49.9253 H         1 UNK         0.0600 
    130 H130        3.5930  -19.3777  -48.8718 H         1 UNK         0.3000 
    131 H131        5.3573  -17.1922  -48.2610 H         1 UNK         0.0600 
    132 H132        3.9539  -18.1236  -46.5096 H         1 UNK         0.0800 
    133 H133        3.5482  -16.4588  -46.7483 H         1 UNK         0.0800 
    134 H134        0.7904  -16.1310  -46.1834 H         1 UNK         0.0800 
    135 H135        1.5549  -15.5529  -47.6401 H         1 UNK         0.0800 
    136 H136        0.4050  -15.5510  -49.7874 H         1 UNK         0.1150 
    137 H137       -3.8388  -16.0929  -49.7260 H         1 UNK         0.1150 
    138 H138       -1.5112  -17.1077  -46.2838 H         1 UNK         0.1150 
    139 H139       -4.0409  -16.8871  -46.1761 H         1 UNK         0.0800 
    140 H140       -4.9336  -16.5589  -47.6339 H         1 UNK         0.0800 
    141 H141       -4.0723  -20.3164  -45.5982 H         1 UNK         0.0800 
    142 H142       -3.1247  -18.8738  -45.4716 H         1 UNK         0.0800 
    143 H143       -1.6874  -19.8326  -47.4552 H         1 UNK         0.0600 
    144 H144       -1.5026  -20.3101  -44.6504 H         1 UNK         0.3000 
    145 H145        1.6377  -21.9424  -44.5925 H         1 UNK         0.0600 
    146 H146        2.3450  -19.9232  -43.2929 H         1 UNK         0.0600 
    147 H147        2.4345  -19.6541  -45.0267 H         1 UNK         0.0600 
    148 H148        1.0954  -18.9764  -44.1060 H         1 UNK         0.0600 
    149 H149        0.1111  -20.7022  -42.5457 H         1 UNK         0.3000 
    150 H150       -2.4507  -23.0597  -42.1590 H         1 UNK         0.0600 
    151 H151        0.0645  -22.9979  -40.4028 H         1 UNK         0.0600 
    152 H152       -0.6221  -24.4390  -41.1438 H         1 UNK         0.0600 
    153 H153       -1.5292  -23.5752  -39.9132 H         1 UNK         0.0600 
    154 H154       -1.5407  -21.0988  -40.3470 H         1 UNK         0.3000 
    155 H155       -2.4730  -18.1391  -41.9269 H         1 UNK         0.0600 
    156 H156       -4.2091  -19.5514  -39.8300 H         1 UNK         0.0600 
    157 H157       -4.7838  -18.9104  -41.3645 H         1 UNK         0.0600 
    158 H158       -4.1632  -17.8152  -40.1406 H         1 UNK         0.0600 
    159 H159       -1.9822  -18.6652  -39.1884 H         1 UNK         0.3000 
    160 H160        0.0083  -17.7968  -38.3668 H         1 UNK         0.0600 
    161 H161        1.3807  -20.4713  -39.0479 H         1 UNK         0.0600 
    162 H162       -0.0944  -20.2995  -38.1030 H         1 UNK         0.0600 
    163 H163        1.4215  -19.6786  -37.4745 H         1 UNK         0.0600 
    164 H164        2.0571  -17.8892  -40.4008 H         1 UNK         0.3000 
    165 H165        4.0104  -15.4909  -38.7379 H         1 UNK         0.0600 
    166 H166        6.0150  -16.8869  -39.1860 H         1 UNK         0.0600 
    167 H167        5.1745  -17.4667  -37.7576 H         1 UNK         0.0600 
    168 H168        5.0144  -18.3374  -39.2778 H         1 UNK         0.0600 
    169 H169        4.3687  -16.9552  -41.1955 H         1 UNK         0.3000 
    170 H170        4.2308  -15.4857  -43.1056 H         1 UNK         0.0600 
    171 H171        1.3036  -16.4482  -43.1486 H         1 UNK         0.0600 
    172 H172        2.4628  -16.6120  -44.4673 H         1 UNK         0.0600 
    173 H173        2.7072  -17.4933  -42.9732 H         1 UNK         0.0600 
    174 H174        2.1716  -13.5632  -42.6399 H         1 UNK         0.3000 
    175 H175        1.3836  -12.1069  -44.2911 H         1 UNK         0.0600 
    176 H176        4.2563  -11.2049  -44.9077 H         1 UNK         0.0600 
    177 H177        2.8918  -10.1331  -44.5907 H         1 UNK         0.0600 
    178 H178        3.4935  -11.1885  -43.3225 H         1 UNK         0.0600 
    179 H179        2.8009  -11.6484  -46.8123 H         1 UNK         0.3000 
    180 H180        0.2481  -13.1703  -48.8210 H         1 UNK         0.0600 
    181 H181        1.7343  -10.4817  -48.6902 H         1 UNK         0.0600 
    182 H182       -0.0107  -10.6594  -48.5462 H         1 UNK         0.0600 
    183 H183        0.7881  -11.0928  -50.0441 H         1 UNK         0.0600 
    184 H184        2.9826  -13.3724  -48.1281 H         1 UNK         0.3000 
    185 H185        4.1409  -14.4106  -51.3496 H         1 UNK         0.0600 
    186 H186        4.9761  -12.1138  -50.8374 H         1 UNK         0.0600 
    187 H187        5.1914  -12.5554  -49.1481 H         1 UNK         0.0600 
    188 H188        6.1500  -13.3441  -50.3999 H         1 UNK         0.0600 
    189 H189        5.0189  -14.9576  -48.6628 H         1 UNK         0.3000 
    190 H190       -2.3483  -22.6610  -45.4139 H         1 UNK         0.3000 
    191 H191       -3.5246  -24.2514  -47.5725 H         1 UNK         0.0600 
    192 H192       -4.2252  -24.6267  -45.2214 H         1 UNK         0.0600 
    193 H193       -3.4771  -26.0679  -45.8916 H         1 UNK         0.0600 
    194 H194       -2.5759  -25.0561  -44.7723 H         1 UNK         0.0600 
    195 H195       -0.3867  -24.0472  -45.8271 H         1 UNK         0.3000 
    196 H196        0.9075  -26.1674  -47.1461 H         1 UNK         0.0600 
    197 H197        2.9603  -25.2378  -46.1779 H         1 UNK         0.0600 
    198 H198        1.6630  -25.0766  -45.0022 H         1 UNK         0.0600 
    199 H199        2.2000  -23.6753  -45.9311 H         1 UNK         0.0600 
    200 H200        0.7856  -22.6929  -48.0248 H         1 UNK         0.3000 
    201 H201        2.4786  -22.9311  -50.3569 H         1 UNK         0.0600 
    202 H202        1.7639  -20.5856  -50.7259 H         1 UNK         0.0600 
    203 H203        2.1599  -20.8164  -49.0294 H         1 UNK         0.0600 
    204 H204        0.4771  -20.7522  -49.5373 H         1 UNK         0.0600 
    205 H205       -0.6562  -24.0181  -49.8002 H         1 UNK         0.3000 
    206 H206       -2.3703  -24.7344  -50.9389 H         1 UNK         0.0600 
    207 H207       -0.6975  -25.8673  -52.4224 H         1 UNK         0.0600 
    208 H208       -2.1750  -25.4584  -53.2776 H         1 UNK         0.0600 
    209 H209       -0.7362  -24.4839  -53.5162 H         1 UNK         0.0600 
    210 H210       -1.7743  -21.7418  -50.6747 H         1 UNK         0.3000 
    211 H211       -3.1545  -20.3204  -52.7342 H         1 UNK         0.0600 
    212 H212       -2.4362  -19.6583  -49.8298 H         1 UNK         0.0600 
    213 H213       -3.2296  -18.5247  -50.8979 H         1 UNK         0.0600 
    214 H214       -1.6199  -19.1134  -51.2921 H         1 UNK         0.0600 
    215 H215       -4.1861  -21.7317  -49.6356 H         1 UNK         0.3000 
    216 H216       -6.9827  -20.9544  -49.9158 H         1 UNK         0.0600 
    217 H217       -7.2694  -22.4564  -47.9265 H         1 UNK         0.0600 
    218 H218       -5.9838  -21.2929  -47.6738 H         1 UNK         0.0600 
    219 H219       -5.5905  -22.9644  -48.0603 H         1 UNK         0.0600 
    220 H220       -5.0246  -23.8383  -50.6160 H         1 UNK         0.3000 
    221 H221       -7.1787  -25.6552  -51.0282 H         1 UNK         0.0600 
    222 H222       -4.2780  -25.8324  -51.9983 H         1 UNK         0.0600 
    223 H223       -4.8590  -26.3572  -50.4173 H         1 UNK         0.0600 
    224 H224       -5.4142  -27.1655  -51.8749 H         1 UNK         0.0600 
    225 H225       -5.1431  -23.7950  -53.3476 H         1 UNK         0.3000 
    226 H226       -6.6886  -24.6574  -55.6759 H         1 UNK         0.0600 
    227 H227       -5.1419  -23.1381  -56.8723 H         1 UNK         0.0600 
    228 H228       -4.5449  -22.4870  -55.3516 H         1 UNK         0.0600 
    229 H229       -4.2295  -24.1678  -55.7790 H         1 UNK         0.0600 
    230 H230       -7.1057  -22.3223  -53.2392 H         1 UNK         0.3000 
    231 H231       -8.3249  -20.5305  -52.8442 H         1 UNK         0.0600 
    232 H232      -10.0572  -21.3096  -55.2491 H         1 UNK         0.0600 
    233 H233      -10.5167  -20.2523  -53.9225 H         1 UNK         0.0600 
    234 H234      -10.2337  -21.9583  -53.6187 H         1 UNK         0.0600 
    235 H235       -5.9747  -20.2346  -54.3452 H         1 UNK         0.3000 
    236 H236       -6.2741  -18.2710  -56.4584 H         1 UNK         0.0600 
    237 H237       -4.3523  -19.8544  -56.3855 H         1 UNK         0.0600 
    238 H238       -3.7848  -18.1927  -56.3133 H         1 UNK         0.0600 
    239 H239       -3.8183  -19.1685  -54.8507 H         1 UNK         0.0600 
    240 H240       -5.6617  -18.2137  -52.9673 H         1 UNK         0.3000 
    241 H241       -6.5521  -15.5239  -52.7439 H         1 UNK         0.0600 
    242 H242       -6.2201  -18.6018  -51.2643 H         1 UNK         0.3800 
    243 H243       -6.6913  -18.0167  -49.6966 H         1 UNK         0.3800 
    244 H244       -4.4726  -14.6659  -53.3471 H         1 UNK         0.0800 
    245 H245       -4.4557  -14.5631  -51.6221 H         1 UNK         0.0800 
    246 H246       -2.1534  -14.1748  -51.3029 H         1 UNK         0.0800 
    247 H247       -0.8078  -15.1720  -51.7783 H         1 UNK         0.0800 
@<TRIPOS>BOND
     1    1    2 1    
     2    1  127 1    
     3    1  128 1    
     4    1  129 1    
     5    2    3 2    
     6    2    4 am   BACKBONE|DICT|INTERRES
     7    4    5 1    
     8    4  130 1    
     9    5    6 1    
    10    5   65 1    
    11    5  131 1    
    12    6    7 1    
    13    6  132 1    
    14    6  133 1    
    15    7    8 1    
    16    8    9 1    
    17    8  134 1    
    18    8  135 1    
    19    9   10 ar   
    20    9   14 ar   
    21   10   11 ar   
    22   10  136 1    
    23   11   12 ar   
    24   11  126 1    
    25   12   13 ar   
    26   12  137 1    
    27   13   14 ar   
    28   13   15 1    
    29   14  138 1    
    30   15   16 1    
    31   15  139 1    
    32   15  140 1    
    33   16   17 1    
    34   17   18 1    
    35   17  141 1    
    36   17  142 1    
    37   18   19 1    
    38   18   67 1    
    39   18  143 1    
    40   19   20 am   BACKBONE|DICT|INTERRES
    41   19  144 1    
    42   20   21 2    
    43   20   22 1    
    44   22   23 1    
    45   22   24 1    
    46   22  145 1    
    47   23  146 1    
    48   23  147 1    
    49   23  148 1    
    50   24   25 am   BACKBONE|DICT|INTERRES
    51   24  149 1    
    52   25   26 2    
    53   25   27 1    
    54   27   28 1    
    55   27   29 1    
    56   27  150 1    
    57   28  151 1    
    58   28  152 1    
    59   28  153 1    
    60   29   30 am   BACKBONE|DICT|INTERRES
    61   29  154 1    
    62   30   31 2    
    63   30   32 1    
    64   32   33 1    
    65   32   34 1    
    66   32  155 1    
    67   33  156 1    
    68   33  157 1    
    69   33  158 1    
    70   34   35 am   BACKBONE|DICT|INTERRES
    71   34  159 1    
    72   35   36 2    
    73   35   37 1    
    74   37   38 1    
    75   37   39 1    
    76   37  160 1    
    77   38  161 1    
    78   38  162 1    
    79   38  163 1    
    80   39   40 am   BACKBONE|DICT|INTERRES
    81   39  164 1    
    82   40   41 2    
    83   40   42 1    
    84   42   43 1    
    85   42   44 1    
    86   42  165 1    
    87   43  166 1    
    88   43  167 1    
    89   43  168 1    
    90   44   45 am   BACKBONE|DICT|INTERRES
    91   44  169 1    
    92   45   46 2    
    93   45   47 1    
    94   47   48 1    
    95   47   49 1    
    96   47  170 1    
    97   48  171 1    
    98   48  172 1    
    99   48  173 1    
   100   49   50 am   BACKBONE|DICT|INTERRES
   101   49  174 1    
   102   50   51 2    
   103   50   52 1    
   104   52   53 1    
   105   52   54 1    
   106   52  175 1    
   107   53  176 1    
   108   53  177 1    
   109   53  178 1    
   110   54   55 am   BACKBONE|DICT|INTERRES
   111   54  179 1    
   112   55   56 2    
   113   55   57 1    
   114   57   58 1    
   115   57   59 1    
   116   57  180 1    
   117   58  181 1    
   118   58  182 1    
   119   58  183 1    
   120   59   60 am   BACKBONE|DICT|INTERRES
   121   59  184 1    
   122   60   61 2    
   123   60   62 1    
   124   62   63 1    
   125   62   64 1    
   126   62  185 1    
   127   63  186 1    
   128   63  187 1    
   129   63  188 1    
   130   64   65 am   BACKBONE|DICT|INTERRES
   131   64  189 1    
   132   65   66 2    
   133   67   68 2    
   134   67   69 am   BACKBONE|DICT|INTERRES
   135   69   70 1    
   136   69  190 1    
   137   70   71 1    
   138   70   72 1    
   139   70  191 1    
   140   71  192 1    
   141   71  193 1    
   142   71  194 1    
   143   72   73 2    
   144   72   74 am   BACKBONE|DICT|INTERRES
   145   74   75 1    
   146   74  195 1    
   147   75   76 1    
   148   75   77 1    
   149   75  196 1    
   150   76  197 1    
   151   76  198 1    
   152   76  199 1    
   153   77   78 2    
   154   77   79 am   BACKBONE|DICT|INTERRES
   155   79   80 1    
   156   79  200 1    
   157   80   81 1    
   158   80   82 1    
   159   80  201 1    
   160   81  202 1    
   161   81  203 1    
   162   81  204 1    
   163   82   83 2    
   164   82   84 am   BACKBONE|DICT|INTERRES
   165   84   85 1    
   166   84  205 1    
   167   85   86 1    
   168   85   87 1    
   169   85  206 1    
   170   86  207 1    
   171   86  208 1    
   172   86  209 1    
   173   87   88 2    
   174   87   89 am   BACKBONE|DICT|INTERRES
   175   89   90 1    
   176   89  210 1    
   177   90   91 1    
   178   90   92 1    
   179   90  211 1    
   180   91  212 1    
   181   91  213 1    
   182   91  214 1    
   183   92   93 2    
   184   92   94 am   BACKBONE|DICT|INTERRES
   185   94   95 1    
   186   94  215 1    
   187   95   96 1    
   188   95   97 1    
   189   95  216 1    
   190   96  217 1    
   191   96  218 1    
   192   96  219 1    
   193   97   98 2    
   194   97   99 am   BACKBONE|DICT|INTERRES
   195   99  100 1    
   196   99  220 1    
   197  100  101 1    
   198  100  102 1    
   199  100  221 1    
   200  101  222 1    
   201  101  223 1    
   202  101  224 1    
   203  102  103 2    
   204  102  104 am   BACKBONE|DICT|INTERRES
   205  104  105 1    
   206  104  225 1    
   207  105  106 1    
   208  105  107 1    
   209  105  226 1    
   210  106  227 1    
   211  106  228 1    
   212  106  229 1    
   213  107  108 2    
   214  107  109 am   BACKBONE|DICT|INTERRES
   215  109  110 1    
   216  109  230 1    
   217  110  111 1    
   218  110  112 1    
   219  110  231 1    
   220  111  232 1    
   221  111  233 1    
   222  111  234 1    
   223  112  113 2    
   224  112  114 am   BACKBONE|DICT|INTERRES
   225  114  115 1    
   226  114  235 1    
   227  115  116 1    
   228  115  117 1    
   229  115  236 1    
   230  116  237 1    
   231  116  238 1    
   232  116  239 1    
   233  117  118 2    
   234  117  119 am   BACKBONE|DICT|INTERRES
   235  119  120 1    
   236  119  240 1    
   237  120  121 1    
   238  120  124 1    
   239  120  241 1    
   240  121  122 am   BACKBONE|DICT|INTERRES
   241  121  123 2    
   242  122  242 1    
   243  122  243 1    
   244  124  125 1    
   245  124  244 1    
   246  124  245 1    
   247  125  126 1    
   248  126  246 1    
   249  126  247 1    
@<TRIPOS>SUBSTRUCTURE
     1 UNK         1 GROUP             0       ****    0 ROOT    
