@<TRIPOS>MOLECULE
3R540
247   249    1
SMALL
USER_CHARGES


@<TRIPOS>ATOM
      1 CA         -5.8540  -16.4424  -47.4740 C.3       0 UNK        -0.1800 
      2 C          -4.4626  -16.1244  -46.9468 C.2       0 UNK         0.5000 
      3 O          -3.9674  -16.8337  -46.0728 O.2       0 UNK        -0.5000 
      4 N          -3.8327  -15.0709  -47.4848 N.am      1 UNK        -0.5000 
      5 CA         -2.4832  -14.6035  -47.1540 C.3       1 UNK         0.1400 
      6 C6         -1.3854  -15.6011  -47.6145 C.3       23 UNK        -0.0398 
      7 S7          0.2964  -14.8936  -47.5667 S.3       23 UNK        -0.2404 
      8 C8          0.7749  -14.9100  -49.3213 C.3       23 UNK        -0.0205 
      9 C9          1.0827  -16.3074  -49.8484 C.ar      23 UNK        -0.0193 
     10 C10         0.3306  -16.8435  -50.8993 C.ar      23 UNK        -0.1150 
     11 C11         0.6731  -18.0737  -51.4712 C.ar      23 UNK        -0.0193 
     12 C12         1.7776  -18.7676  -50.9670 C.ar      23 UNK        -0.1150 
     13 C13         2.5200  -18.2662  -49.8963 C.ar      23 UNK        -0.0193 
     14 C14         2.1677  -17.0317  -49.3415 C.ar      23 UNK        -0.1150 
     15 C15         3.7405  -19.0289  -49.3896 C.3       23 UNK        -0.0205 
     16 S16         3.3926  -20.7797  -48.9996 S.3       23 UNK        -0.2404 
     17 C17         2.4203  -20.5976  -47.4720 C.3       23 UNK        -0.0398 
     18 CA          1.3197  -21.6697  -47.2765 C.3       11 UNK         0.1400 
     19 N           0.8492  -21.6821  -45.8875 N.am      11 UNK        -0.5000 
     20 C          -0.0587  -22.5192  -45.3648 C.2       10 UNK         0.5000 
     21 O          -0.5796  -23.4474  -45.9845 O.2       10 UNK        -0.5000 
     22 CA         -0.4939  -22.2348  -43.9132 C.3       10 UNK         0.1400 
     23 CB          0.4862  -22.8656  -42.9133 C.3       10 UNK        -0.1800 
     24 N          -0.6346  -20.8049  -43.6261 N.am      10 UNK        -0.5000 
     25 C          -1.4960  -19.9779  -44.2380 C.2       9 UNK         0.5000 
     26 O          -2.2947  -20.3381  -45.0991 O.2       9 UNK        -0.5000 
     27 CA         -1.3988  -18.4858  -43.8747 C.3       9 UNK         0.1400 
     28 CB         -2.0457  -18.2090  -42.5076 C.3       9 UNK        -0.1800 
     29 N          -0.0077  -18.0266  -43.8843 N.am      9 UNK        -0.5000 
     30 C           0.7630  -17.9983  -44.9823 C.2       8 UNK         0.5000 
     31 O           0.3428  -18.2506  -46.1101 O.2       8 UNK        -0.5000 
     32 CA          2.2579  -17.6930  -44.7786 C.3       8 UNK         0.1400 
     33 CB          2.5398  -16.1869  -44.8749 C.3       8 UNK        -0.1800 
     34 N           2.7400  -18.1995  -43.4935 N.am      8 UNK        -0.5000 
     35 C           2.9763  -19.4948  -43.2386 C.2       7 UNK         0.5000 
     36 O           2.8495  -20.3848  -44.0784 O.2       7 UNK        -0.5000 
     37 CA          3.3687  -19.8636  -41.7940 C.3       7 UNK         0.1400 
     38 CB          4.8847  -19.7217  -41.5948 C.3       7 UNK        -0.1800 
     39 N           2.6725  -19.0509  -40.7950 N.am      7 UNK        -0.5000 
     40 C           1.3445  -19.0462  -40.6111 C.2       6 UNK         0.5000 
     41 O           0.5821  -19.8121  -41.1983 O.2       6 UNK        -0.5000 
     42 CA          0.7624  -17.9722  -39.6673 C.3       6 UNK         0.1400 
     43 CB          0.4862  -18.5709  -38.2807 C.3       6 UNK        -0.1800 
     44 N           1.6133  -16.7853  -39.5198 N.am      6 UNK        -0.5000 
     45 C           1.9797  -15.9682  -40.5168 C.2       5 UNK         0.5000 
     46 O           1.5915  -16.1006  -41.6823 O.2       5 UNK        -0.5000 
     47 CA          3.0078  -14.8798  -40.1673 C.3       5 UNK         0.1400 
     48 CB          4.3077  -15.5246  -39.6316 C.3       5 UNK        -0.1800 
     49 N           3.2842  -14.1050  -41.3741 N.am      5 UNK        -0.5000 
     50 C           4.0653  -13.0229  -41.4725 C.2       4 UNK         0.5000 
     51 O           4.5962  -12.4647  -40.5116 O.2       4 UNK        -0.5000 
     52 CA          4.3012  -12.4772  -42.8901 C.3       4 UNK         0.1400 
     53 CB          5.3587  -13.3170  -43.6241 C.3       4 UNK        -0.1800 
     54 N           3.0696  -12.4458  -43.6792 N.am      4 UNK        -0.5000 
     55 C           2.1968  -11.4304  -43.6482 C.2       3 UNK         0.5000 
     56 O           2.3317  -10.4271  -42.9463 O.2       3 UNK        -0.5000 
     57 CA          0.9681  -11.5559  -44.5637 C.3       3 UNK         0.1400 
     58 CB          1.3542  -11.3495  -46.0373 C.3       3 UNK        -0.1800 
     59 N           0.2742  -12.8348  -44.4260 N.am      3 UNK        -0.5000 
     60 C          -0.4108  -13.2260  -43.3408 C.2       2 UNK         0.5000 
     61 O          -0.4341  -12.5916  -42.2853 O.2       2 UNK        -0.5000 
     62 CA         -1.2248  -14.5327  -43.4707 C.3       2 UNK         0.1400 
     63 CB         -2.4721  -14.5419  -42.5610 C.3       2 UNK        -0.1800 
     64 N          -1.5826  -14.8499  -44.8608 N.am      2 UNK        -0.5000 
     65 C          -2.3939  -14.1535  -45.6750 C.2       1 UNK         0.5000 
     66 O          -3.0381  -13.1641  -45.3220 O.2       1 UNK        -0.5000 
     67 C           0.1562  -21.5023  -48.2797 C.2       11 UNK         0.5000 
     68 O           0.0648  -22.2695  -49.2388 O.2       11 UNK        -0.5000 
     69 N          -0.7389  -20.5432  -48.0059 N.am      12 UNK        -0.5000 
     70 CA         -1.9497  -20.3138  -48.7900 C.3       12 UNK         0.1400 
     71 CB         -2.4898  -18.9129  -48.4937 C.3       12 UNK        -0.1800 
     72 C          -3.0320  -21.3797  -48.5532 C.2       12 UNK         0.5000 
     73 O          -3.6868  -21.7914  -49.5114 O.2       12 UNK        -0.5000 
     74 N          -3.2155  -21.8184  -47.2988 N.am      13 UNK        -0.5000 
     75 CA         -4.2006  -22.8285  -46.8917 C.3       13 UNK         0.1400 
     76 CB         -4.1744  -23.0145  -45.3692 C.3       13 UNK        -0.1800 
     77 C          -4.0166  -24.1823  -47.5993 C.2       13 UNK         0.5000 
     78 O          -5.0092  -24.8192  -47.9528 O.2       13 UNK        -0.5000 
     79 N          -2.7567  -24.5549  -47.8641 N.am      14 UNK        -0.5000 
     80 CA         -2.3675  -25.7203  -48.6629 C.3       14 UNK         0.1400 
     81 CB         -0.8406  -25.8743  -48.5976 C.3       14 UNK        -0.1800 
     82 C          -2.8431  -25.6660  -50.1326 C.2       14 UNK         0.5000 
     83 O          -2.9359  -26.7131  -50.7735 O.2       14 UNK        -0.5000 
     84 N          -3.1557  -24.4623  -50.6290 N.am      15 UNK        -0.5000 
     85 CA         -3.6973  -24.1857  -51.9579 C.3       15 UNK         0.1400 
     86 CB         -2.7978  -23.1391  -52.6281 C.3       15 UNK        -0.1800 
     87 C          -5.1646  -23.7157  -51.8722 C.2       15 UNK         0.5000 
     88 O          -5.6183  -22.9602  -52.7352 O.2       15 UNK        -0.5000 
     89 N          -5.8770  -24.1596  -50.8242 N.am      16 UNK        -0.5000 
     90 CA         -7.2836  -23.8783  -50.5200 C.3       16 UNK         0.1400 
     91 CB         -8.2088  -24.5192  -51.5756 C.3       16 UNK        -0.1800 
     92 C          -7.5505  -22.3760  -50.2970 C.2       16 UNK         0.5000 
     93 O          -8.4833  -21.8166  -50.8729 O.2       16 UNK        -0.5000 
     94 N          -6.6956  -21.7560  -49.4710 N.am      17 UNK        -0.5000 
     95 CA         -6.6527  -20.3257  -49.1411 C.3       17 UNK         0.1400 
     96 CB         -7.9492  -19.8675  -48.4399 C.3       17 UNK        -0.1800 
     97 C          -6.2736  -19.4702  -50.3666 C.2       17 UNK         0.5000 
     98 O          -6.8803  -18.4266  -50.6116 O.2       17 UNK        -0.5000 
     99 N          -5.2700  -19.9554  -51.1133 N.am      18 UNK        -0.5000 
    100 CA        -4.7277  -19.3993  -52.3569 C.3       18 UNK         0.1400 
    101 CB        -3.9926  -18.0699  -52.0855 C.3       18 UNK        -0.1800 
    102 C         -5.7677  -19.2997  -53.4953 C.2       18 UNK         0.5000 
    103 O         -5.6799  -18.4008  -54.3345 O.2       18 UNK        -0.5000 
    104 N         -6.7330  -20.2302  -53.5134 N.am      19 UNK        -0.5000 
    105 CA        -7.6877  -20.4006  -54.6086 C.3       19 UNK         0.1400 
    106 CB        -8.9143  -21.1778  -54.1114 C.3       19 UNK        -0.1800 
    107 C         -7.0308  -21.1157  -55.8016 C.2       19 UNK         0.5000 
    108 O         -7.2867  -20.7503  -56.9499 O.2       19 UNK        -0.5000 
    109 N         -6.1688  -22.0943  -55.5006 N.am      20 UNK        -0.5000 
    110 CA        -5.2356  -22.7017  -56.4429 C.3       20 UNK         0.1400 
    111 CB        -5.0354  -24.1747  -56.0488 C.3       20 UNK        -0.1800 
    112 C         -3.8982  -21.9388  -56.4115 C.2       20 UNK         0.5000 
    113 O         -3.6569  -21.1399  -55.5024 O.2       20 UNK        -0.5000 
    114 N         -3.0321  -22.2155  -57.3929 N.am      21 UNK        -0.5000 
    115 CA        -1.6513  -21.7344  -57.4111 C.3       21 UNK         0.1400 
    116 CB        -1.0567  -21.9445  -58.8126 C.3       21 UNK        -0.1800 
    117 C         -0.8222  -22.4694  -56.3418 C.2       21 UNK         0.5000 
    118 O         -0.8015  -23.7030  -56.3367 O.2       21 UNK        -0.5000 
    119 N         -0.1781  -21.7070  -55.4527 N.am      22 UNK        -0.5000 
    120 CA         0.6617  -22.2324  -54.3667 C.3       22 UNK         0.1400 
    121 C          1.9797  -22.8749  -54.8836 C.2       22 UNK         0.5000 
    122 N          2.4657  -23.9211  -54.2294 N.am      22 UNK        -0.7600 
    123 O          2.5880  -22.4082  -55.8445 O.2       22 UNK        -0.5000 
    124 C124        0.9710  -21.1586  -53.2941 C.3       23 UNK        -0.0398 
    125 S125       -0.5225  -20.3743  -52.5842 S.3       23 UNK        -0.2404 
    126 C126       -0.1146  -18.5967  -52.6723 C.3       23 UNK        -0.0205 
    127 H127       -5.8498  -17.4188  -47.9569 H         1 UNK         0.0600 
    128 H128       -6.1929  -15.7052  -48.2022 H         1 UNK         0.0600 
    129 H129       -6.5717  -16.4678  -46.6541 H         1 UNK         0.0600 
    130 H130       -4.3200  -14.5129  -48.1720 H         1 UNK         0.3000 
    131 H131       -2.3478  -13.6940  -47.7417 H         1 UNK         0.0600 
    132 H132       -1.5966  -15.9047  -48.6396 H         1 UNK         0.0800 
    133 H133       -1.4074  -16.5179  -47.0256 H         1 UNK         0.0800 
    134 H134       -0.0066  -14.4289  -49.9116 H         1 UNK         0.0800 
    135 H135        1.6659  -14.2923  -49.4407 H         1 UNK         0.0800 
    136 H136       -0.5014  -16.2819  -51.3002 H         1 UNK         0.1150 
    137 H137        2.0792  -19.7031  -51.4069 H         1 UNK         0.1150 
    138 H138        2.7531  -16.6160  -48.5335 H         1 UNK         0.1150 
    139 H139        4.5125  -18.9914  -50.1592 H         1 UNK         0.0800 
    140 H140        4.1634  -18.5452  -48.5076 H         1 UNK         0.0800 
    141 H141        1.9893  -19.5984  -47.4421 H         1 UNK         0.0800 
    142 H142        3.1341  -20.6438  -46.6497 H         1 UNK         0.0800 
    143 H143        1.7663  -22.6496  -47.4571 H         1 UNK         0.0600 
    144 H144        1.2671  -20.9957  -45.2699 H         1 UNK         0.3000 
    145 H145       -1.4696  -22.6960  -43.7583 H         1 UNK         0.0600 
    146 H146        0.1525  -22.7155  -41.8863 H         1 UNK         0.0600 
    147 H147        0.5696  -23.9409  -43.0753 H         1 UNK         0.0600 
    148 H148        1.4862  -22.4420  -43.0041 H         1 UNK         0.0600 
    149 H149       -0.0497  -20.4300  -42.8841 H         1 UNK         0.3000 
    150 H150       -1.9404  -17.9129  -44.6299 H         1 UNK         0.0600 
    151 H151       -3.1327  -18.2275  -42.5916 H         1 UNK         0.0600 
    152 H152       -1.7633  -17.2342  -42.1154 H         1 UNK         0.0600 
    153 H153       -1.7721  -18.9524  -41.7598 H         1 UNK         0.0600 
    154 H154        0.4168  -17.8152  -42.9924 H         1 UNK         0.3000 
    155 H155        2.8176  -18.1881  -45.5746 H         1 UNK         0.0600 
    156 H156        2.4057  -15.8382  -45.8975 H         1 UNK         0.0600 
    157 H157        1.8791  -15.6014  -44.2362 H         1 UNK         0.0600 
    158 H158        3.5689  -15.9629  -44.5976 H         1 UNK         0.0600 
    159 H159        2.7912  -17.5302  -42.7367 H         1 UNK         0.3000 
    160 H160        3.0961  -20.9084  -41.6309 H         1 UNK         0.0600 
    161 H161        5.2141  -18.6896  -41.7216 H         1 UNK         0.0600 
    162 H162        5.4314  -20.3319  -42.3151 H         1 UNK         0.0600 
    163 H163        5.1841  -20.0501  -40.5993 H         1 UNK         0.0600 
    164 H164        3.2337  -18.4060  -40.2596 H         1 UNK         0.3000 
    165 H165       -0.1878  -17.6461  -40.0940 H         1 UNK         0.0600 
    166 H166       -0.0083  -17.8491  -37.6304 H         1 UNK         0.0600 
    167 H167       -0.1680  -19.4408  -38.3540 H         1 UNK         0.0600 
    168 H168        1.4060  -18.8919  -37.7902 H         1 UNK         0.0600 
    169 H169        1.9737  -16.6117  -38.5924 H         1 UNK         0.3000 
    170 H170        2.5737  -14.2218  -39.4124 H         1 UNK         0.0600 
    171 H171        4.7676  -16.1752  -40.3766 H         1 UNK         0.0600 
    172 H172        5.0457  -14.7750  -39.3481 H         1 UNK         0.0600 
    173 H173        4.1239  -16.1240  -38.7396 H         1 UNK         0.0600 
    174 H174        2.8300  -14.4747  -42.1987 H         1 UNK         0.3000 
    175 H175        4.6955  -11.4627  -42.7971 H         1 UNK         0.0600 
    176 H176        5.5565  -12.9198  -44.6199 H         1 UNK         0.0600 
    177 H177        5.0518  -14.3569  -43.7316 H         1 UNK         0.0600 
    178 H178        6.3038  -13.3117  -43.0796 H         1 UNK         0.0600 
    179 H179        2.8882  -13.2270  -44.2906 H         1 UNK         0.3000 
    180 H180        0.2677  -10.7650  -44.2866 H         1 UNK         0.0600 
    181 H181        0.4714  -11.3367  -46.6770 H         1 UNK         0.0600 
    182 H182        2.0156  -12.1378  -46.3989 H         1 UNK         0.0600 
    183 H183        1.8693  -10.3981  -46.1769 H         1 UNK         0.0600 
    184 H184        0.2337  -13.4157  -45.2505 H         1 UNK         0.3000 
    185 H185       -0.5652  -15.3332  -43.1374 H         1 UNK         0.0600 
    186 H186       -2.1850  -14.5773  -41.5096 H         1 UNK         0.0600 
    187 H187       -3.0824  -13.6493  -42.7009 H         1 UNK         0.0600 
    188 H188       -3.1054  -15.4065  -42.7580 H         1 UNK         0.0600 
    189 H189       -1.1108  -15.6515  -45.2541 H         1 UNK         0.3000 
    190 H190       -0.5896  -19.9421  -47.2036 H         1 UNK         0.3000 
    191 H191       -1.6878  -20.3495  -49.8489 H         1 UNK         0.0600 
    192 H192       -1.7931  -18.1615  -48.8603 H         1 UNK         0.0600 
    193 H193       -3.4477  -18.7385  -48.9841 H         1 UNK         0.0600 
    194 H194       -2.6314  -18.7559  -47.4242 H         1 UNK         0.0600 
    195 H195       -2.6911  -21.3743  -46.5473 H         1 UNK         0.3000 
    196 H196       -5.1865  -22.4467  -47.1593 H         1 UNK         0.0600 
    197 H197       -4.9530  -23.7078  -45.0489 H         1 UNK         0.0600 
    198 H198       -4.3472  -22.0724  -44.8491 H         1 UNK         0.0600 
    199 H199       -3.2211  -23.4199  -45.0338 H         1 UNK         0.0600 
    200 H200       -2.0016  -23.9844  -47.4981 H         1 UNK         0.3000 
    201 H201       -2.8217  -26.6018  -48.2063 H         1 UNK         0.0600 
    202 H202       -0.4987  -25.9856  -47.5683 H         1 UNK         0.0600 
    203 H203       -0.3327  -25.0098  -49.0266 H         1 UNK         0.0600 
    204 H204       -0.5108  -26.7567  -49.1474 H         1 UNK         0.0600 
    205 H205       -3.0805  -23.6517  -50.0238 H         1 UNK         0.3000 
    206 H206       -3.6857  -25.0881  -52.5716 H         1 UNK         0.0600 
    207 H207       -1.7568  -23.4569  -52.6137 H         1 UNK         0.0600 
    208 H208       -3.0751  -22.9828  -53.6691 H         1 UNK         0.0600 
    209 H209       -2.8586  -22.1773  -52.1197 H         1 UNK         0.0600 
    210 H210       -5.3970  -24.7291  -50.1379 H         1 UNK         0.3000 
    211 H211       -7.4938  -24.3646  -49.5663 H         1 UNK         0.0600 
    212 H212       -8.0496  -24.0990  -52.5680 H         1 UNK         0.0600 
    213 H213       -9.2585  -24.3694  -51.3204 H         1 UNK         0.0600 
    214 H214       -8.0423  -25.5943  -51.6402 H         1 UNK         0.0600 
    215 H215       -5.9127  -22.2984  -49.1336 H         1 UNK         0.3000 
    216 H216       -5.8413  -20.1997  -48.4234 H         1 UNK         0.0600 
    217 H217       -7.8543  -18.8456  -48.0724 H         1 UNK         0.0600 
    218 H218       -8.1775  -20.4998  -47.5821 H         1 UNK         0.0600 
    219 H219       -8.8076  -19.8891  -49.1115 H         1 UNK         0.0600 
    220 H220       -4.8266  -20.8104  -50.7921 H         1 UNK         0.3000 
    221 H221       -3.9825  -20.1144  -52.7079 H         1 UNK         0.0600 
    222 H222       -4.6715  -17.2947  -51.7300 H         1 UNK         0.0600 
    223 H223       -3.2077  -18.1998  -51.3411 H         1 UNK         0.0600 
    224 H224       -3.5142  -17.6951  -52.9908 H         1 UNK         0.0600 
    225 H225       -6.7175  -20.9534  -52.8055 H         1 UNK         0.3000 
    226 H226       -8.0237  -19.4171  -54.9437 H         1 UNK         0.0600 
    227 H227       -9.4058  -20.6543  -53.2912 H         1 UNK         0.0600 
    228 H228       -9.6490  -21.2994  -54.9082 H         1 UNK         0.0600 
    229 H229       -8.6437  -22.1726  -53.7586 H         1 UNK         0.0600 
    230 H230       -5.9881  -22.2918  -54.5199 H         1 UNK         0.3000 
    231 H231       -5.6399  -22.6595  -57.4563 H         1 UNK         0.0600 
    232 H232       -4.6011  -24.2719  -55.0539 H         1 UNK         0.0600 
    233 H233       -4.3706  -24.6841  -56.7471 H         1 UNK         0.0600 
    234 H234       -5.9828  -24.7139  -56.0518 H         1 UNK         0.0600 
    235 H235       -3.2762  -22.9060  -58.0877 H         1 UNK         0.3000 
    236 H236       -1.6498  -20.6630  -57.1980 H         1 UNK         0.0600 
    237 H237       -1.6235  -21.3992  -59.5675 H         1 UNK         0.0600 
    238 H238       -0.0278  -21.5851  -58.8555 H         1 UNK         0.0600 
    239 H239       -1.0480  -22.9982  -59.0945 H         1 UNK         0.0600 
    240 H240       -0.2527  -20.7027  -55.5104 H         1 UNK         0.3000 
    241 H241        0.0898  -23.0237  -53.8806 H         1 UNK         0.0600 
    242 H242        1.9898  -24.3187  -53.4343 H         1 UNK         0.3800 
    243 H243        3.3277  -24.3377  -54.5460 H         1 UNK         0.3800 
    244 H244        1.6271  -20.3920  -53.7096 H         1 UNK         0.0800 
    245 H245        1.5189  -21.6172  -52.4690 H         1 UNK         0.0800 
    246 H246       -1.0551  -18.0523  -52.7586 H         1 UNK         0.0800 
    247 H247        0.4386  -18.3825  -53.5871 H         1 UNK         0.0800 
@<TRIPOS>BOND
     1    1    2 1    
     2    1  127 1    
     3    1  128 1    
     4    1  129 1    
     5    2    3 2    
     6    2    4 am   BACKBONE|DICT|INTERRES
     7    4    5 1    
     8    4  130 1    
     9    5    6 1    
    10    5   65 1    
    11    5  131 1    
    12    6    7 1    
    13    6  132 1    
    14    6  133 1    
    15    7    8 1    
    16    8    9 1    
    17    8  134 1    
    18    8  135 1    
    19    9   10 ar   
    20    9   14 ar   
    21   10   11 ar   
    22   10  136 1    
    23   11   12 ar   
    24   11  126 1    
    25   12   13 ar   
    26   12  137 1    
    27   13   14 ar   
    28   13   15 1    
    29   14  138 1    
    30   15   16 1    
    31   15  139 1    
    32   15  140 1    
    33   16   17 1    
    34   17   18 1    
    35   17  141 1    
    36   17  142 1    
    37   18   19 1    
    38   18   67 1    
    39   18  143 1    
    40   19   20 am   BACKBONE|DICT|INTERRES
    41   19  144 1    
    42   20   21 2    
    43   20   22 1    
    44   22   23 1    
    45   22   24 1    
    46   22  145 1    
    47   23  146 1    
    48   23  147 1    
    49   23  148 1    
    50   24   25 am   BACKBONE|DICT|INTERRES
    51   24  149 1    
    52   25   26 2    
    53   25   27 1    
    54   27   28 1    
    55   27   29 1    
    56   27  150 1    
    57   28  151 1    
    58   28  152 1    
    59   28  153 1    
    60   29   30 am   BACKBONE|DICT|INTERRES
    61   29  154 1    
    62   30   31 2    
    63   30   32 1    
    64   32   33 1    
    65   32   34 1    
    66   32  155 1    
    67   33  156 1    
    68   33  157 1    
    69   33  158 1    
    70   34   35 am   BACKBONE|DICT|INTERRES
    71   34  159 1    
    72   35   36 2    
    73   35   37 1    
    74   37   38 1    
    75   37   39 1    
    76   37  160 1    
    77   38  161 1    
    78   38  162 1    
    79   38  163 1    
    80   39   40 am   BACKBONE|DICT|INTERRES
    81   39  164 1    
    82   40   41 2    
    83   40   42 1    
    84   42   43 1    
    85   42   44 1    
    86   42  165 1    
    87   43  166 1    
    88   43  167 1    
    89   43  168 1    
    90   44   45 am   BACKBONE|DICT|INTERRES
    91   44  169 1    
    92   45   46 2    
    93   45   47 1    
    94   47   48 1    
    95   47   49 1    
    96   47  170 1    
    97   48  171 1    
    98   48  172 1    
    99   48  173 1    
   100   49   50 am   BACKBONE|DICT|INTERRES
   101   49  174 1    
   102   50   51 2    
   103   50   52 1    
   104   52   53 1    
   105   52   54 1    
   106   52  175 1    
   107   53  176 1    
   108   53  177 1    
   109   53  178 1    
   110   54   55 am   BACKBONE|DICT|INTERRES
   111   54  179 1    
   112   55   56 2    
   113   55   57 1    
   114   57   58 1    
   115   57   59 1    
   116   57  180 1    
   117   58  181 1    
   118   58  182 1    
   119   58  183 1    
   120   59   60 am   BACKBONE|DICT|INTERRES
   121   59  184 1    
   122   60   61 2    
   123   60   62 1    
   124   62   63 1    
   125   62   64 1    
   126   62  185 1    
   127   63  186 1    
   128   63  187 1    
   129   63  188 1    
   130   64   65 am   BACKBONE|DICT|INTERRES
   131   64  189 1    
   132   65   66 2    
   133   67   68 2    
   134   67   69 am   BACKBONE|DICT|INTERRES
   135   69   70 1    
   136   69  190 1    
   137   70   71 1    
   138   70   72 1    
   139   70  191 1    
   140   71  192 1    
   141   71  193 1    
   142   71  194 1    
   143   72   73 2    
   144   72   74 am   BACKBONE|DICT|INTERRES
   145   74   75 1    
   146   74  195 1    
   147   75   76 1    
   148   75   77 1    
   149   75  196 1    
   150   76  197 1    
   151   76  198 1    
   152   76  199 1    
   153   77   78 2    
   154   77   79 am   BACKBONE|DICT|INTERRES
   155   79   80 1    
   156   79  200 1    
   157   80   81 1    
   158   80   82 1    
   159   80  201 1    
   160   81  202 1    
   161   81  203 1    
   162   81  204 1    
   163   82   83 2    
   164   82   84 am   BACKBONE|DICT|INTERRES
   165   84   85 1    
   166   84  205 1    
   167   85   86 1    
   168   85   87 1    
   169   85  206 1    
   170   86  207 1    
   171   86  208 1    
   172   86  209 1    
   173   87   88 2    
   174   87   89 am   BACKBONE|DICT|INTERRES
   175   89   90 1    
   176   89  210 1    
   177   90   91 1    
   178   90   92 1    
   179   90  211 1    
   180   91  212 1    
   181   91  213 1    
   182   91  214 1    
   183   92   93 2    
   184   92   94 am   BACKBONE|DICT|INTERRES
   185   94   95 1    
   186   94  215 1    
   187   95   96 1    
   188   95   97 1    
   189   95  216 1    
   190   96  217 1    
   191   96  218 1    
   192   96  219 1    
   193   97   98 2    
   194   97   99 am   BACKBONE|DICT|INTERRES
   195   99  100 1    
   196   99  220 1    
   197  100  101 1    
   198  100  102 1    
   199  100  221 1    
   200  101  222 1    
   201  101  223 1    
   202  101  224 1    
   203  102  103 2    
   204  102  104 am   BACKBONE|DICT|INTERRES
   205  104  105 1    
   206  104  225 1    
   207  105  106 1    
   208  105  107 1    
   209  105  226 1    
   210  106  227 1    
   211  106  228 1    
   212  106  229 1    
   213  107  108 2    
   214  107  109 am   BACKBONE|DICT|INTERRES
   215  109  110 1    
   216  109  230 1    
   217  110  111 1    
   218  110  112 1    
   219  110  231 1    
   220  111  232 1    
   221  111  233 1    
   222  111  234 1    
   223  112  113 2    
   224  112  114 am   BACKBONE|DICT|INTERRES
   225  114  115 1    
   226  114  235 1    
   227  115  116 1    
   228  115  117 1    
   229  115  236 1    
   230  116  237 1    
   231  116  238 1    
   232  116  239 1    
   233  117  118 2    
   234  117  119 am   BACKBONE|DICT|INTERRES
   235  119  120 1    
   236  119  240 1    
   237  120  121 1    
   238  120  124 1    
   239  120  241 1    
   240  121  122 am   BACKBONE|DICT|INTERRES
   241  121  123 2    
   242  122  242 1    
   243  122  243 1    
   244  124  125 1    
   245  124  244 1    
   246  124  245 1    
   247  125  126 1    
   248  126  246 1    
   249  126  247 1    
@<TRIPOS>SUBSTRUCTURE
     1 UNK         1 GROUP             0       ****    0 ROOT    
