@<TRIPOS>MOLECULE
3R540
247   249    1
SMALL
USER_CHARGES


@<TRIPOS>ATOM
      1 CA         -3.2690  -16.2917  -48.3105 C.3       0 UNK        -0.1800 
      2 C          -1.8046  -15.9003  -48.4378 C.2       0 UNK         0.5000 
      3 O          -1.0653  -15.9847  -47.4573 O.2       0 UNK        -0.5000 
      4 N          -1.3947  -15.4443  -49.6285 N.am      1 UNK        -0.5000 
      5 CA         -0.0627  -14.9584  -50.0155 C.3       1 UNK         0.1400 
      6 C6          1.0511  -16.0452  -49.9419 C.3       23 UNK        -0.0398 
      7 S7          2.0240  -16.1254  -51.4842 S.3       23 UNK        -0.2404 
      8 C8          2.9043  -17.7184  -51.3022 C.3       23 UNK        -0.0205 
      9 C9          2.0260  -18.9668  -51.1889 C.ar      23 UNK        -0.0193 
     10 C10         0.6834  -18.9860  -51.5872 C.ar      23 UNK        -0.1150 
     11 C11        -0.1026  -20.1249  -51.4051 C.ar      23 UNK        -0.0193 
     12 C12         0.4708  -21.2727  -50.8539 C.ar      23 UNK        -0.1150 
     13 C13         1.8213  -21.2907  -50.4943 C.ar      23 UNK        -0.0193 
     14 C14         2.5900  -20.1348  -50.6658 C.ar      23 UNK        -0.1150 
     15 C15         2.4441  -22.5708  -49.9476 C.3       23 UNK        -0.0205 
     16 S16         3.3624  -22.3525  -48.3846 S.3       23 UNK        -0.2404 
     17 C17         2.1410  -21.5610  -47.2859 C.3       23 UNK        -0.0398 
     18 CA          1.1574  -22.5668  -46.6313 C.3       11 UNK         0.1400 
     19 N           0.8751  -22.2311  -45.2335 N.am      11 UNK        -0.5000 
     20 C           0.2202  -23.0170  -44.3670 C.2       10 UNK         0.5000 
     21 O          -0.1601  -24.1581  -44.6274 O.2       10 UNK        -0.5000 
     22 CA         -0.1114  -22.3959  -42.9975 C.3       10 UNK         0.1400 
     23 CB          1.0677  -22.5551  -42.0267 C.3       10 UNK        -0.1800 
     24 N          -0.4659  -20.9792  -43.1117 N.am      10 UNK        -0.5000 
     25 C          -1.5963  -20.5362  -43.6836 C.2       9 UNK         0.5000 
     26 O          -2.4832  -21.2828  -44.0954 O.2       9 UNK        -0.5000 
     27 CA         -1.7413  -19.0125  -43.8766 C.3       9 UNK         0.1400 
     28 CB         -2.4530  -18.3811  -42.6720 C.3       9 UNK        -0.1800 
     29 N          -0.4629  -18.3332  -44.0979 N.am      9 UNK        -0.5000 
     30 C           0.3602  -18.5664  -45.1307 C.2       8 UNK         0.5000 
     31 O           0.0941  -19.3420  -46.0476 O.2       8 UNK        -0.5000 
     32 CA          1.7387  -17.8827  -45.0999 C.3       8 UNK         0.1400 
     33 CB          1.8017  -16.7105  -46.0852 C.3       8 UNK        -0.1800 
     34 N           2.1109  -17.4104  -43.7666 N.am      8 UNK        -0.5000 
     35 C           2.5214  -18.1961  -42.7612 C.2       7 UNK         0.5000 
     36 O           2.5650  -19.4240  -42.8491 O.2       7 UNK        -0.5000 
     37 CA          2.9021  -17.5061  -41.4313 C.3       7 UNK         0.1400 
     38 CB          4.0901  -18.1940  -40.7289 C.3       7 UNK        -0.1800 
     39 N           3.1213  -16.0589  -41.5574 N.am      7 UNK        -0.5000 
     40 C           4.0726  -15.4240  -42.2618 C.2       6 UNK         0.5000 
     41 O           4.9978  -16.0003  -42.8344 O.2       6 UNK        -0.5000 
     42 CA          3.9443  -13.8929  -42.3988 C.3       6 UNK         0.1400 
     43 CB          3.8707  -13.4985  -43.8809 C.3       6 UNK        -0.1800 
     44 N           2.7412  -13.3810  -41.7418 N.am      6 UNK        -0.5000 
     45 C           2.7103  -12.7617  -40.5549 C.2       5 UNK         0.5000 
     46 O           3.7136  -12.4922  -39.8939 O.2       5 UNK        -0.5000 
     47 CA          1.3160  -12.4090  -39.9962 C.3       5 UNK         0.1400 
     48 CB          0.9202  -10.9823  -40.4059 C.3       5 UNK        -0.1800 
     49 N           0.2639  -13.3349  -40.4257 N.am      5 UNK        -0.5000 
     50 C           0.2247  -14.6451  -40.1441 C.2       4 UNK         0.5000 
     51 O           1.0589  -15.2175  -39.4441 O.2       4 UNK        -0.5000 
     52 CA         -0.8925  -15.4738  -40.8037 C.3       4 UNK         0.1400 
     53 CB         -2.0580  -15.6841  -39.8264 C.3       4 UNK        -0.1800 
     54 N          -1.4092  -14.8983  -42.0483 N.am      4 UNK        -0.5000 
     55 C          -0.7080  -14.7106  -43.1748 C.2       3 UNK         0.5000 
     56 O           0.4890  -14.9944  -43.2804 O.2       3 UNK        -0.5000 
     57 CA         -1.5075  -14.1520  -44.3709 C.3       3 UNK         0.1400 
     58 CB         -2.3976  -12.9515  -43.9804 C.3       3 UNK        -0.1800 
     59 N          -0.6881  -13.8257  -45.5407 N.am      3 UNK        -0.5000 
     60 C           0.2458  -12.8665  -45.6589 C.2       2 UNK         0.5000 
     61 O           0.5709  -12.1124  -44.7406 O.2       2 UNK        -0.5000 
     62 CA          0.9083  -12.6965  -47.0440 C.3       2 UNK         0.1400 
     63 CB          2.4423  -12.6069  -46.9673 C.3       2 UNK        -0.1800 
     64 N           0.5372  -13.7692  -47.9643 N.am      2 UNK        -0.5000 
     65 C           0.3394  -13.6603  -49.2811 C.2       1 UNK         0.5000 
     66 O           0.4488  -12.6060  -49.9087 O.2       1 UNK        -0.5000 
     67 C          -0.1514  -22.6775  -47.4369 C.2       11 UNK         0.5000 
     68 O          -0.3468  -23.6585  -48.1526 O.2       11 UNK        -0.5000 
     69 N          -1.0439  -21.6929  -47.2574 N.am      12 UNK        -0.5000 
     70 CA         -2.3779  -21.6452  -47.8539 C.3       12 UNK         0.1400 
     71 CB         -3.0739  -20.3379  -47.4485 C.3       12 UNK        -0.1800 
     72 C          -3.2412  -22.8577  -47.4687 C.2       12 UNK         0.5000 
     73 O          -3.8693  -23.4530  -48.3435 O.2       12 UNK        -0.5000 
     74 N          -3.2205  -23.2245  -46.1792 N.am      13 UNK        -0.5000 
     75 CA         -3.8906  -24.4058  -45.6383 C.3       13 UNK         0.1400 
     76 CB         -3.8028  -24.3949  -44.1049 C.3       13 UNK        -0.1800 
     77 C          -3.3321  -25.7199  -46.2130 C.2       13 UNK         0.5000 
     78 O          -4.1154  -26.5775  -46.6210 O.2       13 UNK        -0.5000 
     79 N          -1.9975  -25.8391  -46.2789 N.am      14 UNK        -0.5000 
     80 CA         -1.2919  -26.9859  -46.8596 C.3       14 UNK         0.1400 
     81 CB          0.2138  -26.8570  -46.5833 C.3       14 UNK        -0.1800 
     82 C          -1.5572  -27.1591  -48.3680 C.2       14 UNK         0.5000 
     83 O          -1.7016  -28.2887  -48.8363 O.2       14 UNK        -0.5000 
     84 N          -1.6535  -26.0359  -49.0902 N.am      15 UNK        -0.5000 
     85 CA         -2.0041  -25.9698  -50.5094 C.3       15 UNK         0.1400 
     86 CB         -1.5221  -24.6221  -51.0700 C.3       15 UNK        -0.1800 
     87 C          -3.5100  -26.1535  -50.7870 C.2       15 UNK         0.5000 
     88 O          -3.8901  -26.2238  -51.9551 O.2       15 UNK        -0.5000 
     89 N          -4.3425  -26.1886  -49.7347 N.am      16 UNK        -0.5000 
     90 CA         -5.8090  -26.2507  -49.7639 C.3       16 UNK         0.1400 
     91 CB         -6.2883  -27.6123  -50.3083 C.3       16 UNK        -0.1800 
     92 C          -6.4423  -25.0457  -50.4953 C.2       16 UNK         0.5000 
     93 O          -7.4377  -25.1998  -51.2053 O.2       16 UNK        -0.5000 
     94 N          -5.8304  -23.8674  -50.3076 N.am      17 UNK        -0.5000 
     95 CA         -6.1688  -22.5686  -50.8943 C.3       17 UNK         0.1400 
     96 CB         -7.5128  -22.0521  -50.3420 C.3       17 UNK        -0.1800 
     97 C          -6.0917  -22.5267  -52.4371 C.2       17 UNK         0.5000 
     98 O          -6.8047  -21.7415  -53.0634 O.2       17 UNK        -0.5000 
     99 N          -5.2227  -23.3583  -53.0281 N.am      18 UNK        -0.5000 
    100 CA        -4.9255  -23.3611  -54.4608 C.3       18 UNK         0.1400 
    101 CB        -4.1585  -24.6462  -54.8077 C.3       18 UNK        -0.1800 
    102 C         -4.1152  -22.1215  -54.8890 C.2       18 UNK         0.5000 
    103 O         -3.3882  -21.5536  -54.0722 O.2       18 UNK        -0.5000 
    104 N         -4.2300  -21.7733  -56.1788 N.am      19 UNK        -0.5000 
    105 CA        -3.6130  -20.6386  -56.8795 C.3       19 UNK         0.1400 
    106 CB        -2.0784  -20.6314  -56.7176 C.3       19 UNK        -0.1800 
    107 C         -4.2208  -19.2745  -56.4976 C.2       19 UNK         0.5000 
    108 O         -4.8200  -19.1168  -55.4318 O.2       19 UNK        -0.5000 
    109 N         -4.0364  -18.2879  -57.3853 N.am      20 UNK        -0.5000 
    110 CA        -4.5789  -16.9274  -57.2722 C.3       20 UNK         0.1400 
    111 CB        -4.2792  -16.1652  -58.5724 C.3       20 UNK        -0.1800 
    112 C         -4.0716  -16.1306  -56.0524 C.2       20 UNK         0.5000 
    113 O         -4.7253  -15.1714  -55.6413 O.2       20 UNK        -0.5000 
    114 N         -2.9298  -16.5471  -55.4896 N.am      21 UNK        -0.5000 
    115 CA        -2.3489  -15.9987  -54.2656 C.3       21 UNK         0.1400 
    116 CB        -0.8981  -16.4865  -54.1485 C.3       21 UNK        -0.1800 
    117 C         -3.1406  -16.3545  -52.9906 C.2       21 UNK         0.5000 
    118 O         -3.0105  -15.6365  -51.9971 O.2       21 UNK        -0.5000 
    119 N         -3.9276  -17.4391  -53.0308 N.am      22 UNK        -0.5000 
    120 CA        -4.7503  -17.9185  -51.9076 C.3       22 UNK         0.1400 
    121 C         -6.2574  -18.0516  -52.2582 C.2       22 UNK         0.5000 
    122 N         -6.6443  -18.2354  -53.5135 N.am      22 UNK        -0.7600 
    123 O         -7.0992  -17.9659  -51.3686 O.2       22 UNK        -0.5000 
    124 C124       -4.2159  -19.2454  -51.3157 C.3       23 UNK        -0.0398 
    125 S125       -2.5333  -19.0940  -50.6314 S.3       23 UNK        -0.2404 
    126 C126       -1.5710  -20.1019  -51.7964 C.3       23 UNK        -0.0205 
    127 H127       -3.7256  -15.7660  -47.4722 H         1 UNK         0.0600 
    128 H128       -3.3602  -17.3619  -48.1329 H         1 UNK         0.0600 
    129 H129       -3.8303  -16.0449  -49.2111 H         1 UNK         0.0600 
    130 H130       -2.0701  -15.4289  -50.3908 H         1 UNK         0.3000 
    131 H131       -0.1996  -14.6758  -51.0607 H         1 UNK         0.0600 
    132 H132        1.7445  -15.8851  -49.1156 H         1 UNK         0.0800 
    133 H133        0.6079  -17.0226  -49.7535 H         1 UNK         0.0800 
    134 H134        3.5657  -17.8431  -52.1603 H         1 UNK         0.0800 
    135 H135        3.5482  -17.6487  -50.4241 H         1 UNK         0.0800 
    136 H136        0.2238  -18.1053  -52.0078 H         1 UNK         0.1150 
    137 H137       -0.1351  -22.1546  -50.7103 H         1 UNK         0.1150 
    138 H138        3.6324  -20.1431  -50.3791 H         1 UNK         0.1150 
    139 H139        1.6865  -23.3418  -49.8049 H         1 UNK         0.0800 
    140 H140        3.1312  -22.9644  -50.6975 H         1 UNK         0.0800 
    141 H141        1.6291  -20.7507  -47.8086 H         1 UNK         0.0800 
    142 H142        2.7286  -21.0639  -46.5129 H         1 UNK         0.0800 
    143 H143        1.6198  -23.5564  -46.6214 H         1 UNK         0.0600 
    144 H144        1.1042  -21.2923  -44.9433 H         1 UNK         0.3000 
    145 H145       -0.9677  -22.9328  -42.5837 H         1 UNK         0.0600 
    146 H146        0.8277  -22.1494  -41.0438 H         1 UNK         0.0600 
    147 H147        1.3200  -23.6076  -41.8913 H         1 UNK         0.0600 
    148 H148        1.9625  -22.0483  -42.3896 H         1 UNK         0.0600 
    149 H149        0.2308  -20.3103  -42.8147 H         1 UNK         0.3000 
    150 H150       -2.3594  -18.8490  -44.7612 H         1 UNK         0.0600 
    151 H151       -3.4085  -18.8719  -42.4823 H         1 UNK         0.0600 
    152 H152       -2.6642  -17.3270  -42.8481 H         1 UNK         0.0600 
    153 H153       -1.8571  -18.4621  -41.7623 H         1 UNK         0.0600 
    154 H154       -0.1608  -17.6754  -43.3957 H         1 UNK         0.3000 
    155 H155        2.4726  -18.6258  -45.4186 H         1 UNK         0.0600 
    156 H156        2.8083  -16.2968  -46.1461 H         1 UNK         0.0600 
    157 H157        1.1267  -15.9087  -45.7920 H         1 UNK         0.0600 
    158 H158        1.5183  -17.0358  -47.0861 H         1 UNK         0.0600 
    159 H159        2.0034  -16.4172  -43.5952 H         1 UNK         0.3000 
    160 H160        2.0330  -17.6179  -40.7819 H         1 UNK         0.0600 
    161 H161        4.9832  -18.2035  -41.3539 H         1 UNK         0.0600 
    162 H162        3.8535  -19.2307  -40.4866 H         1 UNK         0.0600 
    163 H163        4.3388  -17.6927  -39.7935 H         1 UNK         0.0600 
    164 H164        2.4371  -15.4838  -41.0825 H         1 UNK         0.3000 
    165 H165        4.8410  -13.4458  -41.9655 H         1 UNK         0.0600 
    166 H166        3.0105  -13.9614  -44.3654 H         1 UNK         0.0600 
    167 H167        3.7808  -12.4184  -43.9972 H         1 UNK         0.0600 
    168 H168        4.7644  -13.8109  -44.4223 H         1 UNK         0.0600 
    169 H169        1.8665  -13.5671  -42.2187 H         1 UNK         0.3000 
    170 H170        1.3761  -12.4515  -38.9068 H         1 UNK         0.0600 
    171 H171        1.6715  -10.2603  -40.0831 H         1 UNK         0.0600 
    172 H172        0.8185  -10.8890  -41.4883 H         1 UNK         0.0600 
    173 H173       -0.0266  -10.6890  -39.9522 H         1 UNK         0.0600 
    174 H174       -0.4587  -12.9537  -41.0182 H         1 UNK         0.3000 
    175 H175       -0.4679  -16.4507  -41.0425 H         1 UNK         0.0600 
    176 H176       -2.5415  -14.7411  -39.5681 H         1 UNK         0.0600 
    177 H177       -2.8146  -16.3453  -40.2489 H         1 UNK         0.0600 
    178 H178       -1.7125  -16.1410  -38.8979 H         1 UNK         0.0600 
    179 H179       -2.3854  -14.6401  -42.0416 H         1 UNK         0.3000 
    180 H180       -2.1637  -14.9609  -44.6958 H         1 UNK         0.0600 
    181 H181       -1.8200  -12.1496  -43.5193 H         1 UNK         0.0600 
    182 H182       -3.1771  -13.2411  -43.2754 H         1 UNK         0.0600 
    183 H183       -2.9020  -12.5373  -44.8536 H         1 UNK         0.0600 
    184 H184       -0.8627  -14.4267  -46.3385 H         1 UNK         0.3000 
    185 H185        0.5309  -11.7487  -47.4327 H         1 UNK         0.0600 
    186 H186        2.8658  -12.3343  -47.9341 H         1 UNK         0.0600 
    187 H187        2.7632  -11.8494  -46.2517 H         1 UNK         0.0600 
    188 H188        2.8830  -13.5587  -46.6717 H         1 UNK         0.0600 
    189 H189        0.3506  -14.6768  -47.5503 H         1 UNK         0.3000 
    190 H190       -0.7695  -20.8933  -46.6927 H         1 UNK         0.3000 
    191 H191       -2.2498  -21.6499  -48.9379 H         1 UNK         0.0600 
    192 H192       -2.4281  -19.4781  -47.6266 H         1 UNK         0.0600 
    193 H193       -3.9871  -20.1906  -48.0259 H         1 UNK         0.0600 
    194 H194       -3.3524  -20.3309  -46.3958 H         1 UNK         0.0600 
    195 H195       -2.7240  -22.6394  -45.5142 H         1 UNK         0.3000 
    196 H196       -4.9447  -24.3440  -45.9168 H         1 UNK         0.0600 
    197 H197       -4.3145  -25.2583  -43.6780 H         1 UNK         0.0600 
    198 H198       -4.2705  -23.5017  -43.6905 H         1 UNK         0.0600 
    199 H199       -2.7694  -24.4209  -43.7589 H         1 UNK         0.0600 
    200 H200       -1.4180  -25.0994  -45.8943 H         1 UNK         0.3000 
    201 H201       -1.6524  -27.8855  -46.3566 H         1 UNK         0.0600 
    202 H202        0.4157  -26.8172  -45.5128 H         1 UNK         0.0600 
    203 H203        0.6313  -25.9570  -47.0354 H         1 UNK         0.0600 
    204 H204        0.7599  -27.7109  -46.9860 H         1 UNK         0.0600 
    205 H205       -1.4429  -25.1501  -48.6369 H         1 UNK         0.3000 
    206 H206       -1.4767  -26.7668  -51.0371 H         1 UNK         0.0600 
    207 H207       -0.4456  -24.5100  -50.9416 H         1 UNK         0.0600 
    208 H208       -1.7306  -24.5370  -52.1371 H         1 UNK         0.0600 
    209 H209       -2.0109  -23.7839  -50.5716 H         1 UNK         0.0600 
    210 H210       -3.9349  -26.1041  -48.8120 H         1 UNK         0.3000 
    211 H211       -6.1348  -26.1785  -48.7254 H         1 UNK         0.0600 
    212 H212       -6.0509  -27.7335  -51.3656 H         1 UNK         0.0600 
    213 H213       -7.3686  -27.7171  -50.2021 H         1 UNK         0.0600 
    214 H214       -5.8282  -28.4371  -49.7642 H         1 UNK         0.0600 
    215 H215       -5.0359  -23.8504  -49.6685 H         1 UNK         0.3000 
    216 H216       -5.3922  -21.8893  -50.5434 H         1 UNK         0.0600 
    217 H217       -7.5222  -22.0658  -49.2521 H         1 UNK         0.0600 
    218 H218       -8.3515  -22.6534  -50.6938 H         1 UNK         0.0600 
    219 H219       -7.6944  -21.0223  -50.6528 H         1 UNK         0.0600 
    220 H220       -4.6860  -23.9944  -52.4551 H         1 UNK         0.3000 
    221 H221       -5.8720  -23.3639  -55.0056 H         1 UNK         0.0600 
    222 H222       -3.2055  -24.6992  -54.2800 H         1 UNK         0.0600 
    223 H223       -4.7364  -25.5328  -54.5458 H         1 UNK         0.0600 
    224 H224       -3.9455  -24.7027  -55.8758 H         1 UNK         0.0600 
    225 H225       -4.8660  -22.3144  -56.7474 H         1 UNK         0.3000 
    226 H226       -3.8334  -20.7997  -57.9359 H         1 UNK         0.0600 
    227 H227       -1.6527  -21.6092  -56.9429 H         1 UNK         0.0600 
    228 H228       -1.6167  -19.9147  -57.3975 H         1 UNK         0.0600 
    229 H229       -1.7728  -20.3569  -55.7075 H         1 UNK         0.0600 
    230 H230       -3.5225  -18.4878  -58.2316 H         1 UNK         0.3000 
    231 H231       -5.6626  -17.0130  -57.1690 H         1 UNK         0.0600 
    232 H232       -4.6950  -15.1572  -58.5407 H         1 UNK         0.0600 
    233 H233       -4.7174  -16.6673  -59.4351 H         1 UNK         0.0600 
    234 H234       -3.2063  -16.0723  -58.7452 H         1 UNK         0.0600 
    235 H235       -2.4573  -17.3368  -55.9030 H         1 UNK         0.3000 
    236 H236       -2.3370  -14.9100  -54.3495 H         1 UNK         0.0600 
    237 H237       -0.3007  -16.1603  -54.9999 H         1 UNK         0.0600 
    238 H238       -0.4261  -16.0864  -53.2511 H         1 UNK         0.0600 
    239 H239       -0.8429  -17.5743  -54.0957 H         1 UNK         0.0600 
    240 H240       -4.0048  -17.9658  -53.8922 H         1 UNK         0.3000 
    241 H241       -4.7222  -17.1800  -51.1054 H         1 UNK         0.0600 
    242 H242       -5.9716  -18.4469  -54.2474 H         1 UNK         0.3800 
    243 H243       -7.6280  -18.3185  -53.7110 H         1 UNK         0.3800 
    244 H244       -4.2417  -20.0338  -52.0686 H         1 UNK         0.0800 
    245 H245       -4.8594  -19.5771  -50.4996 H         1 UNK         0.0800 
    246 H246       -1.9769  -21.1144  -51.8171 H         1 UNK         0.0800 
    247 H247       -1.6790  -19.6992  -52.8046 H         1 UNK         0.0800 
@<TRIPOS>BOND
     1    1    2 1    
     2    1  127 1    
     3    1  128 1    
     4    1  129 1    
     5    2    3 2    
     6    2    4 am   BACKBONE|DICT|INTERRES
     7    4    5 1    
     8    4  130 1    
     9    5    6 1    
    10    5   65 1    
    11    5  131 1    
    12    6    7 1    
    13    6  132 1    
    14    6  133 1    
    15    7    8 1    
    16    8    9 1    
    17    8  134 1    
    18    8  135 1    
    19    9   10 ar   
    20    9   14 ar   
    21   10   11 ar   
    22   10  136 1    
    23   11   12 ar   
    24   11  126 1    
    25   12   13 ar   
    26   12  137 1    
    27   13   14 ar   
    28   13   15 1    
    29   14  138 1    
    30   15   16 1    
    31   15  139 1    
    32   15  140 1    
    33   16   17 1    
    34   17   18 1    
    35   17  141 1    
    36   17  142 1    
    37   18   19 1    
    38   18   67 1    
    39   18  143 1    
    40   19   20 am   BACKBONE|DICT|INTERRES
    41   19  144 1    
    42   20   21 2    
    43   20   22 1    
    44   22   23 1    
    45   22   24 1    
    46   22  145 1    
    47   23  146 1    
    48   23  147 1    
    49   23  148 1    
    50   24   25 am   BACKBONE|DICT|INTERRES
    51   24  149 1    
    52   25   26 2    
    53   25   27 1    
    54   27   28 1    
    55   27   29 1    
    56   27  150 1    
    57   28  151 1    
    58   28  152 1    
    59   28  153 1    
    60   29   30 am   BACKBONE|DICT|INTERRES
    61   29  154 1    
    62   30   31 2    
    63   30   32 1    
    64   32   33 1    
    65   32   34 1    
    66   32  155 1    
    67   33  156 1    
    68   33  157 1    
    69   33  158 1    
    70   34   35 am   BACKBONE|DICT|INTERRES
    71   34  159 1    
    72   35   36 2    
    73   35   37 1    
    74   37   38 1    
    75   37   39 1    
    76   37  160 1    
    77   38  161 1    
    78   38  162 1    
    79   38  163 1    
    80   39   40 am   BACKBONE|DICT|INTERRES
    81   39  164 1    
    82   40   41 2    
    83   40   42 1    
    84   42   43 1    
    85   42   44 1    
    86   42  165 1    
    87   43  166 1    
    88   43  167 1    
    89   43  168 1    
    90   44   45 am   BACKBONE|DICT|INTERRES
    91   44  169 1    
    92   45   46 2    
    93   45   47 1    
    94   47   48 1    
    95   47   49 1    
    96   47  170 1    
    97   48  171 1    
    98   48  172 1    
    99   48  173 1    
   100   49   50 am   BACKBONE|DICT|INTERRES
   101   49  174 1    
   102   50   51 2    
   103   50   52 1    
   104   52   53 1    
   105   52   54 1    
   106   52  175 1    
   107   53  176 1    
   108   53  177 1    
   109   53  178 1    
   110   54   55 am   BACKBONE|DICT|INTERRES
   111   54  179 1    
   112   55   56 2    
   113   55   57 1    
   114   57   58 1    
   115   57   59 1    
   116   57  180 1    
   117   58  181 1    
   118   58  182 1    
   119   58  183 1    
   120   59   60 am   BACKBONE|DICT|INTERRES
   121   59  184 1    
   122   60   61 2    
   123   60   62 1    
   124   62   63 1    
   125   62   64 1    
   126   62  185 1    
   127   63  186 1    
   128   63  187 1    
   129   63  188 1    
   130   64   65 am   BACKBONE|DICT|INTERRES
   131   64  189 1    
   132   65   66 2    
   133   67   68 2    
   134   67   69 am   BACKBONE|DICT|INTERRES
   135   69   70 1    
   136   69  190 1    
   137   70   71 1    
   138   70   72 1    
   139   70  191 1    
   140   71  192 1    
   141   71  193 1    
   142   71  194 1    
   143   72   73 2    
   144   72   74 am   BACKBONE|DICT|INTERRES
   145   74   75 1    
   146   74  195 1    
   147   75   76 1    
   148   75   77 1    
   149   75  196 1    
   150   76  197 1    
   151   76  198 1    
   152   76  199 1    
   153   77   78 2    
   154   77   79 am   BACKBONE|DICT|INTERRES
   155   79   80 1    
   156   79  200 1    
   157   80   81 1    
   158   80   82 1    
   159   80  201 1    
   160   81  202 1    
   161   81  203 1    
   162   81  204 1    
   163   82   83 2    
   164   82   84 am   BACKBONE|DICT|INTERRES
   165   84   85 1    
   166   84  205 1    
   167   85   86 1    
   168   85   87 1    
   169   85  206 1    
   170   86  207 1    
   171   86  208 1    
   172   86  209 1    
   173   87   88 2    
   174   87   89 am   BACKBONE|DICT|INTERRES
   175   89   90 1    
   176   89  210 1    
   177   90   91 1    
   178   90   92 1    
   179   90  211 1    
   180   91  212 1    
   181   91  213 1    
   182   91  214 1    
   183   92   93 2    
   184   92   94 am   BACKBONE|DICT|INTERRES
   185   94   95 1    
   186   94  215 1    
   187   95   96 1    
   188   95   97 1    
   189   95  216 1    
   190   96  217 1    
   191   96  218 1    
   192   96  219 1    
   193   97   98 2    
   194   97   99 am   BACKBONE|DICT|INTERRES
   195   99  100 1    
   196   99  220 1    
   197  100  101 1    
   198  100  102 1    
   199  100  221 1    
   200  101  222 1    
   201  101  223 1    
   202  101  224 1    
   203  102  103 2    
   204  102  104 am   BACKBONE|DICT|INTERRES
   205  104  105 1    
   206  104  225 1    
   207  105  106 1    
   208  105  107 1    
   209  105  226 1    
   210  106  227 1    
   211  106  228 1    
   212  106  229 1    
   213  107  108 2    
   214  107  109 am   BACKBONE|DICT|INTERRES
   215  109  110 1    
   216  109  230 1    
   217  110  111 1    
   218  110  112 1    
   219  110  231 1    
   220  111  232 1    
   221  111  233 1    
   222  111  234 1    
   223  112  113 2    
   224  112  114 am   BACKBONE|DICT|INTERRES
   225  114  115 1    
   226  114  235 1    
   227  115  116 1    
   228  115  117 1    
   229  115  236 1    
   230  116  237 1    
   231  116  238 1    
   232  116  239 1    
   233  117  118 2    
   234  117  119 am   BACKBONE|DICT|INTERRES
   235  119  120 1    
   236  119  240 1    
   237  120  121 1    
   238  120  124 1    
   239  120  241 1    
   240  121  122 am   BACKBONE|DICT|INTERRES
   241  121  123 2    
   242  122  242 1    
   243  122  243 1    
   244  124  125 1    
   245  124  244 1    
   246  124  245 1    
   247  125  126 1    
   248  126  246 1    
   249  126  247 1    
@<TRIPOS>SUBSTRUCTURE
     1 UNK         1 GROUP             0       ****    0 ROOT    
