@<TRIPOS>MOLECULE
3R540
247   249    1
SMALL
USER_CHARGES


@<TRIPOS>ATOM
      1 CA          3.3893  -11.9611  -50.2175 C.3       0 UNK        -0.1800 
      2 C           2.3632  -12.5342  -49.2514 C.2       0 UNK         0.5000 
      3 O           2.7360  -13.1858  -48.2774 O.2       0 UNK        -0.5000 
      4 N           1.0728  -12.2764  -49.5020 N.am      1 UNK        -0.5000 
      5 CA         -0.0702  -12.7906  -48.7301 C.3       1 UNK         0.1400 
      6 C6         -1.4270  -12.4594  -49.4040 C.3       23 UNK        -0.0398 
      7 S7         -1.5100  -12.8871  -51.1795 S.3       23 UNK        -0.2404 
      8 C8         -2.5919  -14.3516  -51.1905 C.3       23 UNK        -0.0205 
      9 C9         -1.8084  -15.6343  -50.9648 C.ar      23 UNK        -0.0193 
     10 C10        -1.1696  -16.2550  -52.0422 C.ar      23 UNK        -0.1150 
     11 C11        -0.4692  -17.4498  -51.8618 C.ar      23 UNK        -0.0193 
     12 C12        -0.4062  -18.0225  -50.5878 C.ar      23 UNK        -0.1150 
     13 C13        -1.0336  -17.4070  -49.5008 C.ar      23 UNK        -0.0193 
     14 C14        -1.7343  -16.2121  -49.6941 C.ar      23 UNK        -0.1150 
     15 C15        -0.9308  -18.0202  -48.1152 C.3       23 UNK        -0.0205 
     16 S16        -2.2459  -19.2304  -47.7875 S.3       23 UNK        -0.2404 
     17 C17        -1.7292  -19.8203  -46.1379 C.3       23 UNK        -0.0398 
     18 CA         -1.1771  -21.2665  -46.1828 C.3       11 UNK         0.1400 
     19 N          -0.0222  -21.4546  -45.2990 N.am      11 UNK        -0.5000 
     20 C           0.8179  -22.4986  -45.3658 C.2       10 UNK         0.5000 
     21 O           0.7011  -23.4024  -46.1939 O.2       10 UNK        -0.5000 
     22 CA          1.9416  -22.5851  -44.3162 C.3       10 UNK         0.1400 
     23 CB          3.2870  -22.1580  -44.9226 C.3       10 UNK        -0.1800 
     24 N           1.6712  -21.7925  -43.1155 N.am      10 UNK        -0.5000 
     25 C           0.7575  -22.1114  -42.1875 C.2       9 UNK         0.5000 
     26 O           0.0409  -23.1106  -42.2609 O.2       9 UNK        -0.5000 
     27 CA          0.5835  -21.1541  -40.9881 C.3       9 UNK         0.1400 
     28 CB          1.7599  -20.1733  -40.7893 C.3       9 UNK        -0.1800 
     29 N          -0.6817  -20.4122  -41.0323 N.am      9 UNK        -0.5000 
     30 C          -1.1348  -19.6614  -42.0465 C.2       8 UNK         0.5000 
     31 O          -0.5757  -19.5798  -43.1402 O.2       8 UNK        -0.5000 
     32 CA         -2.4200  -18.8394  -41.8263 C.3       8 UNK         0.1400 
     33 CB         -3.0733  -18.9989  -40.4345 C.3       8 UNK        -0.1800 
     34 N          -2.1540  -17.4362  -42.1549 N.am      8 UNK        -0.5000 
     35 C          -1.3223  -16.5982  -41.5188 C.2       7 UNK         0.5000 
     36 O          -0.8148  -16.8253  -40.4192 O.2       7 UNK        -0.5000 
     37 CA         -0.9485  -15.3173  -42.2924 C.3       7 UNK         0.1400 
     38 CB         -0.3998  -14.2097  -41.3755 C.3       7 UNK        -0.1800 
     39 N           0.0595  -15.6173  -43.3063 N.am      7 UNK        -0.5000 
     40 C          -0.1423  -16.2982  -44.4412 C.2       6 UNK         0.5000 
     41 O          -1.2570  -16.6566  -44.8229 O.2       6 UNK        -0.5000 
     42 CA          1.0998  -16.6568  -45.2783 C.3       6 UNK         0.1400 
     43 CB          1.3293  -15.6221  -46.3892 C.3       6 UNK        -0.1800 
     44 N           2.3112  -16.7409  -44.4634 N.am      6 UNK        -0.5000 
     45 C           2.8287  -17.8728  -43.9679 C.2       5 UNK         0.5000 
     46 O           2.3367  -18.9859  -44.1461 O.2       5 UNK        -0.5000 
     47 CA          4.1348  -17.7617  -43.1558 C.3       5 UNK         0.1400 
     48 CB          5.3271  -18.2317  -44.0033 C.3       5 UNK        -0.1800 
     49 N           4.4025  -16.4047  -42.6769 N.am      5 UNK        -0.5000 
     50 C           3.8413  -15.8600  -41.5891 C.2       4 UNK         0.5000 
     51 O           3.0833  -16.4674  -40.8339 O.2       4 UNK        -0.5000 
     52 CA          4.1560  -14.3739  -41.3175 C.3       4 UNK         0.1400 
     53 CB          5.3773  -14.2430  -40.3950 C.3       4 UNK        -0.1800 
     54 N           4.3784  -13.5716  -42.5281 N.am      4 UNK        -0.5000 
     55 C           3.4752  -13.3983  -43.5019 C.2       3 UNK         0.5000 
     56 O           2.3826  -13.9658  -43.5141 O.2       3 UNK        -0.5000 
     57 CA          3.8838  -12.4959  -44.6818 C.3       3 UNK         0.1400 
     58 CB          4.7216  -13.2973  -45.6899 C.3       3 UNK        -0.1800 
     59 N           2.7270  -11.9187  -45.3747 N.am      3 UNK        -0.5000 
     60 C           1.8724  -11.0421  -44.8234 C.2       2 UNK         0.5000 
     61 O           2.0094  -10.5958  -43.6827 O.2       2 UNK        -0.5000 
     62 CA          0.6841  -10.5430  -45.6724 C.3       2 UNK         0.1400 
     63 CB          0.7737   -9.0224  -45.8858 C.3       2 UNK        -0.1800 
     64 N           0.5897  -11.1816  -46.9849 N.am      2 UNK        -0.5000 
     65 C          -0.0917  -12.3020  -47.2606 C.2       1 UNK         0.5000 
     66 O          -0.7303  -12.9346  -46.4201 O.2       1 UNK        -0.5000 
     67 C          -2.2914  -22.3087  -45.9412 C.2       11 UNK         0.5000 
     68 O          -3.1154  -22.5242  -46.8294 O.2       11 UNK        -0.5000 
     69 N          -2.2836  -22.9778  -44.7776 N.am      12 UNK        -0.5000 
     70 CA         -3.1714  -24.1004  -44.4697 C.3       12 UNK         0.1400 
     71 CB         -3.0250  -24.4802  -42.9895 C.3       12 UNK        -0.1800 
     72 C          -2.9113  -25.3193  -45.3768 C.2       12 UNK         0.5000 
     73 O          -3.8649  -25.9649  -45.8110 O.2       12 UNK        -0.5000 
     74 N          -1.6341  -25.5745  -45.7011 N.am      13 UNK        -0.5000 
     75 CA         -1.2107  -26.6168  -46.6419 C.3       13 UNK         0.1400 
     76 CB          0.2912  -26.8854  -46.4645 C.3       13 UNK        -0.1800 
     77 C          -1.5326  -26.2560  -48.1057 C.2       13 UNK         0.5000 
     78 O          -1.7458  -27.1521  -48.9220 O.2       13 UNK        -0.5000 
     79 N          -1.6030  -24.9503  -48.3984 N.am      14 UNK        -0.5000 
     80 CA         -2.0418  -24.3879  -49.6769 C.3       14 UNK         0.1400 
     81 CB         -1.4154  -22.9936  -49.8406 C.3       14 UNK        -0.1800 
     82 C          -3.5780  -24.3075  -49.8051 C.2       14 UNK         0.5000 
     83 O          -4.0637  -23.8373  -50.8356 O.2       14 UNK        -0.5000 
     84 N          -4.3100  -24.7333  -48.7629 N.am      15 UNK        -0.5000 
     85 CA         -5.7684  -24.7095  -48.6176 C.3       15 UNK         0.1400 
     86 CB         -6.4326  -25.6747  -49.6204 C.3       15 UNK        -0.1800 
     87 C          -6.3380  -23.2794  -48.6914 C.2       15 UNK         0.5000 
     88 O          -7.3082  -23.0363  -49.4086 O.2       15 UNK        -0.5000 
     89 N          -5.6842  -22.3473  -47.9822 N.am      16 UNK        -0.5000 
     90 CA         -5.9300  -20.9007  -47.9965 C.3       16 UNK         0.1400 
     91 CB         -7.3140  -20.5604  -47.4052 C.3       16 UNK        -0.1800 
     92 C          -5.6912  -20.2969  -49.3961 C.2       16 UNK         0.5000 
     93 O          -6.4672  -19.4588  -49.8570 O.2       16 UNK        -0.5000 
     94 N          -4.6190  -20.7775  -50.0434 N.am      17 UNK        -0.5000 
     95 CA         -4.1219  -20.4270  -51.3775 C.3       17 UNK         0.1400 
     96 CB         -3.8756  -18.9120  -51.4890 C.3       17 UNK        -0.1800 
     97 C          -4.9771  -20.9648  -52.5445 C.2       17 UNK         0.5000 
     98 O          -4.6778  -20.6527  -53.7001 O.2       17 UNK        -0.5000 
     99 N          -6.0070  -21.7709  -52.2505 N.am      18 UNK        -0.5000 
    100 CA        -6.9114  -22.3472  -53.2440 C.3       18 UNK         0.1400 
    101 CB        -8.2232  -22.7698  -52.5674 C.3       18 UNK        -0.1800 
    102 C         -6.2882  -23.5355  -53.9943 C.2       18 UNK         0.5000 
    103 O         -6.4753  -23.6429  -55.2063 O.2       18 UNK        -0.5000 
    104 N         -5.5471  -24.3954  -53.2798 N.am      19 UNK        -0.5000 
    105 CA        -4.8798  -25.5671  -53.8570 C.3       19 UNK         0.1400 
    106 CB        -4.6300  -26.6239  -52.7701 C.3       19 UNK        -0.1800 
    107 C         -3.5676  -25.1857  -54.5606 C.2       19 UNK         0.5000 
    108 O         -3.1960  -25.8242  -55.5456 O.2       19 UNK        -0.5000 
    109 N         -2.9111  -24.1283  -54.0640 N.am      20 UNK        -0.5000 
    110 CA        -1.7411  -23.5102  -54.6910 C.3       20 UNK         0.1400 
    111 CB        -0.9833  -22.7000  -53.6317 C.3       20 UNK        -0.1800 
    112 C         -2.1014  -22.6330  -55.9096 C.2       20 UNK         0.5000 
    113 O         -1.2111  -22.3068  -56.6952 O.2       20 UNK        -0.5000 
    114 N         -3.3917  -22.2884  -56.0484 N.am      21 UNK        -0.5000 
    115 CA        -4.0005  -21.4851  -57.1119 C.3       21 UNK         0.1400 
    116 CB        -3.9257  -22.2214  -58.4659 C.3       21 UNK        -0.1800 
    117 C         -3.4417  -20.0489  -57.1623 C.2       21 UNK         0.5000 
    118 O         -3.0893  -19.5524  -58.2347 O.2       21 UNK        -0.5000 
    119 N         -3.3736  -19.4123  -55.9895 N.am      22 UNK        -0.5000 
    120 CA        -2.8617  -18.0470  -55.7895 C.3       22 UNK         0.1400 
    121 C         -3.7596  -17.1590  -54.8824 C.2       22 UNK         0.5000 
    122 N         -4.8971  -17.6401  -54.3953 N.am      22 UNK        -0.7600 
    123 O         -3.4479  -15.9931  -54.6577 O.2       22 UNK        -0.5000 
    124 C124       -1.3572  -18.0277  -55.4003 C.3       23 UNK        -0.0398 
    125 S125       -0.9088  -19.1378  -54.0171 S.3       23 UNK        -0.2404 
    126 C126        0.2325  -18.1154  -53.0352 C.3       23 UNK        -0.0205 
    127 H127        3.9707  -12.7665  -50.6660 H         1 UNK         0.0600 
    128 H128        2.9180  -11.3932  -51.0200 H         1 UNK         0.0600 
    129 H129        4.0740  -11.2992  -49.6874 H         1 UNK         0.0600 
    130 H130        0.8275  -11.7444  -50.3253 H         1 UNK         0.3000 
    131 H131        0.0307  -13.8770  -48.7046 H         1 UNK         0.0600 
    132 H132       -2.2410  -12.9575  -48.8746 H         1 UNK         0.0800 
    133 H133       -1.6337  -11.3902  -49.3260 H         1 UNK         0.0800 
    134 H134       -3.0905  -14.4061  -52.1598 H         1 UNK         0.0800 
    135 H135       -3.3885  -14.2464  -50.4527 H         1 UNK         0.0800 
    136 H136       -1.2253  -15.8087  -53.0249 H         1 UNK         0.1150 
    137 H137        0.1332  -18.9476  -50.4403 H         1 UNK         0.1150 
    138 H138       -2.2240  -15.7355  -48.8565 H         1 UNK         0.1150 
    139 H139        0.0446  -18.4930  -47.9896 H         1 UNK         0.0800 
    140 H140       -1.0006  -17.2338  -47.3665 H         1 UNK         0.0800 
    141 H141       -0.9651  -19.1428  -45.7588 H         1 UNK         0.0800 
    142 H142       -2.5636  -19.7193  -45.4413 H         1 UNK         0.0800 
    143 H143       -0.7986  -21.4506  -47.1898 H         1 UNK         0.0600 
    144 H144        0.1045  -20.7617  -44.5646 H         1 UNK         0.3000 
    145 H145        2.0268  -23.6320  -44.0174 H         1 UNK         0.0600 
    146 H146        4.0907  -22.2198  -44.1888 H         1 UNK         0.0600 
    147 H147        3.5584  -22.8057  -45.7572 H         1 UNK         0.0600 
    148 H148        3.2553  -21.1370  -45.3026 H         1 UNK         0.0600 
    149 H149        2.1256  -20.8884  -43.0651 H         1 UNK         0.3000 
    150 H150        0.5393  -21.7914  -40.1038 H         1 UNK         0.0600 
    151 H151        2.7185  -20.6935  -40.7794 H         1 UNK         0.0600 
    152 H152        1.6698  -19.6505  -39.8371 H         1 UNK         0.0600 
    153 H153        1.7957  -19.4135  -41.5687 H         1 UNK         0.0600 
    154 H154       -1.2280  -20.4355  -40.1834 H         1 UNK         0.3000 
    155 H155       -3.1370  -19.1951  -42.5675 H         1 UNK         0.0600 
    156 H156       -3.9642  -18.3765  -40.3513 H         1 UNK         0.0600 
    157 H157       -2.4025  -18.7226  -39.6208 H         1 UNK         0.0600 
    158 H158       -3.3884  -20.0296  -40.2675 H         1 UNK         0.0600 
    159 H159       -2.3893  -17.1777  -43.1069 H         1 UNK         0.3000 
    160 H160       -1.8458  -14.9367  -42.7847 H         1 UNK         0.0600 
    161 H161        0.5276  -14.5127  -40.8871 H         1 UNK         0.0600 
    162 H162       -1.1181  -13.9564  -40.5951 H         1 UNK         0.0600 
    163 H163       -0.1944  -13.2994  -41.9396 H         1 UNK         0.0600 
    164 H164        0.9962  -15.2776  -43.1186 H         1 UNK         0.3000 
    165 H165        0.9103  -17.6219  -45.7507 H         1 UNK         0.0600 
    166 H166        1.5632  -14.6388  -45.9819 H         1 UNK         0.0600 
    167 H167        2.1508  -15.9163  -47.0424 H         1 UNK         0.0600 
    168 H168        0.4437  -15.5080  -47.0123 H         1 UNK         0.0600 
    169 H169        2.7346  -15.8568  -44.2114 H         1 UNK         0.3000 
    170 H170        4.0464  -18.4309  -42.2974 H         1 UNK         0.0600 
    171 H171        5.1789  -19.2544  -44.3532 H         1 UNK         0.0600 
    172 H172        5.4700  -17.6016  -44.8821 H         1 UNK         0.0600 
    173 H173        6.2514  -18.2187  -43.4254 H         1 UNK         0.0600 
    174 H174        5.0233  -15.8369  -43.2346 H         1 UNK         0.3000 
    175 H175        3.2921  -13.9513  -40.8000 H         1 UNK         0.0600 
    176 H176        6.2840  -14.6169  -40.8721 H         1 UNK         0.0600 
    177 H177        5.5493  -13.2044  -40.1119 H         1 UNK         0.0600 
    178 H178        5.2337  -14.8093  -39.4736 H         1 UNK         0.0600 
    179 H179        5.2649  -13.0917  -42.5906 H         1 UNK         0.3000 
    180 H180        4.4903  -11.6743  -44.2955 H         1 UNK         0.0600 
    181 H181        5.6274  -13.6906  -45.2271 H         1 UNK         0.0600 
    182 H182        4.1643  -14.1444  -46.0922 H         1 UNK         0.0600 
    183 H183        5.0318  -12.6741  -46.5290 H         1 UNK         0.0600 
    184 H184        2.5420  -12.2660  -46.3081 H         1 UNK         0.3000 
    185 H185       -0.2250  -10.7504  -45.1041 H         1 UNK         0.0600 
    186 H186        0.7925   -8.4911  -44.9333 H         1 UNK         0.0600 
    187 H187        1.6750   -8.7455  -46.4340 H         1 UNK         0.0600 
    188 H188       -0.0864   -8.6511  -46.4434 H         1 UNK         0.0600 
    189 H189        1.0938  -10.7376  -47.7388 H         1 UNK         0.3000 
    190 H190       -1.5699  -22.7617  -44.0943 H         1 UNK         0.3000 
    191 H191       -4.1995  -23.7722  -44.6375 H         1 UNK         0.0600 
    192 H192       -3.7236  -25.2734  -42.7204 H         1 UNK         0.0600 
    193 H193       -3.2323  -23.6294  -42.3402 H         1 UNK         0.0600 
    194 H194       -2.0202  -24.8381  -42.7624 H         1 UNK         0.0600 
    195 H195       -0.9073  -24.9714  -45.3406 H         1 UNK         0.3000 
    196 H196       -1.7497  -27.5357  -46.4012 H         1 UNK         0.0600 
    197 H197        0.6185  -27.7022  -47.1090 H         1 UNK         0.0600 
    198 H198        0.5237  -27.1689  -45.4379 H         1 UNK         0.0600 
    199 H199        0.8919  -26.0112  -46.7164 H         1 UNK         0.0600 
    200 H200       -1.4015  -24.2883  -47.6628 H         1 UNK         0.3000 
    201 H201       -1.6793  -25.0221  -50.4885 H         1 UNK         0.0600 
    202 H202       -0.3327  -23.0256  -49.7172 H         1 UNK         0.0600 
    203 H203       -1.8166  -22.2800  -49.1228 H         1 UNK         0.0600 
    204 H204       -1.6151  -22.5912  -50.8315 H         1 UNK         0.0600 
    205 H205       -3.8097  -25.0789  -47.9552 H         1 UNK         0.3000 
    206 H206       -5.9835  -25.0759  -47.6129 H         1 UNK         0.0600 
    207 H207       -5.9882  -26.6685  -49.5675 H         1 UNK         0.0600 
    208 H208       -7.4971  -25.7821  -49.4094 H         1 UNK         0.0600 
    209 H209       -6.3410  -25.3185  -50.6456 H         1 UNK         0.0600 
    210 H210       -4.8462  -22.6278  -47.4764 H         1 UNK         0.3000 
    211 H211       -5.1772  -20.4581  -47.3425 H         1 UNK         0.0600 
    212 H212       -8.1275  -20.9113  -48.0406 H         1 UNK         0.0600 
    213 H213       -7.4326  -19.4824  -47.2912 H         1 UNK         0.0600 
    214 H214       -7.4412  -21.0067  -46.4190 H         1 UNK         0.0600 
    215 H215       -4.0883  -21.4937  -49.5693 H         1 UNK         0.3000 
    216 H216       -3.1529  -20.9167  -51.4673 H         1 UNK         0.0600 
    217 H217       -4.8049  -18.3519  -51.5895 H         1 UNK         0.0600 
    218 H218       -3.2594  -18.6807  -52.3554 H         1 UNK         0.0600 
    219 H219       -3.3528  -18.5317  -50.6139 H         1 UNK         0.0600 
    220 H220       -6.1842  -22.0006  -51.2815 H         1 UNK         0.3000 
    221 H221       -7.1496  -21.5744  -53.9782 H         1 UNK         0.0600 
    222 H222       -8.0716  -23.5974  -51.8740 H         1 UNK         0.0600 
    223 H223       -8.6675  -21.9434  -52.0122 H         1 UNK         0.0600 
    224 H224       -8.9541  -23.0963  -53.3080 H         1 UNK         0.0600 
    225 H225       -5.3590  -24.1980  -52.3016 H         1 UNK         0.3000 
    226 H226       -5.5385  -26.0132  -54.6054 H         1 UNK         0.0600 
    227 H227       -5.5625  -26.9335  -52.2990 H         1 UNK         0.0600 
    228 H228       -4.1738  -27.5176  -53.1975 H         1 UNK         0.0600 
    229 H229       -3.9605  -26.2605  -51.9917 H         1 UNK         0.0600 
    230 H230       -3.2805  -23.6832  -53.2354 H         1 UNK         0.3000 
    231 H231       -1.0766  -24.2998  -55.0479 H         1 UNK         0.0600 
    232 H232       -1.6183  -21.9354  -53.1841 H         1 UNK         0.0600 
    233 H233       -0.6130  -23.3468  -52.8368 H         1 UNK         0.0600 
    234 H234       -0.1182  -22.1972  -54.0658 H         1 UNK         0.0600 
    235 H235       -4.0291  -22.5894  -55.3257 H         1 UNK         0.3000 
    236 H236       -5.0557  -21.3902  -56.8509 H         1 UNK         0.0600 
    237 H237       -4.3532  -23.2215  -58.3930 H         1 UNK         0.0600 
    238 H238       -4.4854  -21.6848  -59.2328 H         1 UNK         0.0600 
    239 H239       -2.8992  -22.3202  -58.8198 H         1 UNK         0.0600 
    240 H240       -3.6765  -19.8982  -55.1495 H         1 UNK         0.3000 
    241 H241       -2.9283  -17.5300  -56.7484 H         1 UNK         0.0600 
    242 H242       -5.1539  -18.6059  -54.5350 H         1 UNK         0.3800 
    243 H243       -5.4796  -17.0423  -53.8321 H         1 UNK         0.3800 
    244 H244       -1.0289  -17.0093  -55.1889 H         1 UNK         0.0800 
    245 H245       -0.7692  -18.3455  -56.2621 H         1 UNK         0.0800 
    246 H246        1.0356  -18.7564  -52.6684 H         1 UNK         0.0800 
    247 H247        0.7155  -17.3657  -53.6633 H         1 UNK         0.0800 
@<TRIPOS>BOND
     1    1    2 1    
     2    1  127 1    
     3    1  128 1    
     4    1  129 1    
     5    2    3 2    
     6    2    4 am   BACKBONE|DICT|INTERRES
     7    4    5 1    
     8    4  130 1    
     9    5    6 1    
    10    5   65 1    
    11    5  131 1    
    12    6    7 1    
    13    6  132 1    
    14    6  133 1    
    15    7    8 1    
    16    8    9 1    
    17    8  134 1    
    18    8  135 1    
    19    9   10 ar   
    20    9   14 ar   
    21   10   11 ar   
    22   10  136 1    
    23   11   12 ar   
    24   11  126 1    
    25   12   13 ar   
    26   12  137 1    
    27   13   14 ar   
    28   13   15 1    
    29   14  138 1    
    30   15   16 1    
    31   15  139 1    
    32   15  140 1    
    33   16   17 1    
    34   17   18 1    
    35   17  141 1    
    36   17  142 1    
    37   18   19 1    
    38   18   67 1    
    39   18  143 1    
    40   19   20 am   BACKBONE|DICT|INTERRES
    41   19  144 1    
    42   20   21 2    
    43   20   22 1    
    44   22   23 1    
    45   22   24 1    
    46   22  145 1    
    47   23  146 1    
    48   23  147 1    
    49   23  148 1    
    50   24   25 am   BACKBONE|DICT|INTERRES
    51   24  149 1    
    52   25   26 2    
    53   25   27 1    
    54   27   28 1    
    55   27   29 1    
    56   27  150 1    
    57   28  151 1    
    58   28  152 1    
    59   28  153 1    
    60   29   30 am   BACKBONE|DICT|INTERRES
    61   29  154 1    
    62   30   31 2    
    63   30   32 1    
    64   32   33 1    
    65   32   34 1    
    66   32  155 1    
    67   33  156 1    
    68   33  157 1    
    69   33  158 1    
    70   34   35 am   BACKBONE|DICT|INTERRES
    71   34  159 1    
    72   35   36 2    
    73   35   37 1    
    74   37   38 1    
    75   37   39 1    
    76   37  160 1    
    77   38  161 1    
    78   38  162 1    
    79   38  163 1    
    80   39   40 am   BACKBONE|DICT|INTERRES
    81   39  164 1    
    82   40   41 2    
    83   40   42 1    
    84   42   43 1    
    85   42   44 1    
    86   42  165 1    
    87   43  166 1    
    88   43  167 1    
    89   43  168 1    
    90   44   45 am   BACKBONE|DICT|INTERRES
    91   44  169 1    
    92   45   46 2    
    93   45   47 1    
    94   47   48 1    
    95   47   49 1    
    96   47  170 1    
    97   48  171 1    
    98   48  172 1    
    99   48  173 1    
   100   49   50 am   BACKBONE|DICT|INTERRES
   101   49  174 1    
   102   50   51 2    
   103   50   52 1    
   104   52   53 1    
   105   52   54 1    
   106   52  175 1    
   107   53  176 1    
   108   53  177 1    
   109   53  178 1    
   110   54   55 am   BACKBONE|DICT|INTERRES
   111   54  179 1    
   112   55   56 2    
   113   55   57 1    
   114   57   58 1    
   115   57   59 1    
   116   57  180 1    
   117   58  181 1    
   118   58  182 1    
   119   58  183 1    
   120   59   60 am   BACKBONE|DICT|INTERRES
   121   59  184 1    
   122   60   61 2    
   123   60   62 1    
   124   62   63 1    
   125   62   64 1    
   126   62  185 1    
   127   63  186 1    
   128   63  187 1    
   129   63  188 1    
   130   64   65 am   BACKBONE|DICT|INTERRES
   131   64  189 1    
   132   65   66 2    
   133   67   68 2    
   134   67   69 am   BACKBONE|DICT|INTERRES
   135   69   70 1    
   136   69  190 1    
   137   70   71 1    
   138   70   72 1    
   139   70  191 1    
   140   71  192 1    
   141   71  193 1    
   142   71  194 1    
   143   72   73 2    
   144   72   74 am   BACKBONE|DICT|INTERRES
   145   74   75 1    
   146   74  195 1    
   147   75   76 1    
   148   75   77 1    
   149   75  196 1    
   150   76  197 1    
   151   76  198 1    
   152   76  199 1    
   153   77   78 2    
   154   77   79 am   BACKBONE|DICT|INTERRES
   155   79   80 1    
   156   79  200 1    
   157   80   81 1    
   158   80   82 1    
   159   80  201 1    
   160   81  202 1    
   161   81  203 1    
   162   81  204 1    
   163   82   83 2    
   164   82   84 am   BACKBONE|DICT|INTERRES
   165   84   85 1    
   166   84  205 1    
   167   85   86 1    
   168   85   87 1    
   169   85  206 1    
   170   86  207 1    
   171   86  208 1    
   172   86  209 1    
   173   87   88 2    
   174   87   89 am   BACKBONE|DICT|INTERRES
   175   89   90 1    
   176   89  210 1    
   177   90   91 1    
   178   90   92 1    
   179   90  211 1    
   180   91  212 1    
   181   91  213 1    
   182   91  214 1    
   183   92   93 2    
   184   92   94 am   BACKBONE|DICT|INTERRES
   185   94   95 1    
   186   94  215 1    
   187   95   96 1    
   188   95   97 1    
   189   95  216 1    
   190   96  217 1    
   191   96  218 1    
   192   96  219 1    
   193   97   98 2    
   194   97   99 am   BACKBONE|DICT|INTERRES
   195   99  100 1    
   196   99  220 1    
   197  100  101 1    
   198  100  102 1    
   199  100  221 1    
   200  101  222 1    
   201  101  223 1    
   202  101  224 1    
   203  102  103 2    
   204  102  104 am   BACKBONE|DICT|INTERRES
   205  104  105 1    
   206  104  225 1    
   207  105  106 1    
   208  105  107 1    
   209  105  226 1    
   210  106  227 1    
   211  106  228 1    
   212  106  229 1    
   213  107  108 2    
   214  107  109 am   BACKBONE|DICT|INTERRES
   215  109  110 1    
   216  109  230 1    
   217  110  111 1    
   218  110  112 1    
   219  110  231 1    
   220  111  232 1    
   221  111  233 1    
   222  111  234 1    
   223  112  113 2    
   224  112  114 am   BACKBONE|DICT|INTERRES
   225  114  115 1    
   226  114  235 1    
   227  115  116 1    
   228  115  117 1    
   229  115  236 1    
   230  116  237 1    
   231  116  238 1    
   232  116  239 1    
   233  117  118 2    
   234  117  119 am   BACKBONE|DICT|INTERRES
   235  119  120 1    
   236  119  240 1    
   237  120  121 1    
   238  120  124 1    
   239  120  241 1    
   240  121  122 am   BACKBONE|DICT|INTERRES
   241  121  123 2    
   242  122  242 1    
   243  122  243 1    
   244  124  125 1    
   245  124  244 1    
   246  124  245 1    
   247  125  126 1    
   248  126  246 1    
   249  126  247 1    
@<TRIPOS>SUBSTRUCTURE
     1 UNK         1 GROUP             0       ****    0 ROOT    
