@<TRIPOS>MOLECULE
3R540
247   249    1
SMALL
USER_CHARGES


@<TRIPOS>ATOM
      1 CA          6.0630  -13.4068  -46.8255 C.3       0 UNK        -0.1800 
      2 C           4.5711  -13.3327  -46.5371 C.2       0 UNK         0.5000 
      3 O           4.1753  -13.3346  -45.3707 O.2       0 UNK        -0.5000 
      4 N           3.7443  -13.2662  -47.5902 N.am      1 UNK        -0.5000 
      5 CA          2.2815  -13.1779  -47.5131 C.3       1 UNK         0.1400 
      6 C6          1.5976  -13.2383  -48.9004 C.3       23 UNK        -0.0398 
      7 S7          1.9864  -14.7712  -49.8119 S.3       23 UNK        -0.2404 
      8 C8          0.7370  -15.9075  -49.1301 C.3       23 UNK        -0.0205 
      9 C9          0.9005  -17.3169  -49.6764 C.ar      23 UNK        -0.0193 
     10 C10        -0.0531  -17.8583  -50.5431 C.ar      23 UNK        -0.1150 
     11 C11         0.0951  -19.1574  -51.0379 C.ar      23 UNK        -0.0193 
     12 C12         1.2123  -19.9127  -50.6669 C.ar      23 UNK        -0.1150 
     13 C13         2.1779  -19.3784  -49.8079 C.ar      23 UNK        -0.0193 
     14 C14         2.0078  -18.0851  -49.3061 C.ar      23 UNK        -0.1150 
     15 C15         3.4277  -20.1731  -49.4504 C.3       23 UNK        -0.0205 
     16 S16         3.0712  -21.7473  -48.6086 S.3       23 UNK        -0.2404 
     17 C17         2.2400  -21.1857  -47.0837 C.3       23 UNK        -0.0398 
     18 CA          1.0961  -22.1343  -46.6580 C.3       11 UNK         0.1400 
     19 N           0.6915  -21.9087  -45.2705 N.am      11 UNK        -0.5000 
     20 C          -0.1101  -22.7194  -44.5672 C.2       10 UNK         0.5000 
     21 O          -0.5777  -23.7694  -45.0074 O.2       10 UNK        -0.5000 
     22 CA         -0.4898  -22.2566  -43.1492 C.3       10 UNK         0.1400 
     23 CB          0.6513  -22.5286  -42.1579 C.3       10 UNK        -0.1800 
     24 N          -0.8611  -20.8418  -43.1011 N.am      10 UNK        -0.5000 
     25 C          -1.9134  -20.3178  -43.7469 C.2       9 UNK         0.5000 
     26 O          -2.7018  -20.9793  -44.4219 O.2       9 UNK        -0.5000 
     27 CA         -2.0939  -18.7932  -43.6611 C.3       9 UNK         0.1400 
     28 CB         -2.7373  -18.3966  -42.3242 C.3       9 UNK        -0.1800 
     29 N          -0.8390  -18.0640  -43.8424 N.am      9 UNK        -0.5000 
     30 C          -0.0970  -18.0910  -44.9593 C.2       8 UNK         0.5000 
     31 O          -0.3989  -18.7194  -45.9723 O.2       8 UNK        -0.5000 
     32 CA          1.2358  -17.3275  -44.9201 C.3       8 UNK         0.1400 
     33 CB          0.9979  -15.8123  -44.9746 C.3       8 UNK        -0.1800 
     34 N           2.0217  -17.6447  -43.7316 N.am      8 UNK        -0.5000 
     35 C           2.4578  -18.8624  -43.3848 C.2       7 UNK         0.5000 
     36 O           2.2898  -19.8739  -44.0642 O.2       7 UNK        -0.5000 
     37 CA          3.1574  -18.9715  -42.0211 C.3       7 UNK         0.1400 
     38 CB          4.6325  -18.5567  -42.1278 C.3       7 UNK        -0.1800 
     39 N           2.4896  -18.1591  -41.0042 N.am      7 UNK        -0.5000 
     40 C           1.2814  -18.4310  -40.4921 C.2       6 UNK         0.5000 
     41 O           0.6099  -19.4156  -40.8038 O.2       6 UNK        -0.5000 
     42 CA          0.7175  -17.4069  -39.4901 C.3       6 UNK         0.1400 
     43 CB          1.3508  -17.5943  -38.1031 C.3       6 UNK        -0.1800 
     44 N           0.9061  -16.0224  -39.9304 N.am      6 UNK        -0.5000 
     45 C           0.2862  -15.4848  -40.9895 C.2       5 UNK         0.5000 
     46 O          -0.5068  -16.1015  -41.7001 O.2       5 UNK        -0.5000 
     47 CA          0.6248  -14.0224  -41.3372 C.3       5 UNK         0.1400 
     48 CB         -0.2096  -13.0634  -40.4752 C.3       5 UNK        -0.1800 
     49 N           2.0415  -13.6543  -41.2358 N.am      5 UNK        -0.5000 
     50 C           3.0777  -14.3120  -41.7758 C.2       4 UNK         0.5000 
     51 O           2.9849  -15.4101  -42.3229 O.2       4 UNK        -0.5000 
     52 CA          4.4242  -13.5748  -41.7504 C.3       4 UNK         0.1400 
     53 CB          5.5947  -14.4524  -42.2296 C.3       4 UNK        -0.1800 
     54 N           4.3009  -12.4247  -42.6380 N.am      4 UNK        -0.5000 
     55 C           4.3118  -11.1418  -42.2602 C.2       3 UNK         0.5000 
     56 O           4.5298  -10.7644  -41.1084 O.2       3 UNK        -0.5000 
     57 CA          3.9741  -10.1094  -43.3512 C.3       3 UNK         0.1400 
     58 CB          5.1845   -9.8605  -44.2642 C.3       3 UNK        -0.1800 
     59 N           2.8278  -10.5159  -44.1661 N.am      3 UNK        -0.5000 
     60 C           1.5664  -10.6305  -43.7304 C.2       2 UNK         0.5000 
     61 O           1.2226  -10.3556  -42.5808 O.2       2 UNK        -0.5000 
     62 CA          0.5026  -11.1585  -44.7179 C.3       2 UNK         0.1400 
     63 CB         -0.2607   -9.9998  -45.3875 C.3       2 UNK        -0.1800 
     64 N           1.0009  -12.1251  -45.7089 N.am      2 UNK        -0.5000 
     65 C           1.8420  -11.9224  -46.7330 C.2       1 UNK         0.5000 
     66 O           2.3098  -10.8237  -47.0386 O.2       1 UNK        -0.5000 
     67 C          -0.1072  -22.0816  -47.6222 C.2       11 UNK         0.5000 
     68 O          -0.2493  -22.9777  -48.4531 O.2       11 UNK        -0.5000 
     69 N          -0.9831  -21.0794  -47.4616 N.am      12 UNK        -0.5000 
     70 CA         -2.2172  -20.9317  -48.2334 C.3       12 UNK         0.1400 
     71 CB         -2.8809  -19.5900  -47.8933 C.3       12 UNK        -0.1800 
     72 C          -3.1963  -22.1031  -48.0318 C.2       12 UNK         0.5000 
     73 O          -3.7912  -22.5673  -49.0054 O.2       12 UNK        -0.5000 
     74 N          -3.3156  -22.5884  -46.7880 N.am      13 UNK        -0.5000 
     75 CA         -4.0979  -23.7725  -46.4356 C.3       13 UNK         0.1400 
     76 CB         -4.2126  -23.8874  -44.9082 C.3       13 UNK        -0.1800 
     77 C          -3.5199  -25.0629  -47.0445 C.2       13 UNK         0.5000 
     78 O          -4.2784  -25.8547  -47.6038 O.2       13 UNK        -0.5000 
     79 N          -2.1923  -25.2356  -46.9621 N.am      14 UNK        -0.5000 
     80 CA         -1.4605  -26.3692  -47.5353 C.3       14 UNK         0.1400 
     81 CB         -0.0031  -26.3388  -47.0506 C.3       14 UNK        -0.1800 
     82 C          -1.5224  -26.4118  -49.0742 C.2       14 UNK         0.5000 
     83 O          -1.6737  -27.4905  -49.6488 O.2       14 UNK        -0.5000 
     84 N          -1.4382  -25.2356  -49.7089 N.am      15 UNK        -0.5000 
     85 CA         -1.5897  -25.0399  -51.1520 C.3       15 UNK         0.1400 
     86 CB         -1.0522  -23.6478  -51.5145 C.3       15 UNK        -0.1800 
     87 C          -3.0441  -25.1811  -51.6440 C.2       15 UNK         0.5000 
     88 O          -3.2533  -25.3130  -52.8497 O.2       15 UNK        -0.5000 
     89 N          -4.0097  -25.1305  -50.7138 N.am      16 UNK        -0.5000 
     90 CA         -5.4587  -25.1350  -50.9229 C.3       16 UNK         0.1400 
     91 CB         -5.9319  -26.4745  -51.5246 C.3       16 UNK        -0.1800 
     92 C          -5.9265  -23.9086  -51.7297 C.2       16 UNK         0.5000 
     93 O          -6.7042  -24.0465  -52.6748 O.2       16 UNK        -0.5000 
     94 N          -5.4507  -22.7201  -51.3304 N.am      17 UNK        -0.5000 
     95 CA         -5.6729  -21.4181  -51.9760 C.3       17 UNK         0.1400 
     96 CB         -4.9020  -20.3511  -51.1847 C.3       17 UNK        -0.1800 
     97 C          -7.1501  -20.9974  -52.1448 C.2       17 UNK         0.5000 
     98 O          -7.4403  -20.1090  -52.9450 O.2       17 UNK        -0.5000 
     99 N          -8.0628  -21.6423  -51.4063 N.am      18 UNK        -0.5000 
    100 CA        -9.5109  -21.5041  -51.5633 C.3       18 UNK         0.1400 
    101 CB       -10.2025  -22.1482  -50.3519 C.3       18 UNK        -0.1800 
    102 C        -10.0461  -22.1167  -52.8763 C.2       18 UNK         0.5000 
    103 O        -11.0996  -21.6859  -53.3478 O.2       18 UNK        -0.5000 
    104 N         -9.3305  -23.1047  -53.4320 N.am      19 UNK        -0.5000 
    105 CA        -9.6811  -23.8094  -54.6664 C.3       19 UNK         0.1400 
    106 CB        -9.8673  -25.3022  -54.3500 C.3       19 UNK        -0.1800 
    107 C         -8.6119  -23.6237  -55.7571 C.2       19 UNK         0.5000 
    108 O         -8.9629  -23.5135  -56.9330 O.2       19 UNK        -0.5000 
    109 N         -7.3327  -23.6042  -55.3607 N.am      20 UNK        -0.5000 
    110 CA        -6.1777  -23.4192  -56.2376 C.3       20 UNK         0.1400 
    111 CB        -4.9124  -23.8433  -55.4725 C.3       20 UNK        -0.1800 
    112 C         -6.0399  -21.9711  -56.7462 C.2       20 UNK         0.5000 
    113 O         -6.6658  -21.0534  -56.2127 O.2       20 UNK        -0.5000 
    114 N         -5.1800  -21.7918  -57.7571 N.am      21 UNK        -0.5000 
    115 CA        -4.8487  -20.4947  -58.3563 C.3       21 UNK         0.1400 
    116 CB        -4.1972  -20.7401  -59.7269 C.3       21 UNK        -0.1800 
    117 C         -3.9376  -19.6122  -57.4749 C.2       21 UNK         0.5000 
    118 O         -3.7983  -18.4221  -57.7611 O.2       21 UNK        -0.5000 
    119 N         -3.3212  -20.2052  -56.4431 N.am      22 UNK        -0.5000 
    120 CA        -2.4833  -19.5307  -55.4409 C.3       22 UNK         0.1400 
    121 C         -3.2559  -18.4439  -54.6377 C.2       22 UNK         0.5000 
    122 N         -2.6488  -17.2913  -54.3893 N.am      22 UNK        -0.7600 
    123 O         -4.3856  -18.6538  -54.2070 O.2       22 UNK        -0.5000 
    124 C124       -1.8262  -20.5720  -54.4983 C.3       23 UNK        -0.0398 
    125 S125       -0.3363  -19.9283  -53.6638 S.3       23 UNK        -0.2404 
    126 C126       -0.9559  -19.7478  -51.9638 C.3       23 UNK        -0.0205 
    127 H127        6.5719  -12.5478  -46.3887 H         1 UNK         0.0600 
    128 H128        6.2692  -13.4181  -47.8960 H         1 UNK         0.0600 
    129 H129        6.4833  -14.3120  -46.3875 H         1 UNK         0.0600 
    130 H130        4.1295  -13.2599  -48.5235 H         1 UNK         0.3000 
    131 H131        1.9547  -14.0526  -46.9541 H         1 UNK         0.0600 
    132 H132        0.5134  -13.1564  -48.8025 H         1 UNK         0.0800 
    133 H133        1.9101  -12.3913  -49.5140 H         1 UNK         0.0800 
    134 H134       -0.2610  -15.5223  -49.3454 H         1 UNK         0.0800 
    135 H135        0.8312  -15.9443  -48.0464 H         1 UNK         0.0800 
    136 H136       -0.9126  -17.2693  -50.8308 H         1 UNK         0.1150 
    137 H137        1.3345  -20.9144  -51.0549 H         1 UNK         0.1150 
    138 H138        2.7483  -17.6617  -48.6421 H         1 UNK         0.1150 
    139 H139        3.9797  -20.3849  -50.3670 H         1 UNK         0.0800 
    140 H140        4.0970  -19.5841  -48.8212 H         1 UNK         0.0800 
    141 H141        1.8739  -20.1633  -47.1878 H         1 UNK         0.0800 
    142 H142        3.0027  -21.1525  -46.3050 H         1 UNK         0.0800 
    143 H143        1.4876  -23.1533  -46.6955 H         1 UNK         0.0600 
    144 H144        1.0676  -21.0776  -44.8202 H         1 UNK         0.3000 
    145 H145       -1.3579  -22.8387  -42.8331 H         1 UNK         0.0600 
    146 H146        0.3561  -22.2763  -41.1393 H         1 UNK         0.0600 
    147 H147        0.9311  -23.5828  -42.1643 H         1 UNK         0.0600 
    148 H148        1.5432  -21.9502  -42.3993 H         1 UNK         0.0600 
    149 H149       -0.2741  -20.2336  -42.5408 H         1 UNK         0.3000 
    150 H150       -2.7700  -18.4944  -44.4647 H         1 UNK         0.0600 
    151 H151       -3.6730  -18.9338  -42.1647 H         1 UNK         0.0600 
    152 H152       -2.9662  -17.3311  -42.2992 H         1 UNK         0.0600 
    153 H153       -2.0818  -18.6170  -41.4807 H         1 UNK         0.0600 
    154 H154       -0.5338  -17.4914  -43.0603 H         1 UNK         0.3000 
    155 H155        1.8187  -17.6195  -45.7961 H         1 UNK         0.0600 
    156 H156        0.4139  -15.5361  -45.8513 H         1 UNK         0.0600 
    157 H157        1.9438  -15.2715  -45.0069 H         1 UNK         0.0600 
    158 H158        0.4476  -15.4618  -44.1038 H         1 UNK         0.0600 
    159 H159        2.2593  -16.8615  -43.1253 H         1 UNK         0.3000 
    160 H160        3.1188  -20.0161  -41.7053 H         1 UNK         0.0600 
    161 H161        4.7393  -17.5202  -42.4490 H         1 UNK         0.0600 
    162 H162        5.1592  -19.1792  -42.8521 H         1 UNK         0.0600 
    163 H163        5.1439  -18.6666  -41.1715 H         1 UNK         0.0600 
    164 H164        2.9355  -17.2876  -40.7568 H         1 UNK         0.3000 
    165 H165       -0.3554  -17.5903  -39.3994 H         1 UNK         0.0600 
    166 H166        0.8936  -16.9310  -37.3687 H         1 UNK         0.0600 
    167 H167        1.2131  -18.6161  -37.7467 H         1 UNK         0.0600 
    168 H168        2.4226  -17.3928  -38.1165 H         1 UNK         0.0600 
    169 H169        1.5520  -15.4522  -39.4046 H         1 UNK         0.3000 
    170 H170        0.3366  -13.8646  -42.3775 H         1 UNK         0.0600 
    171 H171       -1.2728  -13.2971  -40.5457 H         1 UNK         0.0600 
    172 H172        0.0708  -13.1211  -39.4228 H         1 UNK         0.0600 
    173 H173       -0.0854  -12.0300  -40.7989 H         1 UNK         0.0600 
    174 H174        2.2273  -12.7492  -40.8275 H         1 UNK         0.3000 
    175 H175        4.6215  -13.2677  -40.7215 H         1 UNK         0.0600 
    176 H176        5.4451  -14.8051  -43.2512 H         1 UNK         0.0600 
    177 H177        6.5343  -13.9007  -42.2029 H         1 UNK         0.0600 
    178 H178        5.7124  -15.3283  -41.5907 H         1 UNK         0.0600 
    179 H179        4.1134  -12.6490  -43.6137 H         1 UNK         0.3000 
    180 H180        3.7203   -9.1695  -42.8567 H         1 UNK         0.0600 
    181 H181        5.4721  -10.7611  -44.8077 H         1 UNK         0.0600 
    182 H182        6.0498   -9.5357  -43.6851 H         1 UNK         0.0600 
    183 H183        4.9720   -9.0815  -44.9966 H         1 UNK         0.0600 
    184 H184        3.0072  -10.7315  -45.1401 H         1 UNK         0.3000 
    185 H185       -0.2188  -11.7125  -44.1149 H         1 UNK         0.0600 
    186 H186       -0.7407   -9.3692  -44.6382 H         1 UNK         0.0600 
    187 H187        0.3981   -9.3588  -45.9735 H         1 UNK         0.0600 
    188 H188       -1.0437  -10.3720  -46.0482 H         1 UNK         0.0600 
    189 H189        0.7109  -13.0756  -45.5318 H         1 UNK         0.3000 
    190 H190       -0.7862  -20.3495  -46.7803 H         1 UNK         0.3000 
    191 H191       -1.9432  -20.9138  -49.2889 H         1 UNK         0.0600 
    192 H192       -3.1279  -19.5218  -46.8335 H         1 UNK         0.0600 
    193 H193       -3.8038  -19.4512  -48.4557 H         1 UNK         0.0600 
    194 H194       -2.2231  -18.7556  -48.1381 H         1 UNK         0.0600 
    195 H195       -2.8377  -22.1146  -46.0270 H         1 UNK         0.3000 
    196 H196       -5.1041  -23.6385  -46.8384 H         1 UNK         0.0600 
    197 H197       -4.8025  -24.7599  -44.6249 H         1 UNK         0.0600 
    198 H198       -4.7035  -23.0112  -44.4843 H         1 UNK         0.0600 
    199 H199       -3.2353  -23.9830  -44.4348 H         1 UNK         0.0600 
    200 H200       -1.6405  -24.5544  -46.4479 H         1 UNK         0.3000 
    201 H201       -1.9221  -27.2853  -47.1611 H         1 UNK         0.0600 
    202 H202        0.0515  -26.3917  -45.9632 H         1 UNK         0.0600 
    203 H203        0.5074  -25.4288  -47.3668 H         1 UNK         0.0600 
    204 H204        0.5587  -27.1857  -47.4464 H         1 UNK         0.0600 
    205 H205       -1.2282  -24.4025  -49.1626 H         1 UNK         0.3000 
    206 H206       -0.9890  -25.7900  -51.6702 H         1 UNK         0.0600 
    207 H207       -0.0025  -23.5422  -51.2398 H         1 UNK         0.0600 
    208 H208       -1.1310  -23.4554  -52.5853 H         1 UNK         0.0600 
    209 H209       -1.6144  -22.8719  -50.9956 H         1 UNK         0.0600 
    210 H210       -3.7168  -25.0013  -49.7543 H         1 UNK         0.3000 
    211 H211       -5.9091  -25.0413  -49.9338 H         1 UNK         0.0600 
    212 H212       -5.5688  -26.6156  -52.5430 H         1 UNK         0.0600 
    213 H213       -7.0210  -26.5221  -51.5591 H         1 UNK         0.0600 
    214 H214       -5.5885  -27.3177  -50.9253 H         1 UNK         0.0600 
    215 H215       -4.8306  -22.7082  -50.5221 H         1 UNK         0.3000 
    216 H216       -5.2447  -21.4733  -52.9784 H         1 UNK         0.0600 
    217 H217       -5.0033  -19.3672  -51.6437 H         1 UNK         0.0600 
    218 H218       -3.8379  -20.5820  -51.1438 H         1 UNK         0.0600 
    219 H219       -5.2713  -20.2755  -50.1618 H         1 UNK         0.0600 
    220 H220       -7.7392  -22.3480  -50.7620 H         1 UNK         0.3000 
    221 H221       -9.7550  -20.4398  -51.5710 H         1 UNK         0.0600 
    222 H222       -9.9833  -23.2146  -50.2834 H         1 UNK         0.0600 
    223 H223       -9.8861  -21.6786  -49.4204 H         1 UNK         0.0600 
    224 H224      -11.2860  -22.0395  -50.4174 H         1 UNK         0.0600 
    225 H225       -8.4564  -23.3797  -52.9941 H         1 UNK         0.3000 
    226 H226      -10.6220  -23.4310  -55.0709 H         1 UNK         0.0600 
    227 H227      -10.6726  -25.4535  -53.6311 H         1 UNK         0.0600 
    228 H228      -10.1234  -25.8643  -55.2490 H         1 UNK         0.0600 
    229 H229       -8.9598  -25.7415  -53.9331 H         1 UNK         0.0600 
    230 H230       -7.1219  -23.7222  -54.3728 H         1 UNK         0.3000 
    231 H231       -6.2982  -24.0751  -57.1023 H         1 UNK         0.0600 
    232 H232       -5.0033  -24.8625  -55.0956 H         1 UNK         0.0600 
    233 H233       -4.7185  -23.1930  -54.6192 H         1 UNK         0.0600 
    234 H234       -4.0301  -23.8166  -56.1125 H         1 UNK         0.0600 
    235 H235       -4.7040  -22.5947  -58.1437 H         1 UNK         0.3000 
    236 H236       -5.7772  -19.9423  -58.5159 H         1 UNK         0.0600 
    237 H237       -3.9698  -19.7978  -60.2273 H         1 UNK         0.0600 
    238 H238       -3.2633  -21.2959  -59.6348 H         1 UNK         0.0600 
    239 H239       -4.8604  -21.3021  -60.3847 H         1 UNK         0.0600 
    240 H240       -3.5137  -21.1813  -56.2836 H         1 UNK         0.3000 
    241 H241       -1.6899  -19.0338  -56.0031 H         1 UNK         0.0600 
    242 H242       -1.7135  -17.1069  -54.7171 H         1 UNK         0.3800 
    243 H243       -3.1385  -16.5843  -53.8643 H         1 UNK         0.3800 
    244 H244       -2.5429  -20.9558  -53.7695 H         1 UNK         0.0800 
    245 H245       -1.5000  -21.4392  -55.0743 H         1 UNK         0.0800 
    246 H246       -1.2581  -20.7224  -51.5867 H         1 UNK         0.0800 
    247 H247       -1.8524  -19.1258  -51.9697 H         1 UNK         0.0800 
@<TRIPOS>BOND
     1    1    2 1    
     2    1  127 1    
     3    1  128 1    
     4    1  129 1    
     5    2    3 2    
     6    2    4 am   BACKBONE|DICT|INTERRES
     7    4    5 1    
     8    4  130 1    
     9    5    6 1    
    10    5   65 1    
    11    5  131 1    
    12    6    7 1    
    13    6  132 1    
    14    6  133 1    
    15    7    8 1    
    16    8    9 1    
    17    8  134 1    
    18    8  135 1    
    19    9   10 ar   
    20    9   14 ar   
    21   10   11 ar   
    22   10  136 1    
    23   11   12 ar   
    24   11  126 1    
    25   12   13 ar   
    26   12  137 1    
    27   13   14 ar   
    28   13   15 1    
    29   14  138 1    
    30   15   16 1    
    31   15  139 1    
    32   15  140 1    
    33   16   17 1    
    34   17   18 1    
    35   17  141 1    
    36   17  142 1    
    37   18   19 1    
    38   18   67 1    
    39   18  143 1    
    40   19   20 am   BACKBONE|DICT|INTERRES
    41   19  144 1    
    42   20   21 2    
    43   20   22 1    
    44   22   23 1    
    45   22   24 1    
    46   22  145 1    
    47   23  146 1    
    48   23  147 1    
    49   23  148 1    
    50   24   25 am   BACKBONE|DICT|INTERRES
    51   24  149 1    
    52   25   26 2    
    53   25   27 1    
    54   27   28 1    
    55   27   29 1    
    56   27  150 1    
    57   28  151 1    
    58   28  152 1    
    59   28  153 1    
    60   29   30 am   BACKBONE|DICT|INTERRES
    61   29  154 1    
    62   30   31 2    
    63   30   32 1    
    64   32   33 1    
    65   32   34 1    
    66   32  155 1    
    67   33  156 1    
    68   33  157 1    
    69   33  158 1    
    70   34   35 am   BACKBONE|DICT|INTERRES
    71   34  159 1    
    72   35   36 2    
    73   35   37 1    
    74   37   38 1    
    75   37   39 1    
    76   37  160 1    
    77   38  161 1    
    78   38  162 1    
    79   38  163 1    
    80   39   40 am   BACKBONE|DICT|INTERRES
    81   39  164 1    
    82   40   41 2    
    83   40   42 1    
    84   42   43 1    
    85   42   44 1    
    86   42  165 1    
    87   43  166 1    
    88   43  167 1    
    89   43  168 1    
    90   44   45 am   BACKBONE|DICT|INTERRES
    91   44  169 1    
    92   45   46 2    
    93   45   47 1    
    94   47   48 1    
    95   47   49 1    
    96   47  170 1    
    97   48  171 1    
    98   48  172 1    
    99   48  173 1    
   100   49   50 am   BACKBONE|DICT|INTERRES
   101   49  174 1    
   102   50   51 2    
   103   50   52 1    
   104   52   53 1    
   105   52   54 1    
   106   52  175 1    
   107   53  176 1    
   108   53  177 1    
   109   53  178 1    
   110   54   55 am   BACKBONE|DICT|INTERRES
   111   54  179 1    
   112   55   56 2    
   113   55   57 1    
   114   57   58 1    
   115   57   59 1    
   116   57  180 1    
   117   58  181 1    
   118   58  182 1    
   119   58  183 1    
   120   59   60 am   BACKBONE|DICT|INTERRES
   121   59  184 1    
   122   60   61 2    
   123   60   62 1    
   124   62   63 1    
   125   62   64 1    
   126   62  185 1    
   127   63  186 1    
   128   63  187 1    
   129   63  188 1    
   130   64   65 am   BACKBONE|DICT|INTERRES
   131   64  189 1    
   132   65   66 2    
   133   67   68 2    
   134   67   69 am   BACKBONE|DICT|INTERRES
   135   69   70 1    
   136   69  190 1    
   137   70   71 1    
   138   70   72 1    
   139   70  191 1    
   140   71  192 1    
   141   71  193 1    
   142   71  194 1    
   143   72   73 2    
   144   72   74 am   BACKBONE|DICT|INTERRES
   145   74   75 1    
   146   74  195 1    
   147   75   76 1    
   148   75   77 1    
   149   75  196 1    
   150   76  197 1    
   151   76  198 1    
   152   76  199 1    
   153   77   78 2    
   154   77   79 am   BACKBONE|DICT|INTERRES
   155   79   80 1    
   156   79  200 1    
   157   80   81 1    
   158   80   82 1    
   159   80  201 1    
   160   81  202 1    
   161   81  203 1    
   162   81  204 1    
   163   82   83 2    
   164   82   84 am   BACKBONE|DICT|INTERRES
   165   84   85 1    
   166   84  205 1    
   167   85   86 1    
   168   85   87 1    
   169   85  206 1    
   170   86  207 1    
   171   86  208 1    
   172   86  209 1    
   173   87   88 2    
   174   87   89 am   BACKBONE|DICT|INTERRES
   175   89   90 1    
   176   89  210 1    
   177   90   91 1    
   178   90   92 1    
   179   90  211 1    
   180   91  212 1    
   181   91  213 1    
   182   91  214 1    
   183   92   93 2    
   184   92   94 am   BACKBONE|DICT|INTERRES
   185   94   95 1    
   186   94  215 1    
   187   95   96 1    
   188   95   97 1    
   189   95  216 1    
   190   96  217 1    
   191   96  218 1    
   192   96  219 1    
   193   97   98 2    
   194   97   99 am   BACKBONE|DICT|INTERRES
   195   99  100 1    
   196   99  220 1    
   197  100  101 1    
   198  100  102 1    
   199  100  221 1    
   200  101  222 1    
   201  101  223 1    
   202  101  224 1    
   203  102  103 2    
   204  102  104 am   BACKBONE|DICT|INTERRES
   205  104  105 1    
   206  104  225 1    
   207  105  106 1    
   208  105  107 1    
   209  105  226 1    
   210  106  227 1    
   211  106  228 1    
   212  106  229 1    
   213  107  108 2    
   214  107  109 am   BACKBONE|DICT|INTERRES
   215  109  110 1    
   216  109  230 1    
   217  110  111 1    
   218  110  112 1    
   219  110  231 1    
   220  111  232 1    
   221  111  233 1    
   222  111  234 1    
   223  112  113 2    
   224  112  114 am   BACKBONE|DICT|INTERRES
   225  114  115 1    
   226  114  235 1    
   227  115  116 1    
   228  115  117 1    
   229  115  236 1    
   230  116  237 1    
   231  116  238 1    
   232  116  239 1    
   233  117  118 2    
   234  117  119 am   BACKBONE|DICT|INTERRES
   235  119  120 1    
   236  119  240 1    
   237  120  121 1    
   238  120  124 1    
   239  120  241 1    
   240  121  122 am   BACKBONE|DICT|INTERRES
   241  121  123 2    
   242  122  242 1    
   243  122  243 1    
   244  124  125 1    
   245  124  244 1    
   246  124  245 1    
   247  125  126 1    
   248  126  246 1    
   249  126  247 1    
@<TRIPOS>SUBSTRUCTURE
     1 UNK         1 GROUP             0       ****    0 ROOT    
