@<TRIPOS>MOLECULE
3R540
247   249    1
SMALL
USER_CHARGES


@<TRIPOS>ATOM
      1 CA          4.1091  -10.1824  -47.6994 C.3       0 UNK        -0.1800 
      2 C           3.1147  -11.2156  -47.1929 C.2       0 UNK         0.5000 
      3 O           3.0751  -11.4847  -45.9923 O.2       0 UNK        -0.5000 
      4 N           2.3062  -11.7831  -48.0988 N.am      1 UNK        -0.5000 
      5 CA          1.3316  -12.8514  -47.8361 C.3       1 UNK         0.1400 
      6 C6          0.6187  -13.3022  -49.1361 C.3       23 UNK        -0.0398 
      7 S7          0.1479  -15.0604  -49.0972 S.3       23 UNK        -0.2404 
      8 C8          1.6062  -15.8252  -49.8697 C.3       23 UNK        -0.0205 
      9 C9          1.4566  -17.3356  -49.9450 C.ar      23 UNK        -0.0193 
     10 C10         0.5857  -17.9016  -50.8809 C.ar      23 UNK        -0.1150 
     11 C11         0.4224  -19.2872  -50.9508 C.ar      23 UNK        -0.0193 
     12 C12         1.1610  -20.1092  -50.0966 C.ar      23 UNK        -0.1150 
     13 C13         2.0407  -19.5571  -49.1613 C.ar      23 UNK        -0.0193 
     14 C14         2.1824  -18.1678  -49.0860 C.ar      23 UNK        -0.1150 
     15 C15         2.8351  -20.4692  -48.2372 C.3       23 UNK        -0.0205 
     16 S16         2.2409  -20.4235  -46.5168 S.3       23 UNK        -0.2404 
     17 C17         0.5055  -20.9653  -46.6774 C.3       23 UNK        -0.0398 
     18 CA          0.3096  -22.4897  -46.4893 C.3       11 UNK         0.1400 
     19 N           0.8854  -23.0047  -45.2448 N.am      11 UNK        -0.5000 
     20 C           1.1306  -24.2996  -44.9975 C.2       10 UNK         0.5000 
     21 O           0.9585  -25.1966  -45.8222 O.2       10 UNK        -0.5000 
     22 CA          1.6253  -24.6603  -43.5826 C.3       10 UNK         0.1400 
     23 CB          3.1598  -24.6243  -43.5261 C.3       10 UNK        -0.1800 
     24 N           1.0882  -23.7785  -42.5449 N.am      10 UNK        -0.5000 
     25 C          -0.2047  -23.7048  -42.1964 C.2       9 UNK         0.5000 
     26 O          -1.0802  -24.4274  -42.6692 O.2       9 UNK        -0.5000 
     27 CA         -0.5910  -22.5892  -41.2035 C.3       9 UNK         0.1400 
     28 CB         -0.4900  -23.0950  -39.7572 C.3       9 UNK        -0.1800 
     29 N           0.2218  -21.3762  -41.3538 N.am      9 UNK        -0.5000 
     30 C           0.2975  -20.6492  -42.4770 C.2       8 UNK         0.5000 
     31 O          -0.3538  -20.9106  -43.4916 O.2       8 UNK        -0.5000 
     32 CA          1.3310  -19.5057  -42.4787 C.3       8 UNK         0.1400 
     33 CB          2.7597  -20.0743  -42.4322 C.3       8 UNK        -0.1800 
     34 N           1.2287  -18.6526  -43.6602 N.am      8 UNK        -0.5000 
     35 C           0.2479  -17.7824  -43.9169 C.2       7 UNK         0.5000 
     36 O          -0.6852  -17.5596  -43.1424 O.2       7 UNK        -0.5000 
     37 CA          0.3682  -17.0012  -45.2447 C.3       7 UNK         0.1400 
     38 CB         -0.9692  -16.3513  -45.6410 C.3       7 UNK        -0.1800 
     39 N           1.3947  -15.9607  -45.1506 N.am      7 UNK        -0.5000 
     40 C           2.7181  -16.1719  -45.0769 C.2       6 UNK         0.5000 
     41 O           3.2398  -17.2689  -45.2777 O.2       6 UNK        -0.5000 
     42 CA          3.6185  -14.9843  -44.6726 C.3       6 UNK         0.1400 
     43 CB          4.4995  -14.5170  -45.8415 C.3       6 UNK        -0.1800 
     44 N           2.8850  -13.8452  -44.1125 N.am      6 UNK        -0.5000 
     45 C           2.2841  -13.8521  -42.9117 C.2       5 UNK         0.5000 
     46 O           2.3123  -14.8188  -42.1476 O.2       5 UNK        -0.5000 
     47 CA          1.5246  -12.5707  -42.5064 C.3       5 UNK         0.1400 
     48 CB          1.1792  -12.5182  -41.0037 C.3       5 UNK        -0.1800 
     49 N           2.2084  -11.3445  -42.9221 N.am      5 UNK        -0.5000 
     50 C           3.4404  -10.9315  -42.5840 C.2       4 UNK         0.5000 
     51 O           4.1749  -11.5306  -41.7973 O.2       4 UNK        -0.5000 
     52 CA          3.9416   -9.6311  -43.2429 C.3       4 UNK         0.1400 
     53 CB          5.2957   -9.8476  -43.9415 C.3       4 UNK        -0.1800 
     54 N           2.9780   -9.1271  -44.2255 N.am      4 UNK        -0.5000 
     55 C           2.2795   -7.9919  -44.1061 C.2       3 UNK         0.5000 
     56 O           2.4127   -7.1977  -43.1742 O.2       3 UNK        -0.5000 
     57 CA          1.2424   -7.6943  -45.2047 C.3       3 UNK         0.1400 
     58 CB          1.8937   -6.9432  -46.3762 C.3       3 UNK        -0.1800 
     59 N           0.5459   -8.8783  -45.7187 N.am      3 UNK        -0.5000 
     60 C          -0.3252   -9.6202  -45.0166 C.2       2 UNK         0.5000 
     61 O          -0.5283   -9.4742  -43.8119 O.2       2 UNK        -0.5000 
     62 CA         -1.1023  -10.7049  -45.7841 C.3       2 UNK         0.1400 
     63 CB         -2.3659  -10.1056  -46.4206 C.3       2 UNK        -0.1800 
     64 N          -0.2809  -11.3126  -46.8303 N.am      2 UNK        -0.5000 
     65 C           0.3428  -12.4906  -46.7074 C.2       1 UNK         0.5000 
     66 O           0.2319  -13.2341  -45.7310 O.2       1 UNK        -0.5000 
     67 C          -1.1865  -22.8405  -46.5621 C.2       11 UNK         0.5000 
     68 O          -1.6467  -23.3278  -47.5919 O.2       11 UNK        -0.5000 
     69 N          -1.9055  -22.6206  -45.4510 N.am      12 UNK        -0.5000 
     70 CA         -3.3313  -22.9214  -45.3011 C.3       12 UNK         0.1400 
     71 CB         -3.8239  -22.3609  -43.9586 C.3       12 UNK        -0.1800 
     72 C          -3.6593  -24.4237  -45.4174 C.2       12 UNK         0.5000 
     73 O          -4.7343  -24.7753  -45.9030 O.2       12 UNK        -0.5000 
     74 N          -2.7273  -25.2785  -44.9770 N.am      13 UNK        -0.5000 
     75 CA         -2.8169  -26.7351  -45.0666 C.3       13 UNK         0.1400 
     76 CB         -1.8200  -27.3520  -44.0728 C.3       13 UNK        -0.1800 
     77 C          -2.5677  -27.2890  -46.4842 C.2       13 UNK         0.5000 
     78 O          -2.9534  -28.4282  -46.7529 O.2       13 UNK        -0.5000 
     79 N          -1.9138  -26.5098  -47.3567 N.am      14 UNK        -0.5000 
     80 CA         -1.5998  -26.9003  -48.7302 C.3       14 UNK         0.1400 
     81 CB         -0.4529  -26.0219  -49.2564 C.3       14 UNK        -0.1800 
     82 C          -2.8274  -26.7818  -49.6497 C.2       14 UNK         0.5000 
     83 O          -3.7081  -25.9529  -49.4101 O.2       14 UNK        -0.5000 
     84 N          -2.8300  -27.5692  -50.7345 N.am      15 UNK        -0.5000 
     85 CA         -3.8708  -27.5688  -51.7707 C.3       15 UNK         0.1400 
     86 CB         -3.5951  -28.7070  -52.7639 C.3       15 UNK        -0.1800 
     87 C          -4.0057  -26.2256  -52.5157 C.2       15 UNK         0.5000 
     88 O          -5.0845  -25.9148  -53.0201 O.2       15 UNK        -0.5000 
     89 N          -2.9290  -25.4273  -52.5237 N.am      16 UNK        -0.5000 
     90 CA         -2.8830  -24.0671  -53.0600 C.3       16 UNK         0.1400 
     91 CB         -1.4511  -23.5298  -52.9293 C.3       16 UNK        -0.1800 
     92 C          -3.8851  -23.1007  -52.3956 C.2       16 UNK         0.5000 
     93 O          -4.3483  -22.1742  -53.0603 O.2       16 UNK        -0.5000 
     94 N          -4.2182  -23.3478  -51.1187 N.am      17 UNK        -0.5000 
     95 CA         -5.1994  -22.5732  -50.3594 C.3       17 UNK         0.1400 
     96 CB         -4.9563  -22.7742  -48.8583 C.3       17 UNK        -0.1800 
     97 C          -6.6560  -22.9169  -50.7268 C.2       17 UNK         0.5000 
     98 O          -7.5415  -22.0873  -50.5137 O.2       17 UNK        -0.5000 
     99 N          -6.8868  -24.1216  -51.2676 N.am      18 UNK        -0.5000 
    100 CA        -8.1759  -24.5355  -51.8231 C.3       18 UNK         0.1400 
    101 CB        -8.3150  -26.0622  -51.7137 C.3       18 UNK        -0.1800 
    102 C         -8.3210  -24.0722  -53.2840 C.2       18 UNK         0.5000 
    103 O         -9.4222  -23.7153  -53.7057 O.2       18 UNK        -0.5000 
    104 N         -7.2043  -24.0817  -54.0230 N.am      19 UNK        -0.5000 
    105 CA        -7.0814  -23.5766  -55.3874 C.3       19 UNK         0.1400 
    106 CB        -5.7862  -24.1417  -55.9949 C.3       19 UNK        -0.1800 
    107 C         -7.0828  -22.0351  -55.4500 C.2       19 UNK         0.5000 
    108 O         -7.0212  -21.3532  -54.4247 O.2       19 UNK        -0.5000 
    109 N         -7.1068  -21.5061  -56.6791 N.am      20 UNK        -0.5000 
    110 CA        -7.0876  -20.0713  -56.9813 C.3       20 UNK         0.1400 
    111 CB        -7.4610  -19.8810  -58.4606 C.3       20 UNK        -0.1800 
    112 C         -5.7521  -19.3616  -56.6627 C.2       20 UNK         0.5000 
    113 O         -5.7012  -18.1328  -56.7329 O.2       20 UNK        -0.5000 
    114 N         -4.6990  -20.1280  -56.3394 N.am      21 UNK        -0.5000 
    115 CA        -3.3683  -19.6323  -55.9822 C.3       21 UNK         0.1400 
    116 CB        -2.4000  -20.8173  -55.8439 C.3       21 UNK        -0.1800 
    117 C         -3.3679  -18.7631  -54.7105 C.2       21 UNK         0.5000 
    118 O         -2.7713  -17.6853  -54.7174 O.2       21 UNK        -0.5000 
    119 N         -4.0565  -19.2260  -53.6617 N.am      22 UNK        -0.5000 
    120 CA        -4.2344  -18.4963  -52.3968 C.3       22 UNK         0.1400 
    121 C         -5.5147  -18.8882  -51.6054 C.2       22 UNK         0.5000 
    122 N         -6.4244  -19.6961  -52.1358 N.am      22 UNK        -0.7600 
    123 O         -5.7104  -18.4273  -50.4842 O.2       22 UNK        -0.5000 
    124 C124       -2.9474  -18.4522  -51.5208 C.3       23 UNK        -0.0398 
    125 S125       -2.2070  -20.0908  -51.1909 S.3       23 UNK        -0.2404 
    126 C126       -0.5558  -19.9059  -51.9357 C.3       23 UNK        -0.0205 
    127 H127        4.2025   -9.3622  -46.9885 H         1 UNK         0.0600 
    128 H128        3.8044   -9.7674  -48.6602 H         1 UNK         0.0600 
    129 H129        5.0912  -10.6400  -47.8165 H         1 UNK         0.0600 
    130 H130        2.3930  -11.4995  -49.0644 H         1 UNK         0.3000 
    131 H131        1.9142  -13.6969  -47.4715 H         1 UNK         0.0600 
    132 H132       -0.2697  -12.7016  -49.3389 H         1 UNK         0.0800 
    133 H133        1.2684  -13.1543  -50.0000 H         1 UNK         0.0800 
    134 H134        1.7414  -15.4247  -50.8755 H         1 UNK         0.0800 
    135 H135        2.4992  -15.5565  -49.3029 H         1 UNK         0.0800 
    136 H136        0.0226  -17.2579  -51.5413 H         1 UNK         0.1150 
    137 H137        1.0370  -21.1819  -50.1504 H         1 UNK         0.1150 
    138 H138        2.8533  -17.7390  -48.3543 H         1 UNK         0.1150 
    139 H139        2.8094  -21.5001  -48.5939 H         1 UNK         0.0800 
    140 H140        3.8835  -20.1683  -48.2534 H         1 UNK         0.0800 
    141 H141        0.1061  -20.6534  -47.6419 H         1 UNK         0.0800 
    142 H142       -0.0724  -20.4047  -45.9432 H         1 UNK         0.0800 
    143 H143        0.8070  -22.9914  -47.3225 H         1 UNK         0.0600 
    144 H144        0.9998  -22.3301  -44.5016 H         1 UNK         0.3000 
    145 H145        1.2964  -25.6788  -43.3655 H         1 UNK         0.0600 
    146 H146        3.5268  -24.9483  -42.5521 H         1 UNK         0.0600 
    147 H147        3.5932  -25.2903  -44.2735 H         1 UNK         0.0600 
    148 H148        3.5466  -23.6221  -43.7157 H         1 UNK         0.0600 
    149 H149        1.7405  -23.1504  -42.1002 H         1 UNK         0.3000 
    150 H150       -1.6303  -22.3188  -41.3995 H         1 UNK         0.0600 
    151 H151        0.5353  -23.3547  -39.4911 H         1 UNK         0.0600 
    152 H152       -1.1027  -23.9860  -39.6122 H         1 UNK         0.0600 
    153 H153       -0.8411  -22.3428  -39.0506 H         1 UNK         0.0600 
    154 H154        0.7840  -21.1109  -40.5578 H         1 UNK         0.3000 
    155 H155        1.1629  -18.8903  -41.5927 H         1 UNK         0.0600 
    156 H156        2.9643  -20.7175  -43.2894 H         1 UNK         0.0600 
    157 H157        2.9282  -20.6632  -41.5301 H         1 UNK         0.0600 
    158 H158        3.5004  -19.2741  -42.4339 H         1 UNK         0.0600 
    159 H159        1.9761  -18.7288  -44.3409 H         1 UNK         0.3000 
    160 H160        0.6497  -17.7033  -46.0326 H         1 UNK         0.0600 
    161 H161       -1.2907  -15.6088  -44.9093 H         1 UNK         0.0600 
    162 H162       -1.7582  -17.0998  -45.7224 H         1 UNK         0.0600 
    163 H163       -0.8988  -15.8517  -46.6039 H         1 UNK         0.0600 
    164 H164        1.0543  -15.0149  -45.0176 H         1 UNK         0.3000 
    165 H165        4.2879  -15.3542  -43.8931 H         1 UNK         0.0600 
    166 H166        5.1530  -13.6980  -45.5400 H         1 UNK         0.0600 
    167 H167        5.1375  -15.3283  -46.1940 H         1 UNK         0.0600 
    168 H168        3.9111  -14.1785  -46.6906 H         1 UNK         0.0600 
    169 H169        2.8306  -13.0093  -44.6869 H         1 UNK         0.3000 
    170 H170        0.5828  -12.5930  -43.0562 H         1 UNK         0.0600 
    171 H171        0.5530  -13.3637  -40.7167 H         1 UNK         0.0600 
    172 H172        2.0735  -12.5471  -40.3806 H         1 UNK         0.0600 
    173 H173        0.6280  -11.6103  -40.7584 H         1 UNK         0.0600 
    174 H174        1.6917  -10.7583  -43.5608 H         1 UNK         0.3000 
    175 H175        4.0882   -8.9073  -42.4390 H         1 UNK         0.0600 
    176 H176        5.6398   -8.9337  -44.4257 H         1 UNK         0.0600 
    177 H177        6.0629  -10.1427  -43.2248 H         1 UNK         0.0600 
    178 H178        5.2409  -10.6288  -44.6999 H         1 UNK         0.0600 
    179 H179        2.8098   -9.7395  -45.0162 H         1 UNK         0.3000 
    180 H180        0.4896   -7.0361  -44.7653 H         1 UNK         0.0600 
    181 H181        2.6242   -7.5608  -46.8982 H         1 UNK         0.0600 
    182 H182        2.4106   -6.0480  -46.0277 H         1 UNK         0.0600 
    183 H183        1.1466   -6.6218  -47.1022 H         1 UNK         0.0600 
    184 H184        0.6598   -9.0671  -46.7018 H         1 UNK         0.3000 
    185 H185       -1.4191  -11.4601  -45.0613 H         1 UNK         0.0600 
    186 H186       -3.0069   -9.6518  -45.6635 H         1 UNK         0.0600 
    187 H187       -2.1253   -9.3341  -47.1530 H         1 UNK         0.0600 
    188 H188       -2.9532  -10.8738  -46.9241 H         1 UNK         0.0600 
    189 H189       -0.1292  -10.7712  -47.6683 H         1 UNK         0.3000 
    190 H190       -1.4430  -22.1928  -44.6553 H         1 UNK         0.3000 
    191 H191       -3.8640  -22.4036  -46.1005 H         1 UNK         0.0600 
    192 H192       -3.6295  -21.2910  -43.8807 H         1 UNK         0.0600 
    193 H193       -4.8991  -22.5064  -43.8471 H         1 UNK         0.0600 
    194 H194       -3.3381  -22.8527  -43.1158 H         1 UNK         0.0600 
    195 H195       -1.9148  -24.9026  -44.5010 H         1 UNK         0.3000 
    196 H196       -3.8232  -27.0377  -44.7696 H         1 UNK         0.0600 
    197 H197       -1.8662  -28.4415  -44.0940 H         1 UNK         0.0600 
    198 H198       -2.0368  -27.0389  -43.0513 H         1 UNK         0.0600 
    199 H199       -0.7942  -27.0610  -44.3022 H         1 UNK         0.0600 
    200 H200       -1.6903  -25.5581  -47.0959 H         1 UNK         0.3000 
    201 H201       -1.2617  -27.9388  -48.7260 H         1 UNK         0.0600 
    202 H202       -0.0989  -26.3800  -50.2236 H         1 UNK         0.0600 
    203 H203       -0.7634  -24.9854  -49.3892 H         1 UNK         0.0600 
    204 H204        0.3988  -26.0318  -48.5757 H         1 UNK         0.0600 
    205 H205       -2.0667  -28.2168  -50.8701 H         1 UNK         0.3000 
    206 H206       -4.8275  -27.7643  -51.2818 H         1 UNK         0.0600 
    207 H207       -3.5861  -29.6751  -52.2629 H         1 UNK         0.0600 
    208 H208       -4.3669  -28.7488  -53.5339 H         1 UNK         0.0600 
    209 H209       -2.6360  -28.5787  -53.2673 H         1 UNK         0.0600 
    210 H210       -2.0873  -25.7664  -52.0833 H         1 UNK         0.3000 
    211 H211       -3.1272  -24.1249  -54.1212 H         1 UNK         0.0600 
    212 H212       -1.1513  -23.4313  -51.8849 H         1 UNK         0.0600 
    213 H213       -1.3663  -22.5465  -53.3910 H         1 UNK         0.0600 
    214 H214       -0.7341  -24.1823  -53.4276 H         1 UNK         0.0600 
    215 H215       -3.8101  -24.1435  -50.6422 H         1 UNK         0.3000 
    216 H216       -5.0402  -21.5174  -50.5765 H         1 UNK         0.0600 
    217 H217       -5.6508  -22.1780  -48.2654 H         1 UNK         0.0600 
    218 H218       -3.9485  -22.4647  -48.5850 H         1 UNK         0.0600 
    219 H219       -5.0825  -23.8160  -48.5629 H         1 UNK         0.0600 
    220 H220       -6.1016  -24.7353  -51.4380 H         1 UNK         0.3000 
    221 H221       -8.9843  -24.0840  -51.2440 H         1 UNK         0.0600 
    222 H222       -7.5552  -26.5843  -52.2955 H         1 UNK         0.0600 
    223 H223       -8.2298  -26.3922  -50.6783 H         1 UNK         0.0600 
    224 H224       -9.2886  -26.3896  -52.0804 H         1 UNK         0.0600 
    225 H225       -6.3541  -24.4321  -53.5982 H         1 UNK         0.3000 
    226 H226       -7.9308  -23.9433  -55.9672 H         1 UNK         0.0600 
    227 H227       -5.7188  -23.9248  -57.0614 H         1 UNK         0.0600 
    228 H228       -4.9043  -23.7149  -55.5187 H         1 UNK         0.0600 
    229 H229       -5.7352  -25.2253  -55.8842 H         1 UNK         0.0600 
    230 H230       -7.1432  -22.1256  -57.4758 H         1 UNK         0.3000 
    231 H231       -7.8559  -19.5898  -56.3727 H         1 UNK         0.0600 
    232 H232       -6.7322  -20.3508  -59.1223 H         1 UNK         0.0600 
    233 H233       -7.5071  -18.8230  -58.7220 H         1 UNK         0.0600 
    234 H234       -8.4397  -20.3086  -58.6794 H         1 UNK         0.0600 
    235 H235       -4.8380  -21.1256  -56.2945 H         1 UNK         0.3000 
    236 H236       -3.0177  -19.0066  -56.8056 H         1 UNK         0.0600 
    237 H237       -2.2903  -21.3485  -56.7894 H         1 UNK         0.0600 
    238 H238       -1.4073  -20.4803  -55.5426 H         1 UNK         0.0600 
    239 H239       -2.7448  -21.5322  -55.0981 H         1 UNK         0.0600 
    240 H240       -4.4437  -20.1634  -53.6874 H         1 UNK         0.3000 
    241 H241       -4.4448  -17.4621  -52.6757 H         1 UNK         0.0600 
    242 H242       -6.3330  -20.1292  -53.0485 H         1 UNK         0.3800 
    243 H243       -7.2202  -19.9520  -51.5717 H         1 UNK         0.3800 
    244 H244       -3.1373  -17.9625  -50.5646 H         1 UNK         0.0800 
    245 H245       -2.2118  -17.8187  -52.0147 H         1 UNK         0.0800 
    246 H246       -0.1916  -20.8889  -52.2336 H         1 UNK         0.0800 
    247 H247       -0.6131  -19.3166  -52.8522 H         1 UNK         0.0800 
@<TRIPOS>BOND
     1    1    2 1    
     2    1  127 1    
     3    1  128 1    
     4    1  129 1    
     5    2    3 2    
     6    2    4 am   BACKBONE|DICT|INTERRES
     7    4    5 1    
     8    4  130 1    
     9    5    6 1    
    10    5   65 1    
    11    5  131 1    
    12    6    7 1    
    13    6  132 1    
    14    6  133 1    
    15    7    8 1    
    16    8    9 1    
    17    8  134 1    
    18    8  135 1    
    19    9   10 ar   
    20    9   14 ar   
    21   10   11 ar   
    22   10  136 1    
    23   11   12 ar   
    24   11  126 1    
    25   12   13 ar   
    26   12  137 1    
    27   13   14 ar   
    28   13   15 1    
    29   14  138 1    
    30   15   16 1    
    31   15  139 1    
    32   15  140 1    
    33   16   17 1    
    34   17   18 1    
    35   17  141 1    
    36   17  142 1    
    37   18   19 1    
    38   18   67 1    
    39   18  143 1    
    40   19   20 am   BACKBONE|DICT|INTERRES
    41   19  144 1    
    42   20   21 2    
    43   20   22 1    
    44   22   23 1    
    45   22   24 1    
    46   22  145 1    
    47   23  146 1    
    48   23  147 1    
    49   23  148 1    
    50   24   25 am   BACKBONE|DICT|INTERRES
    51   24  149 1    
    52   25   26 2    
    53   25   27 1    
    54   27   28 1    
    55   27   29 1    
    56   27  150 1    
    57   28  151 1    
    58   28  152 1    
    59   28  153 1    
    60   29   30 am   BACKBONE|DICT|INTERRES
    61   29  154 1    
    62   30   31 2    
    63   30   32 1    
    64   32   33 1    
    65   32   34 1    
    66   32  155 1    
    67   33  156 1    
    68   33  157 1    
    69   33  158 1    
    70   34   35 am   BACKBONE|DICT|INTERRES
    71   34  159 1    
    72   35   36 2    
    73   35   37 1    
    74   37   38 1    
    75   37   39 1    
    76   37  160 1    
    77   38  161 1    
    78   38  162 1    
    79   38  163 1    
    80   39   40 am   BACKBONE|DICT|INTERRES
    81   39  164 1    
    82   40   41 2    
    83   40   42 1    
    84   42   43 1    
    85   42   44 1    
    86   42  165 1    
    87   43  166 1    
    88   43  167 1    
    89   43  168 1    
    90   44   45 am   BACKBONE|DICT|INTERRES
    91   44  169 1    
    92   45   46 2    
    93   45   47 1    
    94   47   48 1    
    95   47   49 1    
    96   47  170 1    
    97   48  171 1    
    98   48  172 1    
    99   48  173 1    
   100   49   50 am   BACKBONE|DICT|INTERRES
   101   49  174 1    
   102   50   51 2    
   103   50   52 1    
   104   52   53 1    
   105   52   54 1    
   106   52  175 1    
   107   53  176 1    
   108   53  177 1    
   109   53  178 1    
   110   54   55 am   BACKBONE|DICT|INTERRES
   111   54  179 1    
   112   55   56 2    
   113   55   57 1    
   114   57   58 1    
   115   57   59 1    
   116   57  180 1    
   117   58  181 1    
   118   58  182 1    
   119   58  183 1    
   120   59   60 am   BACKBONE|DICT|INTERRES
   121   59  184 1    
   122   60   61 2    
   123   60   62 1    
   124   62   63 1    
   125   62   64 1    
   126   62  185 1    
   127   63  186 1    
   128   63  187 1    
   129   63  188 1    
   130   64   65 am   BACKBONE|DICT|INTERRES
   131   64  189 1    
   132   65   66 2    
   133   67   68 2    
   134   67   69 am   BACKBONE|DICT|INTERRES
   135   69   70 1    
   136   69  190 1    
   137   70   71 1    
   138   70   72 1    
   139   70  191 1    
   140   71  192 1    
   141   71  193 1    
   142   71  194 1    
   143   72   73 2    
   144   72   74 am   BACKBONE|DICT|INTERRES
   145   74   75 1    
   146   74  195 1    
   147   75   76 1    
   148   75   77 1    
   149   75  196 1    
   150   76  197 1    
   151   76  198 1    
   152   76  199 1    
   153   77   78 2    
   154   77   79 am   BACKBONE|DICT|INTERRES
   155   79   80 1    
   156   79  200 1    
   157   80   81 1    
   158   80   82 1    
   159   80  201 1    
   160   81  202 1    
   161   81  203 1    
   162   81  204 1    
   163   82   83 2    
   164   82   84 am   BACKBONE|DICT|INTERRES
   165   84   85 1    
   166   84  205 1    
   167   85   86 1    
   168   85   87 1    
   169   85  206 1    
   170   86  207 1    
   171   86  208 1    
   172   86  209 1    
   173   87   88 2    
   174   87   89 am   BACKBONE|DICT|INTERRES
   175   89   90 1    
   176   89  210 1    
   177   90   91 1    
   178   90   92 1    
   179   90  211 1    
   180   91  212 1    
   181   91  213 1    
   182   91  214 1    
   183   92   93 2    
   184   92   94 am   BACKBONE|DICT|INTERRES
   185   94   95 1    
   186   94  215 1    
   187   95   96 1    
   188   95   97 1    
   189   95  216 1    
   190   96  217 1    
   191   96  218 1    
   192   96  219 1    
   193   97   98 2    
   194   97   99 am   BACKBONE|DICT|INTERRES
   195   99  100 1    
   196   99  220 1    
   197  100  101 1    
   198  100  102 1    
   199  100  221 1    
   200  101  222 1    
   201  101  223 1    
   202  101  224 1    
   203  102  103 2    
   204  102  104 am   BACKBONE|DICT|INTERRES
   205  104  105 1    
   206  104  225 1    
   207  105  106 1    
   208  105  107 1    
   209  105  226 1    
   210  106  227 1    
   211  106  228 1    
   212  106  229 1    
   213  107  108 2    
   214  107  109 am   BACKBONE|DICT|INTERRES
   215  109  110 1    
   216  109  230 1    
   217  110  111 1    
   218  110  112 1    
   219  110  231 1    
   220  111  232 1    
   221  111  233 1    
   222  111  234 1    
   223  112  113 2    
   224  112  114 am   BACKBONE|DICT|INTERRES
   225  114  115 1    
   226  114  235 1    
   227  115  116 1    
   228  115  117 1    
   229  115  236 1    
   230  116  237 1    
   231  116  238 1    
   232  116  239 1    
   233  117  118 2    
   234  117  119 am   BACKBONE|DICT|INTERRES
   235  119  120 1    
   236  119  240 1    
   237  120  121 1    
   238  120  124 1    
   239  120  241 1    
   240  121  122 am   BACKBONE|DICT|INTERRES
   241  121  123 2    
   242  122  242 1    
   243  122  243 1    
   244  124  125 1    
   245  124  244 1    
   246  124  245 1    
   247  125  126 1    
   248  126  246 1    
   249  126  247 1    
@<TRIPOS>SUBSTRUCTURE
     1 UNK         1 GROUP             0       ****    0 ROOT    
