@<TRIPOS>MOLECULE
3R540
247   249    1
SMALL
USER_CHARGES


@<TRIPOS>ATOM
      1 CA         -4.9514  -10.6792  -45.3697 C.3       0 UNK        -0.1800 
      2 C          -3.6679  -11.4941  -45.3128 C.2       0 UNK         0.5000 
      3 O          -2.6994  -11.0687  -44.6841 O.2       0 UNK        -0.5000 
      4 N          -3.6600  -12.6735  -45.9489 N.am      1 UNK        -0.5000 
      5 CA         -2.5050  -13.5798  -46.0575 C.3       1 UNK         0.1400 
      6 C6         -2.7772  -14.7564  -47.0250 C.3       23 UNK        -0.0398 
      7 S7         -3.1501  -14.1600  -48.7076 S.3       23 UNK        -0.2404 
      8 C8         -3.6967  -15.6873  -49.5309 C.3       23 UNK        -0.0205 
      9 C9         -2.5311  -16.5625  -49.9684 C.ar      23 UNK        -0.0193 
     10 C10        -1.6831  -16.1365  -50.9946 C.ar      23 UNK        -0.1150 
     11 C11        -0.6449  -16.9564  -51.4422 C.ar      23 UNK        -0.0193 
     12 C12        -0.4668  -18.2173  -50.8673 C.ar      23 UNK        -0.1150 
     13 C13        -1.3141  -18.6644  -49.8495 C.ar      23 UNK        -0.0193 
     14 C14        -2.3305  -17.8184  -49.3888 C.ar      23 UNK        -0.1150 
     15 C15        -1.1041  -20.0572  -49.2635 C.3       23 UNK        -0.0205 
     16 S16        -2.6487  -21.0096  -49.0742 S.3       23 UNK        -0.2404 
     17 C17        -2.9664  -20.7715  -47.2960 C.3       23 UNK        -0.0398 
     18 CA         -2.3431  -21.9138  -46.4504 C.3       11 UNK         0.1400 
     19 N          -1.5514  -21.4066  -45.3177 N.am      11 UNK        -0.5000 
     20 C          -0.8356  -22.1562  -44.4638 C.2       10 UNK         0.5000 
     21 O          -0.8511  -23.3880  -44.4833 O.2       10 UNK        -0.5000 
     22 CA          0.0375  -21.4424  -43.4087 C.3       10 UNK         0.1400 
     23 CB          1.4378  -22.0753  -43.3356 C.3       10 UNK        -0.1800 
     24 N           0.1855  -19.9983  -43.6098 N.am      10 UNK        -0.5000 
     25 C          -0.7218  -19.0683  -43.2851 C.2       9 UNK         0.5000 
     26 O          -1.8293  -19.3337  -42.8183 O.2       9 UNK        -0.5000 
     27 CA         -0.3409  -17.5997  -43.5506 C.3       9 UNK         0.1400 
     28 CB          0.4006  -17.0001  -42.3469 C.3       9 UNK        -0.1800 
     29 N           0.4727  -17.4234  -44.7524 N.am      9 UNK        -0.5000 
     30 C           0.0234  -17.5944  -46.0021 C.2       8 UNK         0.5000 
     31 O          -1.1323  -17.9193  -46.2658 O.2       8 UNK        -0.5000 
     32 CA          1.0389  -17.3983  -47.1413 C.3       8 UNK         0.1400 
     33 CB          1.1478  -15.9202  -47.5467 C.3       8 UNK        -0.1800 
     34 N           2.3582  -17.9009  -46.7636 N.am      8 UNK        -0.5000 
     35 C           2.7164  -19.1913  -46.8186 C.2       7 UNK         0.5000 
     36 O           1.9919  -20.0841  -47.2584 O.2       7 UNK        -0.5000 
     37 CA          4.1155  -19.5521  -46.2810 C.3       7 UNK         0.1400 
     38 CB          5.1521  -19.5139  -47.4140 C.3       7 UNK        -0.1800 
     39 N           4.5641  -18.6801  -45.1935 N.am      7 UNK        -0.5000 
     40 C           4.0054  -18.6374  -43.9762 C.2       6 UNK         0.5000 
     41 O           3.0575  -19.3423  -43.6352 O.2       6 UNK        -0.5000 
     42 CA          4.5596  -17.5868  -42.9952 C.3       6 UNK         0.1400 
     43 CB          5.7802  -18.1405  -42.2454 C.3       6 UNK        -0.1800 
     44 N           4.9127  -16.3096  -43.6255 N.am      6 UNK        -0.5000 
     45 C           4.0708  -15.5479  -44.3367 C.2       5 UNK         0.5000 
     46 O           2.9164  -15.8818  -44.6105 O.2       5 UNK        -0.5000 
     47 CA          4.6336  -14.2221  -44.8810 C.3       5 UNK         0.1400 
     48 CB          5.3527  -14.4660  -46.2170 C.3       5 UNK        -0.1800 
     49 N           3.5873  -13.2200  -45.0906 N.am      5 UNK        -0.5000 
     50 C           2.8370  -12.6725  -44.1248 C.2       4 UNK         0.5000 
     51 O           3.0142  -12.8960  -42.9242 O.2       4 UNK        -0.5000 
     52 CA          1.7305  -11.6940  -44.5761 C.3       4 UNK         0.1400 
     53 CB          1.1921  -11.9849  -45.9918 C.3       4 UNK        -0.1800 
     54 N           0.6113  -11.7114  -43.6360 N.am      4 UNK        -0.5000 
     55 C           0.4804  -10.9017  -42.5757 C.2       3 UNK         0.5000 
     56 O           1.2837  -10.0075  -42.3029 O.2       3 UNK        -0.5000 
     57 CA         -0.7516  -11.0997  -41.6680 C.3       3 UNK         0.1400 
     58 CB         -1.5891   -9.8116  -41.5903 C.3       3 UNK        -0.1800 
     59 N          -1.6159  -12.1861  -42.1310 N.am      3 UNK        -0.5000 
     60 C          -1.6385  -13.4250  -41.6201 C.2       2 UNK         0.5000 
     61 O          -0.9540  -13.7809  -40.6608 O.2       2 UNK        -0.5000 
     62 CA         -2.5789  -14.4491  -42.2914 C.3       2 UNK         0.1400 
     63 CB         -3.8922  -14.5669  -41.5037 C.3       2 UNK        -0.1800 
     64 N          -2.8930  -14.1450  -43.6898 N.am      2 UNK        -0.5000 
     65 C          -2.0016  -14.0914  -44.6904 C.2       1 UNK         0.5000 
     66 O          -0.8106  -14.3603  -44.5485 O.2       1 UNK        -0.5000 
     67 C          -3.4123  -22.9639  -46.0801 C.2       11 UNK         0.5000 
     68 O          -3.7625  -23.7875  -46.9251 O.2       11 UNK        -0.5000 
     69 N          -3.8801  -22.9577  -44.8239 N.am      12 UNK        -0.5000 
     70 CA         -4.7912  -23.9555  -44.2585 C.3       12 UNK         0.1400 
     71 CB         -5.1275  -23.5656  -42.8120 C.3       12 UNK        -0.1800 
     72 C          -4.2464  -25.3983  -44.3164 C.2       12 UNK         0.5000 
     73 O          -5.0344  -26.3303  -44.4773 O.2       12 UNK        -0.5000 
     74 N          -2.9153  -25.5605  -44.2511 N.am      13 UNK        -0.5000 
     75 CA         -2.2287  -26.8469  -44.4087 C.3       13 UNK         0.1400 
     76 CB         -0.7740  -26.7049  -43.9359 C.3       13 UNK        -0.1800 
     77 C          -2.2760  -27.3853  -45.8540 C.2       13 UNK         0.5000 
     78 O          -2.1505  -28.5936  -46.0542 O.2       13 UNK        -0.5000 
     79 N          -2.4793  -26.4866  -46.8260 N.am      14 UNK        -0.5000 
     80 CA         -2.6713  -26.7852  -48.2448 C.3       14 UNK         0.1400 
     81 CB         -1.8399  -25.7843  -49.0684 C.3       14 UNK        -0.1800 
     82 C          -4.1608  -26.7195  -48.6414 C.2       14 UNK         0.5000 
     83 O          -4.4627  -26.7063  -49.8347 O.2       14 UNK        -0.5000 
     84 N          -5.0662  -26.6238  -47.6525 N.am      15 UNK        -0.5000 
     85 CA         -6.5199  -26.4582  -47.7895 C.3       15 UNK         0.1400 
     86 CB         -7.1573  -27.7489  -48.3442 C.3       15 UNK        -0.1800 
     87 C          -6.9206  -25.2006  -48.5954 C.2       15 UNK         0.5000 
     88 O          -7.9530  -25.2009  -49.2672 O.2       15 UNK        -0.5000 
     89 N          -6.0708  -24.1642  -48.5318 N.am      16 UNK        -0.5000 
     90 CA         -6.1195  -22.8988  -49.2691 C.3       16 UNK         0.1400 
     91 CB         -7.3831  -22.0917  -48.9092 C.3       16 UNK        -0.1800 
     92 C          -5.9192  -23.0339  -50.7952 C.2       16 UNK         0.5000 
     93 O          -6.1013  -22.0480  -51.5095 O.2       16 UNK        -0.5000 
     94 N          -5.5241  -24.2194  -51.2864 N.am      17 UNK        -0.5000 
     95 CA         -5.3186  -24.4851  -52.7133 C.3       17 UNK         0.1400 
     96 CB         -5.2538  -26.0004  -52.9524 C.3       17 UNK        -0.1800 
     97 C          -4.0608  -23.7972  -53.2716 C.2       17 UNK         0.5000 
     98 O          -4.0484  -23.4030  -54.4379 O.2       17 UNK        -0.5000 
     99 N          -3.0361  -23.6305  -52.4229 N.am      18 UNK        -0.5000 
    100 CA        -1.7703  -22.9767  -52.7630 C.3       18 UNK         0.1400 
    101 CB        -0.7517  -23.2190  -51.6397 C.3       18 UNK        -0.1800 
    102 C         -1.9099  -21.4750  -53.0841 C.2       18 UNK         0.5000 
    103 O         -1.0601  -20.9365  -53.7933 O.2       18 UNK        -0.5000 
    104 N         -2.9982  -20.8415  -52.6220 N.am      19 UNK        -0.5000 
    105 CA        -3.3525  -19.4493  -52.9116 C.3       19 UNK         0.1400 
    106 CB        -4.5155  -19.0256  -52.0015 C.3       19 UNK        -0.1800 
    107 C         -3.7115  -19.1965  -54.3895 C.2       19 UNK         0.5000 
    108 O         -3.6686  -18.0491  -54.8330 O.2       19 UNK        -0.5000 
    109 N         -4.0543  -20.2590  -55.1318 N.am      20 UNK        -0.5000 
    110 CA        -4.2868  -20.2079  -56.5748 C.3       20 UNK         0.1400 
    111 CB        -5.2221  -21.3616  -56.9692 C.3       20 UNK        -0.1800 
    112 C         -2.9776  -20.2732  -57.3874 C.2       20 UNK         0.5000 
    113 O         -2.9981  -19.9467  -58.5751 O.2       20 UNK        -0.5000 
    114 N         -1.8783  -20.7083  -56.7559 N.am      21 UNK        -0.5000 
    115 CA        -0.5734  -20.8960  -57.3839 C.3       21 UNK         0.1400 
    116 CB        -0.0216  -22.2795  -56.9978 C.3       21 UNK        -0.1800 
    117 C          0.3984  -19.7774  -56.9801 C.2       21 UNK         0.5000 
    118 O          0.9129  -19.0802  -57.8562 O.2       21 UNK        -0.5000 
    119 N          0.6274  -19.6294  -55.6679 N.am      22 UNK        -0.5000 
    120 CA         1.6088  -18.7201  -55.0493 C.3       22 UNK         0.1400 
    121 C          3.0804  -18.9758  -55.5134 C.2       22 UNK         0.5000 
    122 N          3.9895  -18.0191  -55.3707 N.am      22 UNK        -0.7600 
    123 O          3.4330  -20.0691  -55.9519 O.2       22 UNK        -0.5000 
    124 C124        1.1610  -17.2306  -55.1162 C.3       23 UNK        -0.0398 
    125 S125       -0.3842  -16.9578  -54.1871 S.3       23 UNK        -0.2404 
    126 C126        0.2772  -16.4933  -52.5564 C.3       23 UNK        -0.0205 
    127 H127       -5.3328  -10.5105  -44.3627 H         1 UNK         0.0600 
    128 H128       -5.7263  -11.1827  -45.9482 H         1 UNK         0.0600 
    129 H129       -4.7587   -9.7099  -45.8294 H         1 UNK         0.0600 
    130 H130       -4.4831  -12.9614  -46.4591 H         1 UNK         0.3000 
    131 H131       -1.6866  -12.9920  -46.4782 H         1 UNK         0.0600 
    132 H132       -1.9141  -15.4191  -47.0853 H         1 UNK         0.0800 
    133 H133       -3.6082  -15.3656  -46.6656 H         1 UNK         0.0800 
    134 H134       -4.2776  -15.4170  -50.4138 H         1 UNK         0.0800 
    135 H135       -4.3777  -16.2354  -48.8781 H         1 UNK         0.0800 
    136 H136       -1.8382  -15.1688  -51.4507 H         1 UNK         0.1150 
    137 H137        0.3254  -18.8583  -51.2281 H         1 UNK         0.1150 
    138 H138       -2.9871  -18.1481  -48.5977 H         1 UNK         0.1150 
    139 H139       -0.5907  -19.9749  -48.3052 H         1 UNK         0.0800 
    140 H140       -0.4398  -20.6341  -49.9078 H         1 UNK         0.0800 
    141 H141       -4.0444  -20.6817  -47.1468 H         1 UNK         0.0800 
    142 H142       -2.5703  -19.8035  -47.0002 H         1 UNK         0.0800 
    143 H143       -1.6162  -22.4501  -47.0647 H         1 UNK         0.0600 
    144 H144       -1.4888  -20.4023  -45.2265 H         1 UNK         0.3000 
    145 H145       -0.4484  -21.6049  -42.4446 H         1 UNK         0.0600 
    146 H146        2.0291  -21.6297  -42.5356 H         1 UNK         0.0600 
    147 H147        1.3836  -23.1456  -43.1321 H         1 UNK         0.0600 
    148 H148        1.9845  -21.9440  -44.2703 H         1 UNK         0.0600 
    149 H149        1.0951  -19.6867  -43.9362 H         1 UNK         0.3000 
    150 H150       -1.2687  -17.0444  -43.6955 H         1 UNK         0.0600 
    151 H151        1.3390  -17.5204  -42.1546 H         1 UNK         0.0600 
    152 H152       -0.2041  -17.0656  -41.4416 H         1 UNK         0.0600 
    153 H153        0.6290  -15.9462  -42.5110 H         1 UNK         0.0600 
    154 H154        1.4156  -17.0684  -44.6220 H         1 UNK         0.3000 
    155 H155        0.6890  -17.9531  -48.0120 H         1 UNK         0.0600 
    156 H156        1.3868  -15.2828  -46.6957 H         1 UNK         0.0600 
    157 H157        0.2099  -15.5648  -47.9729 H         1 UNK         0.0600 
    158 H158        1.9180  -15.7739  -48.3039 H         1 UNK         0.0600 
    159 H159        2.9769  -17.2398  -46.3134 H         1 UNK         0.3000 
    160 H160        4.0663  -20.5732  -45.8966 H         1 UNK         0.0600 
    161 H161        5.2634  -18.5094  -47.8242 H         1 UNK         0.0600 
    162 H162        4.8596  -20.1725  -48.2330 H         1 UNK         0.0600 
    163 H163        6.1303  -19.8457  -47.0655 H         1 UNK         0.0600 
    164 H164        5.3334  -18.0580  -45.3926 H         1 UNK         0.3000 
    165 H165        3.7774  -17.3813  -42.2622 H         1 UNK         0.0600 
    166 H166        6.1174  -17.4480  -41.4740 H         1 UNK         0.0600 
    167 H167        6.6172  -18.3272  -42.9194 H         1 UNK         0.0600 
    168 H168        5.5402  -19.0829  -41.7510 H         1 UNK         0.0600 
    169 H169        5.8518  -15.9762  -43.4620 H         1 UNK         0.3000 
    170 H170        5.3485  -13.8224  -44.1591 H         1 UNK         0.0600 
    171 H171        6.1662  -15.1834  -46.1014 H         1 UNK         0.0600 
    172 H172        4.6728  -14.8602  -46.9738 H         1 UNK         0.0600 
    173 H173        5.7886  -13.5450  -46.6046 H         1 UNK         0.0600 
    174 H174        3.3646  -13.0034  -46.0502 H         1 UNK         0.3000 
    175 H175        2.1749  -10.6970  -44.5936 H         1 UNK         0.0600 
    176 H176        0.8639  -13.0186  -46.0959 H         1 UNK         0.0600 
    177 H177        0.3432  -11.3424  -46.2275 H         1 UNK         0.0600 
    178 H178        1.9498  -11.7982  -46.7532 H         1 UNK         0.0600 
    179 H179       -0.0487  -12.4700  -43.7511 H         1 UNK         0.3000 
    180 H180       -0.3782  -11.3166  -40.6653 H         1 UNK         0.0600 
    181 H181       -1.9527   -9.5074  -42.5723 H         1 UNK         0.0600 
    182 H182       -1.0025   -8.9851  -41.1876 H         1 UNK         0.0600 
    183 H183       -2.4530   -9.9421  -40.9384 H         1 UNK         0.0600 
    184 H184       -2.1802  -11.9740  -42.9479 H         1 UNK         0.3000 
    185 H185       -2.0787  -15.4169  -42.2597 H         1 UNK         0.0600 
    186 H186       -4.5306  -15.3492  -41.9148 H         1 UNK         0.0600 
    187 H187       -3.7010  -14.8211  -40.4603 H         1 UNK         0.0600 
    188 H188       -4.4537  -13.6318  -41.5163 H         1 UNK         0.0600 
    189 H189       -3.8476  -13.8848  -43.8908 H         1 UNK         0.3000 
    190 H190       -3.5334  -22.2519  -44.1907 H         1 UNK         0.3000 
    191 H191       -5.7121  -23.9302  -44.8448 H         1 UNK         0.0600 
    192 H192       -5.8246  -24.2772  -42.3672 H         1 UNK         0.0600 
    193 H193       -5.5961  -22.5824  -42.7667 H         1 UNK         0.0600 
    194 H194       -4.2358  -23.5428  -42.1841 H         1 UNK         0.0600 
    195 H195       -2.3193  -24.7421  -44.1696 H         1 UNK         0.3000 
    196 H196       -2.7248  -27.5784  -43.7674 H         1 UNK         0.0600 
    197 H197       -0.2125  -26.0126  -44.5642 H         1 UNK         0.0600 
    198 H198       -0.7248  -26.3418  -42.9092 H         1 UNK         0.0600 
    199 H199       -0.2585  -27.6656  -43.9667 H         1 UNK         0.0600 
    200 H200       -2.6169  -25.5171  -46.5671 H         1 UNK         0.3000 
    201 H201       -2.3185  -27.7927  -48.4726 H         1 UNK         0.0600 
    202 H202       -2.1899  -24.7600  -48.9346 H         1 UNK         0.0600 
    203 H203       -1.8917  -26.0125  -50.1337 H         1 UNK         0.0600 
    204 H204       -0.7882  -25.8174  -48.7837 H         1 UNK         0.0600 
    205 H205       -4.7239  -26.6258  -46.7004 H         1 UNK         0.3000 
    206 H206       -6.9052  -26.3052  -46.7805 H         1 UNK         0.0600 
    207 H207       -6.8657  -28.6172  -47.7534 H         1 UNK         0.0600 
    208 H208       -8.2460  -27.6917  -48.3179 H         1 UNK         0.0600 
    209 H209       -6.8642  -27.9326  -49.3783 H         1 UNK         0.0600 
    210 H210       -5.2451  -24.2676  -47.9457 H         1 UNK         0.3000 
    211 H211       -5.2642  -22.3265  -48.9127 H         1 UNK         0.0600 
    212 H212       -7.3328  -21.0832  -49.3214 H         1 UNK         0.0600 
    213 H213       -7.4935  -21.9933  -47.8293 H         1 UNK         0.0600 
    214 H214       -8.2881  -22.5572  -49.3000 H         1 UNK         0.0600 
    215 H215       -5.3680  -24.9960  -50.6528 H         1 UNK         0.3000 
    216 H216       -6.1803  -24.0947  -53.2592 H         1 UNK         0.0600 
    217 H217       -4.3754  -26.4457  -52.4842 H         1 UNK         0.0600 
    218 H218       -5.2028  -26.2233  -54.0188 H         1 UNK         0.0600 
    219 H219       -6.1367  -26.5023  -52.5558 H         1 UNK         0.0600 
    220 H220       -3.1366  -23.9732  -51.4791 H         1 UNK         0.3000 
    221 H221       -1.3853  -23.4525  -53.6675 H         1 UNK         0.0600 
    222 H222       -0.5047  -24.2775  -51.5585 H         1 UNK         0.0600 
    223 H223       -1.1286  -22.8927  -50.6720 H         1 UNK         0.0600 
    224 H224        0.1800  -22.6840  -51.8293 H         1 UNK         0.0600 
    225 H225       -3.6570  -21.3617  -52.0601 H         1 UNK         0.3000 
    226 H226       -2.4878  -18.8284  -52.6780 H         1 UNK         0.0600 
    227 H227       -5.4361  -19.5522  -52.2541 H         1 UNK         0.0600 
    228 H228       -4.2950  -19.2222  -50.9531 H         1 UNK         0.0600 
    229 H229       -4.7114  -17.9569  -52.0963 H         1 UNK         0.0600 
    230 H230       -4.0795  -21.1757  -54.7014 H         1 UNK         0.3000 
    231 H231       -4.7866  -19.2699  -56.8255 H         1 UNK         0.0600 
    232 H232       -4.7581  -22.3334  -56.7981 H         1 UNK         0.0600 
    233 H233       -5.4834  -21.3070  -58.0267 H         1 UNK         0.0600 
    234 H234       -6.1528  -21.3287  -56.4026 H         1 UNK         0.0600 
    235 H235       -1.9264  -20.8847  -55.7607 H         1 UNK         0.3000 
    236 H236       -0.6670  -20.8750  -58.4718 H         1 UNK         0.0600 
    237 H237       -0.6696  -23.0752  -57.3655 H         1 UNK         0.0600 
    238 H238        0.9670  -22.4390  -57.4303 H         1 UNK         0.0600 
    239 H239        0.0698  -22.3986  -55.9177 H         1 UNK         0.0600 
    240 H240        0.1169  -20.2176  -55.0140 H         1 UNK         0.3000 
    241 H241        1.6214  -19.0058  -53.9970 H         1 UNK         0.0600 
    242 H242        4.9386  -18.2088  -55.6541 H         1 UNK         0.3800 
    243 H243        3.7634  -17.1146  -54.9893 H         1 UNK         0.3800 
    244 H244        1.0085  -16.9220  -56.1511 H         1 UNK         0.0800 
    245 H245        1.9163  -16.5573  -54.7110 H         1 UNK         0.0800 
    246 H246        0.4120  -15.4114  -52.5151 H         1 UNK         0.0800 
    247 H247        1.2654  -16.9318  -52.4099 H         1 UNK         0.0800 
@<TRIPOS>BOND
     1    1    2 1    
     2    1  127 1    
     3    1  128 1    
     4    1  129 1    
     5    2    3 2    
     6    2    4 am   BACKBONE|DICT|INTERRES
     7    4    5 1    
     8    4  130 1    
     9    5    6 1    
    10    5   65 1    
    11    5  131 1    
    12    6    7 1    
    13    6  132 1    
    14    6  133 1    
    15    7    8 1    
    16    8    9 1    
    17    8  134 1    
    18    8  135 1    
    19    9   10 ar   
    20    9   14 ar   
    21   10   11 ar   
    22   10  136 1    
    23   11   12 ar   
    24   11  126 1    
    25   12   13 ar   
    26   12  137 1    
    27   13   14 ar   
    28   13   15 1    
    29   14  138 1    
    30   15   16 1    
    31   15  139 1    
    32   15  140 1    
    33   16   17 1    
    34   17   18 1    
    35   17  141 1    
    36   17  142 1    
    37   18   19 1    
    38   18   67 1    
    39   18  143 1    
    40   19   20 am   BACKBONE|DICT|INTERRES
    41   19  144 1    
    42   20   21 2    
    43   20   22 1    
    44   22   23 1    
    45   22   24 1    
    46   22  145 1    
    47   23  146 1    
    48   23  147 1    
    49   23  148 1    
    50   24   25 am   BACKBONE|DICT|INTERRES
    51   24  149 1    
    52   25   26 2    
    53   25   27 1    
    54   27   28 1    
    55   27   29 1    
    56   27  150 1    
    57   28  151 1    
    58   28  152 1    
    59   28  153 1    
    60   29   30 am   BACKBONE|DICT|INTERRES
    61   29  154 1    
    62   30   31 2    
    63   30   32 1    
    64   32   33 1    
    65   32   34 1    
    66   32  155 1    
    67   33  156 1    
    68   33  157 1    
    69   33  158 1    
    70   34   35 am   BACKBONE|DICT|INTERRES
    71   34  159 1    
    72   35   36 2    
    73   35   37 1    
    74   37   38 1    
    75   37   39 1    
    76   37  160 1    
    77   38  161 1    
    78   38  162 1    
    79   38  163 1    
    80   39   40 am   BACKBONE|DICT|INTERRES
    81   39  164 1    
    82   40   41 2    
    83   40   42 1    
    84   42   43 1    
    85   42   44 1    
    86   42  165 1    
    87   43  166 1    
    88   43  167 1    
    89   43  168 1    
    90   44   45 am   BACKBONE|DICT|INTERRES
    91   44  169 1    
    92   45   46 2    
    93   45   47 1    
    94   47   48 1    
    95   47   49 1    
    96   47  170 1    
    97   48  171 1    
    98   48  172 1    
    99   48  173 1    
   100   49   50 am   BACKBONE|DICT|INTERRES
   101   49  174 1    
   102   50   51 2    
   103   50   52 1    
   104   52   53 1    
   105   52   54 1    
   106   52  175 1    
   107   53  176 1    
   108   53  177 1    
   109   53  178 1    
   110   54   55 am   BACKBONE|DICT|INTERRES
   111   54  179 1    
   112   55   56 2    
   113   55   57 1    
   114   57   58 1    
   115   57   59 1    
   116   57  180 1    
   117   58  181 1    
   118   58  182 1    
   119   58  183 1    
   120   59   60 am   BACKBONE|DICT|INTERRES
   121   59  184 1    
   122   60   61 2    
   123   60   62 1    
   124   62   63 1    
   125   62   64 1    
   126   62  185 1    
   127   63  186 1    
   128   63  187 1    
   129   63  188 1    
   130   64   65 am   BACKBONE|DICT|INTERRES
   131   64  189 1    
   132   65   66 2    
   133   67   68 2    
   134   67   69 am   BACKBONE|DICT|INTERRES
   135   69   70 1    
   136   69  190 1    
   137   70   71 1    
   138   70   72 1    
   139   70  191 1    
   140   71  192 1    
   141   71  193 1    
   142   71  194 1    
   143   72   73 2    
   144   72   74 am   BACKBONE|DICT|INTERRES
   145   74   75 1    
   146   74  195 1    
   147   75   76 1    
   148   75   77 1    
   149   75  196 1    
   150   76  197 1    
   151   76  198 1    
   152   76  199 1    
   153   77   78 2    
   154   77   79 am   BACKBONE|DICT|INTERRES
   155   79   80 1    
   156   79  200 1    
   157   80   81 1    
   158   80   82 1    
   159   80  201 1    
   160   81  202 1    
   161   81  203 1    
   162   81  204 1    
   163   82   83 2    
   164   82   84 am   BACKBONE|DICT|INTERRES
   165   84   85 1    
   166   84  205 1    
   167   85   86 1    
   168   85   87 1    
   169   85  206 1    
   170   86  207 1    
   171   86  208 1    
   172   86  209 1    
   173   87   88 2    
   174   87   89 am   BACKBONE|DICT|INTERRES
   175   89   90 1    
   176   89  210 1    
   177   90   91 1    
   178   90   92 1    
   179   90  211 1    
   180   91  212 1    
   181   91  213 1    
   182   91  214 1    
   183   92   93 2    
   184   92   94 am   BACKBONE|DICT|INTERRES
   185   94   95 1    
   186   94  215 1    
   187   95   96 1    
   188   95   97 1    
   189   95  216 1    
   190   96  217 1    
   191   96  218 1    
   192   96  219 1    
   193   97   98 2    
   194   97   99 am   BACKBONE|DICT|INTERRES
   195   99  100 1    
   196   99  220 1    
   197  100  101 1    
   198  100  102 1    
   199  100  221 1    
   200  101  222 1    
   201  101  223 1    
   202  101  224 1    
   203  102  103 2    
   204  102  104 am   BACKBONE|DICT|INTERRES
   205  104  105 1    
   206  104  225 1    
   207  105  106 1    
   208  105  107 1    
   209  105  226 1    
   210  106  227 1    
   211  106  228 1    
   212  106  229 1    
   213  107  108 2    
   214  107  109 am   BACKBONE|DICT|INTERRES
   215  109  110 1    
   216  109  230 1    
   217  110  111 1    
   218  110  112 1    
   219  110  231 1    
   220  111  232 1    
   221  111  233 1    
   222  111  234 1    
   223  112  113 2    
   224  112  114 am   BACKBONE|DICT|INTERRES
   225  114  115 1    
   226  114  235 1    
   227  115  116 1    
   228  115  117 1    
   229  115  236 1    
   230  116  237 1    
   231  116  238 1    
   232  116  239 1    
   233  117  118 2    
   234  117  119 am   BACKBONE|DICT|INTERRES
   235  119  120 1    
   236  119  240 1    
   237  120  121 1    
   238  120  124 1    
   239  120  241 1    
   240  121  122 am   BACKBONE|DICT|INTERRES
   241  121  123 2    
   242  122  242 1    
   243  122  243 1    
   244  124  125 1    
   245  124  244 1    
   246  124  245 1    
   247  125  126 1    
   248  126  246 1    
   249  126  247 1    
@<TRIPOS>SUBSTRUCTURE
     1 UNK         1 GROUP             0       ****    0 ROOT    
