@<TRIPOS>MOLECULE
3R540
247   249    1
SMALL
USER_CHARGES


@<TRIPOS>ATOM
      1 CA         -1.8034  -14.3761  -47.9748 C.3       0 UNK        -0.1800 
      2 C          -0.6393  -13.6364  -48.6197 C.2       0 UNK         0.5000 
      3 O          -0.8563  -12.7496  -49.4458 O.2       0 UNK        -0.5000 
      4 N           0.5880  -13.9971  -48.2365 N.am      1 UNK        -0.5000 
      5 CA          1.8325  -13.3574  -48.6616 C.3       1 UNK         0.1400 
      6 C6          2.9864  -14.3961  -48.7515 C.3       23 UNK        -0.0398 
      7 S7          3.3298  -14.8914  -50.4714 S.3       23 UNK        -0.2404 
      8 C8          2.7144  -16.6063  -50.5140 C.3       23 UNK        -0.0205 
      9 C9          1.1942  -16.6897  -50.5102 C.ar      23 UNK        -0.0193 
     10 C10         0.4543  -16.0852  -51.5312 C.ar      23 UNK        -0.1150 
     11 C11        -0.9390  -16.1821  -51.5534 C.ar      23 UNK        -0.0193 
     12 C12        -1.5948  -16.9053  -50.5534 C.ar      23 UNK        -0.1150 
     13 C13        -0.8670  -17.5133  -49.5266 C.ar      23 UNK        -0.0193 
     14 C14         0.5265  -17.3988  -49.5067 C.ar      23 UNK        -0.1150 
     15 C15        -1.5879  -18.2795  -48.4315 C.3       23 UNK        -0.0205 
     16 S16        -1.7462  -20.0411  -48.8432 S.3       23 UNK        -0.2404 
     17 C17        -2.7526  -20.6505  -47.4510 C.3       23 UNK        -0.0398 
     18 CA         -2.4088  -22.1153  -47.0893 C.3       11 UNK         0.1400 
     19 N          -1.0305  -22.2498  -46.6152 N.am      11 UNK        -0.5000 
     20 C          -0.4241  -23.3774  -46.2210 C.2       10 UNK         0.5000 
     21 O          -0.9224  -24.4986  -46.3302 O.2       10 UNK        -0.5000 
     22 CA          0.9450  -23.2238  -45.5239 C.3       10 UNK         0.1400 
     23 CB          2.0759  -23.6890  -46.4519 C.3       10 UNK        -0.1800 
     24 N           1.2442  -21.8675  -45.0457 N.am      10 UNK        -0.5000 
     25 C           0.5159  -21.1591  -44.1693 C.2       9 UNK         0.5000 
     26 O          -0.5313  -21.5712  -43.6620 O.2       9 UNK        -0.5000 
     27 CA          1.0204  -19.7287  -43.8964 C.3       9 UNK         0.1400 
     28 CB          0.8660  -18.8571  -45.1536 C.3       9 UNK        -0.1800 
     29 N           0.3148  -19.0655  -42.8039 N.am      9 UNK        -0.5000 
     30 C           0.3994  -19.3816  -41.5064 C.2       8 UNK         0.5000 
     31 O           1.1234  -20.2737  -41.0617 O.2       8 UNK        -0.5000 
     32 CA         -0.4546  -18.5440  -40.5399 C.3       8 UNK         0.1400 
     33 CB          0.3012  -17.2680  -40.1343 C.3       8 UNK        -0.1800 
     34 N          -1.7354  -18.1614  -41.1374 N.am      8 UNK        -0.5000 
     35 C          -2.9105  -18.7462  -40.8695 C.2       7 UNK         0.5000 
     36 O          -3.0419  -19.6862  -40.0848 O.2       7 UNK        -0.5000 
     37 CA         -4.1634  -18.1745  -41.5660 C.3       7 UNK         0.1400 
     38 CB         -4.9051  -17.2155  -40.6220 C.3       7 UNK        -0.1800 
     39 N          -3.8697  -17.4688  -42.8136 N.am      7 UNK        -0.5000 
     40 C          -3.5583  -18.0669  -43.9706 C.2       6 UNK         0.5000 
     41 O          -3.5310  -19.2852  -44.1296 O.2       6 UNK        -0.5000 
     42 CA         -3.1882  -17.1547  -45.1543 C.3       6 UNK         0.1400 
     43 CB         -4.4039  -16.9280  -46.0649 C.3       6 UNK        -0.1800 
     44 N          -2.6040  -15.8578  -44.7979 N.am      6 UNK        -0.5000 
     45 C          -1.4921  -15.6864  -44.0720 C.2       5 UNK         0.5000 
     46 O          -0.9293  -16.5947  -43.4570 O.2       5 UNK        -0.5000 
     47 CA         -0.9376  -14.2530  -43.9968 C.3       5 UNK         0.1400 
     48 CB         -1.6038  -13.4874  -42.8439 C.3       5 UNK        -0.1800 
     49 N           0.5128  -14.2255  -43.8049 N.am      5 UNK        -0.5000 
     50 C           1.4182  -14.7543  -44.6393 C.2       4 UNK         0.5000 
     51 O           1.1413  -15.2767  -45.7220 O.2       4 UNK        -0.5000 
     52 CA          2.8795  -14.6056  -44.1967 C.3       4 UNK         0.1400 
     53 CB          3.8738  -15.3849  -45.0779 C.3       4 UNK        -0.1800 
     54 N           3.2118  -13.1847  -44.1973 N.am      4 UNK        -0.5000 
     55 C           4.1276  -12.5994  -43.4154 C.2       3 UNK         0.5000 
     56 O           4.7939  -13.2152  -42.5814 O.2       3 UNK        -0.5000 
     57 CA          4.3164  -11.0712  -43.5709 C.3       3 UNK         0.1400 
     58 CB          5.7474  -10.6071  -43.2251 C.3       3 UNK        -0.1800 
     59 N           3.8939  -10.5489  -44.8777 N.am      3 UNK        -0.5000 
     60 C           4.4183  -10.8424  -46.0761 C.2       2 UNK         0.5000 
     61 O           5.3972  -11.5708  -46.2518 O.2       2 UNK        -0.5000 
     62 CA          3.6760  -10.2654  -47.2972 C.3       2 UNK         0.1400 
     63 CB          4.6115   -9.4088  -48.1652 C.3       2 UNK        -0.1800 
     64 N           3.1041  -11.3370  -48.1142 N.am      2 UNK        -0.5000 
     65 C           2.1833  -12.2124  -47.6881 C.2       1 UNK         0.5000 
     66 O           1.6553  -12.1476  -46.5733 O.2       1 UNK        -0.5000 
     67 C          -3.4422  -22.6859  -46.0930 C.2       11 UNK         0.5000 
     68 O          -4.4025  -23.3219  -46.5272 O.2       11 UNK        -0.5000 
     69 N          -3.2145  -22.4939  -44.7853 N.am      12 UNK        -0.5000 
     70 CA         -4.0516  -23.0605  -43.7261 C.3       12 UNK         0.1400 
     71 CB         -3.8775  -22.2381  -42.4403 C.3       12 UNK        -0.1800 
     72 C          -3.7345  -24.5402  -43.4480 C.2       12 UNK         0.5000 
     73 O          -4.6241  -25.2802  -43.0266 O.2       12 UNK        -0.5000 
     74 N          -2.4727  -24.9368  -43.6569 N.am      13 UNK        -0.5000 
     75 CA         -1.9641  -26.2678  -43.3372 C.3       13 UNK         0.1400 
     76 CB         -0.4368  -26.2099  -43.1729 C.3       13 UNK        -0.1800 
     77 C          -2.3560  -27.3234  -44.3830 C.2       13 UNK         0.5000 
     78 O          -2.8364  -28.3931  -44.0049 O.2       13 UNK        -0.5000 
     79 N          -2.1185  -27.0255  -45.6678 N.am      14 UNK        -0.5000 
     80 CA         -2.2249  -28.0013  -46.7558 C.3       14 UNK         0.1400 
     81 CB         -0.9520  -28.8739  -46.7891 C.3       14 UNK        -0.1800 
     82 C          -2.5148  -27.3496  -48.1197 C.2       14 UNK         0.5000 
     83 O          -2.1888  -27.9425  -49.1498 O.2       14 UNK        -0.5000 
     84 N          -3.1012  -26.1429  -48.1214 N.am      15 UNK        -0.5000 
     85 CA         -3.4719  -25.3059  -49.2759 C.3       15 UNK         0.1400 
     86 CB         -4.4710  -26.0237  -50.2048 C.3       15 UNK        -0.1800 
     87 C          -2.2820  -24.7390  -50.0781 C.2       15 UNK         0.5000 
     88 O          -2.3233  -23.5710  -50.4669 O.2       15 UNK        -0.5000 
     89 N          -1.2547  -25.5671  -50.3147 N.am      16 UNK        -0.5000 
     90 CA          0.0349  -25.2555  -50.9437 C.3       16 UNK         0.1400 
     91 CB          0.8672  -24.3681  -49.9956 C.3       16 UNK        -0.1800 
     92 C          -0.0837  -24.6512  -52.3604 C.2       16 UNK         0.5000 
     93 O           0.7830  -23.8779  -52.7710 O.2       16 UNK        -0.5000 
     94 N          -1.1863  -24.9681  -53.0576 N.am      17 UNK        -0.5000 
     95 CA         -1.6887  -24.3992  -54.3178 C.3       17 UNK         0.1400 
     96 CB         -0.7006  -24.6171  -55.4786 C.3       17 UNK        -0.1800 
     97 C          -2.1121  -22.9180  -54.2179 C.2       17 UNK         0.5000 
     98 O          -3.1378  -22.5449  -54.7881 O.2       17 UNK        -0.5000 
     99 N          -1.3449  -22.1099  -53.4769 N.am      18 UNK        -0.5000 
    100 CA        -1.5345  -20.6809  -53.2343 C.3       18 UNK         0.1400 
    101 CB        -0.4185  -20.1815  -52.3078 C.3       18 UNK        -0.1800 
    102 C         -2.9239  -20.3079  -52.6871 C.2       18 UNK         0.5000 
    103 O         -3.4735  -19.2882  -53.1020 O.2       18 UNK        -0.5000 
    104 N         -3.5108  -21.1592  -51.8322 N.am      19 UNK        -0.5000 
    105 CA        -4.8634  -20.9731  -51.2950 C.3       19 UNK         0.1400 
    106 CB        -5.1499  -22.0476  -50.2381 C.3       19 UNK        -0.1800 
    107 C         -5.9712  -20.9883  -52.3690 C.2       19 UNK         0.5000 
    108 O         -7.0118  -20.3623  -52.1654 O.2       19 UNK        -0.5000 
    109 N         -5.7302  -21.6915  -53.4836 N.am      20 UNK        -0.5000 
    110 CA        -6.6220  -21.7398  -54.6398 C.3       20 UNK         0.1400 
    111 CB        -6.6201  -23.1637  -55.2187 C.3       20 UNK        -0.1800 
    112 C         -6.2036  -20.7194  -55.7120 C.2       20 UNK         0.5000 
    113 O         -7.0718  -20.0929  -56.3207 O.2       20 UNK        -0.5000 
    114 N         -4.8891  -20.5811  -55.9370 N.am      21 UNK        -0.5000 
    115 CA        -4.3084  -19.7351  -56.9807 C.3       21 UNK         0.1400 
    116 CB        -2.8347  -20.1185  -57.1813 C.3       21 UNK        -0.1800 
    117 C         -4.4400  -18.2241  -56.7133 C.2       21 UNK         0.5000 
    118 O         -4.5593  -17.4579  -57.6711 O.2       21 UNK        -0.5000 
    119 N         -4.4134  -17.8173  -55.4397 N.am      22 UNK        -0.5000 
    120 CA        -4.4914  -16.4103  -55.0163 C.3       22 UNK         0.1400 
    121 C         -5.1967  -16.1951  -53.6495 C.2       22 UNK         0.5000 
    122 N         -5.1990  -17.1588  -52.7386 N.am      22 UNK        -0.7600 
    123 O         -5.7717  -15.1349  -53.4183 O.2       22 UNK        -0.5000 
    124 C124       -3.1196  -15.6848  -55.0940 C.3       23 UNK        -0.0398 
    125 S125       -1.7850  -16.5147  -54.1583 S.3       23 UNK        -0.2404 
    126 C126       -1.7355  -15.4989  -52.6515 C.3       23 UNK        -0.0205 
    127 H127       -2.3503  -13.7089  -47.3092 H         1 UNK         0.0600 
    128 H128       -1.4599  -15.2356  -47.3986 H         1 UNK         0.0600 
    129 H129       -2.4912  -14.7360  -48.7398 H         1 UNK         0.0600 
    130 H130        0.6934  -14.6538  -47.4673 H         1 UNK         0.3000 
    131 H131        1.6820  -12.8960  -49.6401 H         1 UNK         0.0600 
    132 H132        3.9277  -14.0034  -48.3615 H         1 UNK         0.0800 
    133 H133        2.7739  -15.2791  -48.1466 H         1 UNK         0.0800 
    134 H134        3.1425  -17.1657  -49.6807 H         1 UNK         0.0800 
    135 H135        3.0828  -17.0848  -51.4223 H         1 UNK         0.0800 
    136 H136        0.9647  -15.5370  -52.3105 H         1 UNK         0.1150 
    137 H137       -2.6720  -16.9938  -50.5741 H         1 UNK         0.1150 
    138 H138        1.0893  -17.8715  -48.7142 H         1 UNK         0.1150 
    139 H139       -1.0402  -18.1716  -47.4966 H         1 UNK         0.0800 
    140 H140       -2.5793  -17.8545  -48.2719 H         1 UNK         0.0800 
    141 H141       -3.8025  -20.5485  -47.7307 H         1 UNK         0.0800 
    142 H142       -2.6046  -20.0060  -46.5839 H         1 UNK         0.0800 
    143 H143       -2.4843  -22.7130  -47.9957 H         1 UNK         0.0600 
    144 H144       -0.5219  -21.3866  -46.5041 H         1 UNK         0.3000 
    145 H145        0.9343  -23.8736  -44.6481 H         1 UNK         0.0600 
    146 H146        3.0421  -23.6515  -45.9486 H         1 UNK         0.0600 
    147 H147        1.9198  -24.7209  -46.7692 H         1 UNK         0.0600 
    148 H148        2.1388  -23.0727  -47.3497 H         1 UNK         0.0600 
    149 H149        2.0811  -21.4471  -45.4238 H         1 UNK         0.3000 
    150 H150        2.0786  -19.7874  -43.6342 H         1 UNK         0.0600 
    151 H151        1.3872  -19.2794  -46.0132 H         1 UNK         0.0600 
    152 H152        1.2772  -17.8618  -44.9895 H         1 UNK         0.0600 
    153 H153       -0.1831  -18.7413  -45.4239 H         1 UNK         0.0600 
    154 H154       -0.2731  -18.2803  -43.0683 H         1 UNK         0.3000 
    155 H155       -0.6177  -19.1388  -39.6388 H         1 UNK         0.0600 
    156 H156        0.4997  -16.6252  -40.9932 H         1 UNK         0.0600 
    157 H157        1.2609  -17.5110  -39.6764 H         1 UNK         0.0600 
    158 H158       -0.2683  -16.6883  -39.4077 H         1 UNK         0.0600 
    159 H159       -1.6988  -17.4353  -41.8444 H         1 UNK         0.3000 
    160 H160       -4.8292  -19.0106  -41.7889 H         1 UNK         0.0600 
    161 H161       -4.2947  -16.3477  -40.3686 H         1 UNK         0.0600 
    162 H162       -5.1710  -17.7135  -39.6886 H         1 UNK         0.0600 
    163 H163       -5.8310  -16.8562  -41.0716 H         1 UNK         0.0600 
    164 H164       -3.8661  -16.4603  -42.7785 H         1 UNK         0.3000 
    165 H165       -2.4315  -17.6897  -45.7262 H         1 UNK         0.0600 
    166 H166       -4.1314  -16.3689  -46.9601 H         1 UNK         0.0600 
    167 H167       -4.8288  -17.8775  -46.3938 H         1 UNK         0.0600 
    168 H168       -5.1916  -16.3758  -45.5511 H         1 UNK         0.0600 
    169 H169       -3.0356  -15.0496  -45.2216 H         1 UNK         0.3000 
    170 H170       -1.1566  -13.7428  -44.9368 H         1 UNK         0.0600 
    171 H171       -1.3975  -13.9541  -41.8795 H         1 UNK         0.0600 
    172 H172       -1.2524  -12.4562  -42.8000 H         1 UNK         0.0600 
    173 H173       -2.6870  -13.4537  -42.9673 H         1 UNK         0.0600 
    174 H174        0.8398  -13.8095  -42.9459 H         1 UNK         0.3000 
    175 H175        2.9422  -14.9995  -43.1799 H         1 UNK         0.0600 
    176 H176        3.9324  -14.9651  -46.0806 H         1 UNK         0.0600 
    177 H177        4.8767  -15.3620  -44.6517 H         1 UNK         0.0600 
    178 H178        3.5833  -16.4322  -45.1697 H         1 UNK         0.0600 
    179 H179        2.6869  -12.6198  -44.8592 H         1 UNK         0.3000 
    180 H180        3.6453  -10.6183  -42.8398 H         1 UNK         0.0600 
    181 H181        5.8508   -9.5280  -43.3389 H         1 UNK         0.0600 
    182 H182        6.4943  -11.0852  -43.8593 H         1 UNK         0.0600 
    183 H183        5.9979  -10.8472  -42.1911 H         1 UNK         0.0600 
    184 H184        3.0680   -9.9662  -44.8558 H         1 UNK         0.3000 
    185 H185        2.8574   -9.6298  -46.9528 H         1 UNK         0.0600 
    186 H186        4.0731   -8.9564  -48.9982 H         1 UNK         0.0600 
    187 H187        5.0484   -8.5972  -47.5819 H         1 UNK         0.0600 
    188 H188        5.4333   -9.9968  -48.5761 H         1 UNK         0.0600 
    189 H189        3.5119  -11.4618  -49.0296 H         1 UNK         0.3000 
    190 H190       -2.3987  -21.9684  -44.4865 H         1 UNK         0.3000 
    191 H191       -5.1000  -22.9968  -44.0255 H         1 UNK         0.0600 
    192 H192       -4.4324  -22.6783  -41.6108 H         1 UNK         0.0600 
    193 H193       -4.2535  -21.2256  -42.5712 H         1 UNK         0.0600 
    194 H194       -2.8315  -22.1717  -42.1384 H         1 UNK         0.0600 
    195 H195       -1.8166  -24.2720  -44.0380 H         1 UNK         0.3000 
    196 H196       -2.3865  -26.5741  -42.3775 H         1 UNK         0.0600 
    197 H197        0.0647  -25.9813  -44.1130 H         1 UNK         0.0600 
    198 H198       -0.1438  -25.4573  -42.4406 H         1 UNK         0.0600 
    199 H199       -0.0497  -27.1688  -42.8260 H         1 UNK         0.0600 
    200 H200       -1.7038  -26.1246  -45.9027 H         1 UNK         0.3000 
    201 H201       -3.0793  -28.6533  -46.5634 H         1 UNK         0.0600 
    202 H202       -0.0659  -28.2747  -47.0014 H         1 UNK         0.0600 
    203 H203       -1.0193  -29.6481  -47.5544 H         1 UNK         0.0600 
    204 H204       -0.7912  -29.3829  -45.8388 H         1 UNK         0.0600 
    205 H205       -3.3069  -25.7310  -47.2216 H         1 UNK         0.3000 
    206 H206       -3.9947  -24.4477  -48.8564 H         1 UNK         0.0600 
    207 H207       -5.3587  -26.3395  -49.6569 H         1 UNK         0.0600 
    208 H208       -4.8028  -25.3645  -51.0073 H         1 UNK         0.0600 
    209 H209       -4.0371  -26.9052  -50.6766 H         1 UNK         0.0600 
    210 H210       -1.3675  -26.5225  -49.9827 H         1 UNK         0.3000 
    211 H211        0.5590  -26.2048  -51.0602 H         1 UNK         0.0600 
    212 H212        1.8819  -24.2290  -50.3702 H         1 UNK         0.0600 
    213 H213        0.9462  -24.8228  -49.0088 H         1 UNK         0.0600 
    214 H214        0.4223  -23.3795  -49.8730 H         1 UNK         0.0600 
    215 H215       -1.8297  -25.5960  -52.5971 H         1 UNK         0.3000 
    216 H216       -2.5939  -24.9618  -54.5518 H         1 UNK         0.0600 
    217 H217        0.2221  -24.0524  -55.3441 H         1 UNK         0.0600 
    218 H218       -1.1398  -24.2973  -56.4245 H         1 UNK         0.0600 
    219 H219       -0.4387  -25.6701  -55.5811 H         1 UNK         0.0600 
    220 H220       -0.5172  -22.5290  -53.0641 H         1 UNK         0.3000 
    221 H221       -1.4197  -20.1712  -54.1908 H         1 UNK         0.0600 
    222 H222        0.5607  -20.2987  -52.7718 H         1 UNK         0.0600 
    223 H223       -0.4069  -20.7273  -51.3644 H         1 UNK         0.0600 
    224 H224       -0.5429  -19.1229  -52.0795 H         1 UNK         0.0600 
    225 H225       -2.9965  -21.9745  -51.5114 H         1 UNK         0.3000 
    226 H226       -4.8898  -19.9976  -50.8049 H         1 UNK         0.0600 
    227 H227       -5.1758  -23.0422  -50.6818 H         1 UNK         0.0600 
    228 H228       -4.3921  -22.0478  -49.4576 H         1 UNK         0.0600 
    229 H229       -6.1134  -21.8775  -49.7562 H         1 UNK         0.0600 
    230 H230       -4.8272  -22.1372  -53.5919 H         1 UNK         0.3000 
    231 H231       -7.6446  -21.5063  -54.3357 H         1 UNK         0.0600 
    232 H232       -5.6265  -23.4662  -55.5512 H         1 UNK         0.0600 
    233 H233       -7.2895  -23.2362  -56.0768 H         1 UNK         0.0600 
    234 H234       -6.9601  -23.8887  -54.4791 H         1 UNK         0.0600 
    235 H235       -4.2425  -21.1763  -55.4268 H         1 UNK         0.3000 
    236 H236       -4.8376  -19.9487  -57.9118 H         1 UNK         0.0600 
    237 H237       -2.2410  -19.9028  -56.2942 H         1 UNK         0.0600 
    238 H238       -2.7276  -21.1794  -57.4085 H         1 UNK         0.0600 
    239 H239       -2.3966  -19.5614  -58.0103 H         1 UNK         0.0600 
    240 H240       -4.2682  -18.4966  -54.7006 H         1 UNK         0.3000 
    241 H241       -5.1493  -15.9036  -55.7256 H         1 UNK         0.0600 
    242 H242       -5.6829  -17.0097  -51.8688 H         1 UNK         0.3800 
    243 H243       -4.6260  -17.9917  -52.8625 H         1 UNK         0.3800 
    244 H244       -2.8012  -15.6359  -56.1359 H         1 UNK         0.0800 
    245 H245       -3.2100  -14.6458  -54.7723 H         1 UNK         0.0800 
    246 H246       -1.2953  -14.5276  -52.8819 H         1 UNK         0.0800 
    247 H247       -2.7496  -15.3019  -52.3020 H         1 UNK         0.0800 
@<TRIPOS>BOND
     1    1    2 1    
     2    1  127 1    
     3    1  128 1    
     4    1  129 1    
     5    2    3 2    
     6    2    4 am   BACKBONE|DICT|INTERRES
     7    4    5 1    
     8    4  130 1    
     9    5    6 1    
    10    5   65 1    
    11    5  131 1    
    12    6    7 1    
    13    6  132 1    
    14    6  133 1    
    15    7    8 1    
    16    8    9 1    
    17    8  134 1    
    18    8  135 1    
    19    9   10 ar   
    20    9   14 ar   
    21   10   11 ar   
    22   10  136 1    
    23   11   12 ar   
    24   11  126 1    
    25   12   13 ar   
    26   12  137 1    
    27   13   14 ar   
    28   13   15 1    
    29   14  138 1    
    30   15   16 1    
    31   15  139 1    
    32   15  140 1    
    33   16   17 1    
    34   17   18 1    
    35   17  141 1    
    36   17  142 1    
    37   18   19 1    
    38   18   67 1    
    39   18  143 1    
    40   19   20 am   BACKBONE|DICT|INTERRES
    41   19  144 1    
    42   20   21 2    
    43   20   22 1    
    44   22   23 1    
    45   22   24 1    
    46   22  145 1    
    47   23  146 1    
    48   23  147 1    
    49   23  148 1    
    50   24   25 am   BACKBONE|DICT|INTERRES
    51   24  149 1    
    52   25   26 2    
    53   25   27 1    
    54   27   28 1    
    55   27   29 1    
    56   27  150 1    
    57   28  151 1    
    58   28  152 1    
    59   28  153 1    
    60   29   30 am   BACKBONE|DICT|INTERRES
    61   29  154 1    
    62   30   31 2    
    63   30   32 1    
    64   32   33 1    
    65   32   34 1    
    66   32  155 1    
    67   33  156 1    
    68   33  157 1    
    69   33  158 1    
    70   34   35 am   BACKBONE|DICT|INTERRES
    71   34  159 1    
    72   35   36 2    
    73   35   37 1    
    74   37   38 1    
    75   37   39 1    
    76   37  160 1    
    77   38  161 1    
    78   38  162 1    
    79   38  163 1    
    80   39   40 am   BACKBONE|DICT|INTERRES
    81   39  164 1    
    82   40   41 2    
    83   40   42 1    
    84   42   43 1    
    85   42   44 1    
    86   42  165 1    
    87   43  166 1    
    88   43  167 1    
    89   43  168 1    
    90   44   45 am   BACKBONE|DICT|INTERRES
    91   44  169 1    
    92   45   46 2    
    93   45   47 1    
    94   47   48 1    
    95   47   49 1    
    96   47  170 1    
    97   48  171 1    
    98   48  172 1    
    99   48  173 1    
   100   49   50 am   BACKBONE|DICT|INTERRES
   101   49  174 1    
   102   50   51 2    
   103   50   52 1    
   104   52   53 1    
   105   52   54 1    
   106   52  175 1    
   107   53  176 1    
   108   53  177 1    
   109   53  178 1    
   110   54   55 am   BACKBONE|DICT|INTERRES
   111   54  179 1    
   112   55   56 2    
   113   55   57 1    
   114   57   58 1    
   115   57   59 1    
   116   57  180 1    
   117   58  181 1    
   118   58  182 1    
   119   58  183 1    
   120   59   60 am   BACKBONE|DICT|INTERRES
   121   59  184 1    
   122   60   61 2    
   123   60   62 1    
   124   62   63 1    
   125   62   64 1    
   126   62  185 1    
   127   63  186 1    
   128   63  187 1    
   129   63  188 1    
   130   64   65 am   BACKBONE|DICT|INTERRES
   131   64  189 1    
   132   65   66 2    
   133   67   68 2    
   134   67   69 am   BACKBONE|DICT|INTERRES
   135   69   70 1    
   136   69  190 1    
   137   70   71 1    
   138   70   72 1    
   139   70  191 1    
   140   71  192 1    
   141   71  193 1    
   142   71  194 1    
   143   72   73 2    
   144   72   74 am   BACKBONE|DICT|INTERRES
   145   74   75 1    
   146   74  195 1    
   147   75   76 1    
   148   75   77 1    
   149   75  196 1    
   150   76  197 1    
   151   76  198 1    
   152   76  199 1    
   153   77   78 2    
   154   77   79 am   BACKBONE|DICT|INTERRES
   155   79   80 1    
   156   79  200 1    
   157   80   81 1    
   158   80   82 1    
   159   80  201 1    
   160   81  202 1    
   161   81  203 1    
   162   81  204 1    
   163   82   83 2    
   164   82   84 am   BACKBONE|DICT|INTERRES
   165   84   85 1    
   166   84  205 1    
   167   85   86 1    
   168   85   87 1    
   169   85  206 1    
   170   86  207 1    
   171   86  208 1    
   172   86  209 1    
   173   87   88 2    
   174   87   89 am   BACKBONE|DICT|INTERRES
   175   89   90 1    
   176   89  210 1    
   177   90   91 1    
   178   90   92 1    
   179   90  211 1    
   180   91  212 1    
   181   91  213 1    
   182   91  214 1    
   183   92   93 2    
   184   92   94 am   BACKBONE|DICT|INTERRES
   185   94   95 1    
   186   94  215 1    
   187   95   96 1    
   188   95   97 1    
   189   95  216 1    
   190   96  217 1    
   191   96  218 1    
   192   96  219 1    
   193   97   98 2    
   194   97   99 am   BACKBONE|DICT|INTERRES
   195   99  100 1    
   196   99  220 1    
   197  100  101 1    
   198  100  102 1    
   199  100  221 1    
   200  101  222 1    
   201  101  223 1    
   202  101  224 1    
   203  102  103 2    
   204  102  104 am   BACKBONE|DICT|INTERRES
   205  104  105 1    
   206  104  225 1    
   207  105  106 1    
   208  105  107 1    
   209  105  226 1    
   210  106  227 1    
   211  106  228 1    
   212  106  229 1    
   213  107  108 2    
   214  107  109 am   BACKBONE|DICT|INTERRES
   215  109  110 1    
   216  109  230 1    
   217  110  111 1    
   218  110  112 1    
   219  110  231 1    
   220  111  232 1    
   221  111  233 1    
   222  111  234 1    
   223  112  113 2    
   224  112  114 am   BACKBONE|DICT|INTERRES
   225  114  115 1    
   226  114  235 1    
   227  115  116 1    
   228  115  117 1    
   229  115  236 1    
   230  116  237 1    
   231  116  238 1    
   232  116  239 1    
   233  117  118 2    
   234  117  119 am   BACKBONE|DICT|INTERRES
   235  119  120 1    
   236  119  240 1    
   237  120  121 1    
   238  120  124 1    
   239  120  241 1    
   240  121  122 am   BACKBONE|DICT|INTERRES
   241  121  123 2    
   242  122  242 1    
   243  122  243 1    
   244  124  125 1    
   245  124  244 1    
   246  124  245 1    
   247  125  126 1    
   248  126  246 1    
   249  126  247 1    
@<TRIPOS>SUBSTRUCTURE
     1 UNK         1 GROUP             0       ****    0 ROOT    
