@<TRIPOS>MOLECULE
3R540
247   249    1
SMALL
USER_CHARGES


@<TRIPOS>ATOM
      1 CA          0.2968  -10.2156  -44.1428 C.3       0 UNK        -0.1800 
      2 C           1.5130  -10.5782  -44.9840 C.2       0 UNK         0.5000 
      3 O           2.6205  -10.1421  -44.6687 O.2       0 UNK        -0.5000 
      4 N           1.3155  -11.3575  -46.0563 N.am      1 UNK        -0.5000 
      5 CA          2.3832  -11.8155  -46.9493 C.3       1 UNK         0.1400 
      6 C6          1.8473  -12.2595  -48.3383 C.3       23 UNK        -0.0398 
      7 S7          0.9541  -13.8553  -48.3789 S.3       23 UNK        -0.2404 
      8 C8         -0.5529  -13.4174  -49.2955 C.3       23 UNK        -0.0205 
      9 C9         -1.3664  -14.6527  -49.6545 C.ar      23 UNK        -0.0193 
     10 C10        -0.8985  -15.5366  -50.6300 C.ar      23 UNK        -0.1150 
     11 C11        -1.6605  -16.6440  -51.0125 C.ar      23 UNK        -0.0193 
     12 C12        -2.8888  -16.8840  -50.3889 C.ar      23 UNK        -0.1150 
     13 C13        -3.3709  -16.0072  -49.4130 C.ar      23 UNK        -0.0193 
     14 C14        -2.6048  -14.8929  -49.0530 C.ar      23 UNK        -0.1150 
     15 C15        -4.7452  -16.2197  -48.7924 C.3       23 UNK        -0.0205 
     16 S16        -4.6485  -16.4964  -46.9971 S.3       23 UNK        -0.2404 
     17 C17        -4.9000  -18.2949  -46.8326 C.3       23 UNK        -0.0398 
     18 CA         -3.8608  -19.2072  -47.5359 C.3       11 UNK         0.1400 
     19 N          -2.4671  -18.8572  -47.2421 N.am      11 UNK        -0.5000 
     20 C          -1.3969  -19.4474  -47.7984 C.2       10 UNK         0.5000 
     21 O          -1.4648  -20.3098  -48.6754 O.2       10 UNK        -0.5000 
     22 CA         -0.0215  -19.0692  -47.2232 C.3       10 UNK         0.1400 
     23 CB          0.5072  -17.7653  -47.8437 C.3       10 UNK        -0.1800 
     24 N          -0.0700  -18.9615  -45.7631 N.am      10 UNK        -0.5000 
     25 C          -0.1714  -20.0155  -44.9389 C.2       9 UNK         0.5000 
     26 O          -0.1631  -21.1820  -45.3288 O.2       9 UNK        -0.5000 
     27 CA         -0.3518  -19.7363  -43.4343 C.3       9 UNK         0.1400 
     28 CB          0.9980  -19.7574  -42.7072 C.3       9 UNK        -0.1800 
     29 N          -1.0491  -18.4778  -43.1655 N.am      9 UNK        -0.5000 
     30 C          -2.3599  -18.3098  -43.3932 C.2       8 UNK         0.5000 
     31 O          -3.0910  -19.1945  -43.8402 O.2       8 UNK        -0.5000 
     32 CA         -2.9503  -16.9140  -43.1260 C.3       8 UNK         0.1400 
     33 CB         -3.2473  -16.7310  -41.6305 C.3       8 UNK        -0.1800 
     34 N          -2.1209  -15.8006  -43.5879 N.am      8 UNK        -0.5000 
     35 C          -1.5975  -15.6473  -44.8095 C.2       7 UNK         0.5000 
     36 O          -1.6673  -16.5032  -45.6875 O.2       7 UNK        -0.5000 
     37 CA         -0.8558  -14.3330  -45.1120 C.3       7 UNK         0.1400 
     38 CB         -1.8451  -13.2091  -45.4765 C.3       7 UNK        -0.1800 
     39 N           0.1102  -13.9219  -44.0862 N.am      7 UNK        -0.5000 
     40 C          -0.1194  -13.5827  -42.8094 C.2       6 UNK         0.5000 
     41 O          -1.2456  -13.4226  -42.3346 O.2       6 UNK        -0.5000 
     42 CA          1.1225  -13.4684  -41.9020 C.3       6 UNK         0.1400 
     43 CB          0.7659  -13.4767  -40.4022 C.3       6 UNK        -0.1800 
     44 N           2.1399  -14.4896  -42.1693 N.am      6 UNK        -0.5000 
     45 C           1.9836  -15.8236  -42.2344 C.2       5 UNK         0.5000 
     46 O           0.9012  -16.4070  -42.1425 O.2       5 UNK        -0.5000 
     47 CA          3.2657  -16.6534  -42.4453 C.3       5 UNK         0.1400 
     48 CB          3.4706  -16.9198  -43.9417 C.3       5 UNK        -0.1800 
     49 N           4.4647  -16.0053  -41.9095 N.am      5 UNK        -0.5000 
     50 C           4.6880  -15.7880  -40.6045 C.2       4 UNK         0.5000 
     51 O           3.9647  -16.2275  -39.7098 O.2       4 UNK        -0.5000 
     52 CA          5.9032  -14.9182  -40.2227 C.3       4 UNK         0.1400 
     53 CB          7.0536  -15.7978  -39.7092 C.3       4 UNK        -0.1800 
     54 N           6.4087  -14.0660  -41.3018 N.am      4 UNK        -0.5000 
     55 C           5.7335  -13.0909  -41.9265 C.2       3 UNK         0.5000 
     56 O           4.5643  -12.7971  -41.6751 O.2       3 UNK        -0.5000 
     57 CA          6.4773  -12.3318  -43.0437 C.3       3 UNK         0.1400 
     58 CB          8.0153  -12.4622  -42.9697 C.3       3 UNK        -0.1800 
     59 N           6.0089  -12.7034  -44.3819 N.am      3 UNK        -0.5000 
     60 C           5.9365  -13.9323  -44.9176 C.2       2 UNK         0.5000 
     61 O           6.1966  -14.9689  -44.3030 O.2       2 UNK        -0.5000 
     62 CA          5.5317  -13.9853  -46.4076 C.3       2 UNK         0.1400 
     63 CB          5.1499  -15.3902  -46.9215 C.3       2 UNK        -0.1800 
     64 N           4.5089  -13.0023  -46.7814 N.am      2 UNK        -0.5000 
     65 C           3.2685  -12.8919  -46.2817 C.2       1 UNK         0.5000 
     66 O           2.8134  -13.5946  -45.3727 O.2       1 UNK        -0.5000 
     67 C          -4.1506  -20.6803  -47.1794 C.2       11 UNK         0.5000 
     68 O          -4.7277  -21.4061  -47.9906 O.2       11 UNK        -0.5000 
     69 N          -3.7148  -21.0962  -45.9799 N.am      12 UNK        -0.5000 
     70 CA         -3.8353  -22.4635  -45.4790 C.3       12 UNK         0.1400 
     71 CB         -3.3798  -22.5297  -44.0144 C.3       12 UNK        -0.1800 
     72 C          -3.0650  -23.4783  -46.3377 C.2       12 UNK         0.5000 
     73 O          -3.6268  -24.5188  -46.6709 O.2       12 UNK        -0.5000 
     74 N          -1.8208  -23.1500  -46.7159 N.am      13 UNK        -0.5000 
     75 CA         -0.9791  -23.9699  -47.5898 C.3       13 UNK         0.1400 
     76 CB          0.4265  -23.3593  -47.6884 C.3       13 UNK        -0.1800 
     77 C          -1.5853  -24.1691  -48.9896 C.2       13 UNK         0.5000 
     78 O          -1.6086  -25.2975  -49.4806 O.2       13 UNK        -0.5000 
     79 N          -2.1046  -23.0845  -49.5834 N.am      14 UNK        -0.5000 
     80 CA         -2.7904  -23.0899  -50.8777 C.3       14 UNK         0.1400 
     81 CB         -3.1342  -21.6457  -51.2724 C.3       14 UNK        -0.1800 
     82 C          -4.0534  -23.9723  -50.8923 C.2       14 UNK         0.5000 
     83 O          -4.3127  -24.6489  -51.8914 O.2       14 UNK        -0.5000 
     84 N          -4.7984  -23.9596  -49.7791 N.am      15 UNK        -0.5000 
     85 CA         -5.9678  -24.8037  -49.5534 C.3       15 UNK         0.1400 
     86 CB         -6.7978  -24.2304  -48.3946 C.3       15 UNK        -0.1800 
     87 C          -5.5836  -26.2703  -49.2870 C.2       15 UNK         0.5000 
     88 O          -6.1542  -27.1640  -49.9113 O.2       15 UNK        -0.5000 
     89 N          -4.6158  -26.4965  -48.3865 N.am      16 UNK        -0.5000 
     90 CA         -4.1437  -27.8199  -47.9647 C.3       16 UNK         0.1400 
     91 CB         -3.1739  -27.6706  -46.7830 C.3       16 UNK        -0.1800 
     92 C          -3.4874  -28.6310  -49.0948 C.2       16 UNK         0.5000 
     93 O          -3.6635  -29.8486  -49.1493 O.2       16 UNK        -0.5000 
     94 N          -2.7755  -27.9415  -49.9960 N.am      17 UNK        -0.5000 
     95 CA         -2.1972  -28.5144  -51.2128 C.3       17 UNK         0.1400 
     96 CB         -1.1508  -27.5345  -51.7684 C.3       17 UNK        -0.1800 
     97 C          -3.2459  -28.8365  -52.2975 C.2       17 UNK         0.5000 
     98 O          -2.9048  -29.5018  -53.2760 O.2       17 UNK        -0.5000 
     99 N          -4.4787  -28.3282  -52.1305 N.am      18 UNK        -0.5000 
    100 CA        -5.5967  -28.3523  -53.0812 C.3       18 UNK         0.1400 
    101 CB        -6.0841  -29.7944  -53.3313 C.3       18 UNK        -0.1800 
    102 C         -5.2880  -27.5829  -54.3836 C.2       18 UNK         0.5000 
    103 O         -5.8706  -27.8751  -55.4295 O.2       18 UNK        -0.5000 
    104 N         -4.3682  -26.6135  -54.2940 N.am      19 UNK        -0.5000 
    105 CA        -3.9145  -25.7872  -55.4064 C.3       19 UNK         0.1400 
    106 CB        -2.5014  -25.2666  -55.0958 C.3       19 UNK        -0.1800 
    107 C         -4.8714  -24.6160  -55.6674 C.2       19 UNK         0.5000 
    108 O         -5.0720  -24.2496  -56.8257 O.2       19 UNK        -0.5000 
    109 N         -5.4204  -24.0440  -54.5819 N.am      20 UNK        -0.5000 
    110 CA        -6.2646  -22.8419  -54.5529 C.3       20 UNK         0.1400 
    111 CB        -7.6365  -23.1190  -55.2013 C.3       20 UNK        -0.1800 
    112 C         -5.5492  -21.6055  -55.1438 C.2       20 UNK         0.5000 
    113 O         -6.1729  -20.7756  -55.8093 O.2       20 UNK        -0.5000 
    114 N         -4.2324  -21.5337  -54.9041 N.am      21 UNK        -0.5000 
    115 CA        -3.3288  -20.4841  -55.3658 C.3       21 UNK         0.1400 
    116 CB        -1.8918  -20.8665  -54.9759 C.3       21 UNK        -0.1800 
    117 C         -3.6864  -19.0964  -54.8047 C.2       21 UNK         0.5000 
    118 O         -4.2414  -18.9938  -53.7081 O.2       21 UNK        -0.5000 
    119 N         -3.3259  -18.0620  -55.5720 N.am      22 UNK        -0.5000 
    120 CA        -3.5303  -16.6327  -55.2735 C.3       22 UNK         0.1400 
    121 C         -5.0039  -16.1383  -55.4083 C.2       22 UNK         0.5000 
    122 N         -5.9436  -16.9499  -55.8788 N.am      22 UNK        -0.7600 
    123 O         -5.2983  -14.9828  -55.1145 O.2       22 UNK        -0.5000 
    124 C124       -2.8897  -16.1727  -53.9334 C.3       23 UNK        -0.0398 
    125 S125       -1.1382  -16.6678  -53.7367 S.3       23 UNK        -0.2404 
    126 C126       -1.1790  -17.5485  -52.1380 C.3       23 UNK        -0.0205 
    127 H127        0.1048   -9.1447  -44.2078 H         1 UNK         0.0600 
    128 H128        0.4732  -10.4649  -43.0968 H         1 UNK         0.0600 
    129 H129       -0.5999  -10.7403  -44.4690 H         1 UNK         0.0600 
    130 H130        0.3957  -11.7211  -46.2523 H         1 UNK         0.3000 
    131 H131        3.0253  -10.9505  -47.1311 H         1 UNK         0.0600 
    132 H132        1.2087  -11.4743  -48.7452 H         1 UNK         0.0800 
    133 H133        2.6785  -12.3410  -49.0403 H         1 UNK         0.0800 
    134 H134       -0.2811  -12.8936  -50.2131 H         1 UNK         0.0800 
    135 H135       -1.1465  -12.7208  -48.7017 H         1 UNK         0.0800 
    136 H136        0.0487  -15.3456  -51.1146 H         1 UNK         0.1150 
    137 H137       -3.4847  -17.7340  -50.6912 H         1 UNK         0.1150 
    138 H138       -2.9871  -14.2045  -48.3144 H         1 UNK         0.1150 
    139 H139       -5.3470  -15.3279  -48.9723 H         1 UNK         0.0800 
    140 H140       -5.2753  -17.0431  -49.2729 H         1 UNK         0.0800 
    141 H141       -5.9029  -18.5243  -47.1972 H         1 UNK         0.0800 
    142 H142       -4.9209  -18.5012  -45.7611 H         1 UNK         0.0800 
    143 H143       -3.9934  -19.1043  -48.6142 H         1 UNK         0.0600 
    144 H144       -2.3151  -18.1063  -46.5737 H         1 UNK         0.3000 
    145 H145        0.6802  -19.8652  -47.4812 H         1 UNK         0.0600 
    146 H146        1.4629  -17.4746  -47.4075 H         1 UNK         0.0600 
    147 H147        0.6614  -17.8856  -48.9166 H         1 UNK         0.0600 
    148 H148       -0.1864  -16.9347  -47.7158 H         1 UNK         0.0600 
    149 H149       -0.2057  -18.0321  -45.3868 H         1 UNK         0.3000 
    150 H150       -0.9545  -20.5460  -43.0189 H         1 UNK         0.0600 
    151 H151        1.4664  -20.7390  -42.7883 H         1 UNK         0.0600 
    152 H152        0.8836  -19.5355  -41.6460 H         1 UNK         0.0600 
    153 H153        1.6884  -19.0339  -43.1316 H         1 UNK         0.0600 
    154 H154       -0.4970  -17.7016  -42.8108 H         1 UNK         0.3000 
    155 H155       -3.8940  -16.8531  -43.6714 H         1 UNK         0.0600 
    156 H156       -2.3307  -16.7223  -41.0389 H         1 UNK         0.0600 
    157 H157       -3.8766  -17.5383  -41.2536 H         1 UNK         0.0600 
    158 H158       -3.7738  -15.7946  -41.4450 H         1 UNK         0.0600 
    159 H159       -1.9775  -15.0358  -42.9340 H         1 UNK         0.3000 
    160 H160       -0.2583  -14.5427  -45.9960 H         1 UNK         0.0600 
    161 H161       -1.3425  -12.3862  -45.9804 H         1 UNK         0.0600 
    162 H162       -2.3620  -12.8097  -44.6045 H         1 UNK         0.0600 
    163 H163       -2.6132  -13.5741  -46.1578 H         1 UNK         0.0600 
    164 H164        1.0831  -14.0104  -44.3683 H         1 UNK         0.3000 
    165 H165        1.5858  -12.5081  -42.1315 H         1 UNK         0.0600 
    166 H166        1.6586  -13.3678  -39.7861 H         1 UNK         0.0600 
    167 H167        0.0970  -12.6527  -40.1514 H         1 UNK         0.0600 
    168 H168        0.2706  -14.4044  -40.1129 H         1 UNK         0.0600 
    169 H169        3.0820  -14.1237  -42.2552 H         1 UNK         0.3000 
    170 H170        3.1376  -17.6074  -41.9309 H         1 UNK         0.0600 
    171 H171        2.5966  -17.3864  -44.3964 H         1 UNK         0.0600 
    172 H172        3.6410  -15.9845  -44.4692 H         1 UNK         0.0600 
    173 H173        4.3265  -17.5708  -44.1199 H         1 UNK         0.0600 
    174 H174        5.1172  -15.6240  -42.5866 H         1 UNK         0.3000 
    175 H175        5.5845  -14.2623  -39.4100 H         1 UNK         0.0600 
    176 H176        6.7267  -16.4260  -38.8794 H         1 UNK         0.0600 
    177 H177        7.8840  -15.1914  -39.3471 H         1 UNK         0.0600 
    178 H178        7.4334  -16.4575  -40.4905 H         1 UNK         0.0600 
    179 H179        7.3498  -14.2573  -41.6135 H         1 UNK         0.3000 
    180 H180        6.2302  -11.2776  -42.9090 H         1 UNK         0.0600 
    181 H181        8.3561  -13.4781  -43.1723 H         1 UNK         0.0600 
    182 H182        8.3893  -12.1727  -41.9866 H         1 UNK         0.0600 
    183 H183        8.4939  -11.8070  -43.6976 H         1 UNK         0.0600 
    184 H184        5.7173  -11.9310  -44.9636 H         1 UNK         0.3000 
    185 H185        6.4356  -13.6950  -46.9450 H         1 UNK         0.0600 
    186 H186        5.8630  -16.1483  -46.5958 H         1 UNK         0.0600 
    187 H187        4.1601  -15.6983  -46.5903 H         1 UNK         0.0600 
    188 H188        5.1413  -15.4092  -48.0112 H         1 UNK         0.0600 
    189 H189        4.7833  -12.3662  -47.5172 H         1 UNK         0.3000 
    190 H190       -3.2943  -20.4195  -45.3492 H         1 UNK         0.3000 
    191 H191       -4.8927  -22.7337  -45.5156 H         1 UNK         0.0600 
    192 H192       -2.3261  -22.2739  -43.9086 H         1 UNK         0.0600 
    193 H193       -3.5147  -23.5338  -43.6104 H         1 UNK         0.0600 
    194 H194       -3.9563  -21.8476  -43.3893 H         1 UNK         0.0600 
    195 H195       -1.4043  -22.2949  -46.3602 H         1 UNK         0.3000 
    196 H196       -0.8862  -24.9550  -47.1284 H         1 UNK         0.0600 
    197 H197        1.0667  -23.9540  -48.3412 H         1 UNK         0.0600 
    198 H198        0.9077  -23.3201  -46.7112 H         1 UNK         0.0600 
    199 H199        0.3985  -22.3456  -48.0889 H         1 UNK         0.0600 
    200 H200       -2.0181  -22.1842  -49.1203 H         1 UNK         0.3000 
    201 H201       -2.0996  -23.4944  -51.6201 H         1 UNK         0.0600 
    202 H202       -2.2332  -21.0432  -51.3888 H         1 UNK         0.0600 
    203 H203       -3.7605  -21.1611  -50.5232 H         1 UNK         0.0600 
    204 H204       -3.6755  -21.6106  -52.2165 H         1 UNK         0.0600 
    205 H205       -4.5295  -23.3402  -49.0234 H         1 UNK         0.3000 
    206 H206       -6.5865  -24.7789  -50.4531 H         1 UNK         0.0600 
    207 H207       -7.1287  -23.2151  -48.6141 H         1 UNK         0.0600 
    208 H208       -7.6893  -24.8331  -48.2169 H         1 UNK         0.0600 
    209 H209       -6.2300  -24.1999  -47.4643 H         1 UNK         0.0600 
    210 H210       -4.2117  -25.7030  -47.8914 H         1 UNK         0.3000 
    211 H211       -5.0128  -28.3838  -47.6200 H         1 UNK         0.0600 
    212 H212       -2.3035  -27.0717  -47.0532 H         1 UNK         0.0600 
    213 H213       -2.8133  -28.6430  -46.4453 H         1 UNK         0.0600 
    214 H214       -3.6597  -27.1922  -45.9326 H         1 UNK         0.0600 
    215 H215       -2.6162  -26.9493  -49.8416 H         1 UNK         0.3000 
    216 H216       -1.6924  -29.4473  -50.9540 H         1 UNK         0.0600 
    217 H217       -0.6705  -27.9344  -52.6623 H         1 UNK         0.0600 
    218 H218       -0.3650  -27.3414  -51.0379 H         1 UNK         0.0600 
    219 H219       -1.6003  -26.5773  -52.0370 H         1 UNK         0.0600 
    220 H220       -4.6696  -27.8249  -51.2721 H         1 UNK         0.3000 
    221 H221       -6.4122  -27.8098  -52.6014 H         1 UNK         0.0600 
    222 H222       -7.0108  -29.7991  -53.9063 H         1 UNK         0.0600 
    223 H223       -6.2842  -30.3102  -52.3921 H         1 UNK         0.0600 
    224 H224       -5.3530  -30.3807  -53.8881 H         1 UNK         0.0600 
    225 H225       -3.9858  -26.4001  -53.3825 H         1 UNK         0.3000 
    226 H226       -3.8644  -26.3965  -56.3115 H         1 UNK         0.0600 
    227 H227       -1.8001  -26.0907  -54.9631 H         1 UNK         0.0600 
    228 H228       -2.1251  -24.6474  -55.9112 H         1 UNK         0.0600 
    229 H229       -2.4815  -24.6625  -54.1878 H         1 UNK         0.0600 
    230 H230       -5.1625  -24.4177  -53.6730 H         1 UNK         0.3000 
    231 H231       -6.4376  -22.6162  -53.4995 H         1 UNK         0.0600 
    232 H232       -8.1132  -23.9921  -54.7558 H         1 UNK         0.0600 
    233 H233       -7.5508  -23.2943  -56.2740 H         1 UNK         0.0600 
    234 H234       -8.3121  -22.2744  -55.0616 H         1 UNK         0.0600 
    235 H235       -3.8175  -22.2657  -54.3499 H         1 UNK         0.3000 
    236 H236       -3.3984  -20.4478  -56.4549 H         1 UNK         0.0600 
    237 H237       -1.6087  -21.8299  -55.4007 H         1 UNK         0.0600 
    238 H238       -1.1770  -20.1286  -55.3426 H         1 UNK         0.0600 
    239 H239       -1.7699  -20.9266  -53.8941 H         1 UNK         0.0600 
    240 H240       -2.8723  -18.2508  -56.4544 H         1 UNK         0.3000 
    241 H241       -2.9987  -16.1084  -56.0682 H         1 UNK         0.0600 
    242 H242       -6.8887  -16.6123  -55.9723 H         1 UNK         0.3800 
    243 H243       -5.7295  -17.9081  -56.1088 H         1 UNK         0.3800 
    244 H244       -3.4793  -16.5499  -53.0983 H         1 UNK         0.0800 
    245 H245       -2.9268  -15.0854  -53.8507 H         1 UNK         0.0800 
    246 H246       -0.1780  -17.9125  -51.9031 H         1 UNK         0.0800 
    247 H247       -1.8151  -18.4305  -52.2294 H         1 UNK         0.0800 
@<TRIPOS>BOND
     1    1    2 1    
     2    1  127 1    
     3    1  128 1    
     4    1  129 1    
     5    2    3 2    
     6    2    4 am   BACKBONE|DICT|INTERRES
     7    4    5 1    
     8    4  130 1    
     9    5    6 1    
    10    5   65 1    
    11    5  131 1    
    12    6    7 1    
    13    6  132 1    
    14    6  133 1    
    15    7    8 1    
    16    8    9 1    
    17    8  134 1    
    18    8  135 1    
    19    9   10 ar   
    20    9   14 ar   
    21   10   11 ar   
    22   10  136 1    
    23   11   12 ar   
    24   11  126 1    
    25   12   13 ar   
    26   12  137 1    
    27   13   14 ar   
    28   13   15 1    
    29   14  138 1    
    30   15   16 1    
    31   15  139 1    
    32   15  140 1    
    33   16   17 1    
    34   17   18 1    
    35   17  141 1    
    36   17  142 1    
    37   18   19 1    
    38   18   67 1    
    39   18  143 1    
    40   19   20 am   BACKBONE|DICT|INTERRES
    41   19  144 1    
    42   20   21 2    
    43   20   22 1    
    44   22   23 1    
    45   22   24 1    
    46   22  145 1    
    47   23  146 1    
    48   23  147 1    
    49   23  148 1    
    50   24   25 am   BACKBONE|DICT|INTERRES
    51   24  149 1    
    52   25   26 2    
    53   25   27 1    
    54   27   28 1    
    55   27   29 1    
    56   27  150 1    
    57   28  151 1    
    58   28  152 1    
    59   28  153 1    
    60   29   30 am   BACKBONE|DICT|INTERRES
    61   29  154 1    
    62   30   31 2    
    63   30   32 1    
    64   32   33 1    
    65   32   34 1    
    66   32  155 1    
    67   33  156 1    
    68   33  157 1    
    69   33  158 1    
    70   34   35 am   BACKBONE|DICT|INTERRES
    71   34  159 1    
    72   35   36 2    
    73   35   37 1    
    74   37   38 1    
    75   37   39 1    
    76   37  160 1    
    77   38  161 1    
    78   38  162 1    
    79   38  163 1    
    80   39   40 am   BACKBONE|DICT|INTERRES
    81   39  164 1    
    82   40   41 2    
    83   40   42 1    
    84   42   43 1    
    85   42   44 1    
    86   42  165 1    
    87   43  166 1    
    88   43  167 1    
    89   43  168 1    
    90   44   45 am   BACKBONE|DICT|INTERRES
    91   44  169 1    
    92   45   46 2    
    93   45   47 1    
    94   47   48 1    
    95   47   49 1    
    96   47  170 1    
    97   48  171 1    
    98   48  172 1    
    99   48  173 1    
   100   49   50 am   BACKBONE|DICT|INTERRES
   101   49  174 1    
   102   50   51 2    
   103   50   52 1    
   104   52   53 1    
   105   52   54 1    
   106   52  175 1    
   107   53  176 1    
   108   53  177 1    
   109   53  178 1    
   110   54   55 am   BACKBONE|DICT|INTERRES
   111   54  179 1    
   112   55   56 2    
   113   55   57 1    
   114   57   58 1    
   115   57   59 1    
   116   57  180 1    
   117   58  181 1    
   118   58  182 1    
   119   58  183 1    
   120   59   60 am   BACKBONE|DICT|INTERRES
   121   59  184 1    
   122   60   61 2    
   123   60   62 1    
   124   62   63 1    
   125   62   64 1    
   126   62  185 1    
   127   63  186 1    
   128   63  187 1    
   129   63  188 1    
   130   64   65 am   BACKBONE|DICT|INTERRES
   131   64  189 1    
   132   65   66 2    
   133   67   68 2    
   134   67   69 am   BACKBONE|DICT|INTERRES
   135   69   70 1    
   136   69  190 1    
   137   70   71 1    
   138   70   72 1    
   139   70  191 1    
   140   71  192 1    
   141   71  193 1    
   142   71  194 1    
   143   72   73 2    
   144   72   74 am   BACKBONE|DICT|INTERRES
   145   74   75 1    
   146   74  195 1    
   147   75   76 1    
   148   75   77 1    
   149   75  196 1    
   150   76  197 1    
   151   76  198 1    
   152   76  199 1    
   153   77   78 2    
   154   77   79 am   BACKBONE|DICT|INTERRES
   155   79   80 1    
   156   79  200 1    
   157   80   81 1    
   158   80   82 1    
   159   80  201 1    
   160   81  202 1    
   161   81  203 1    
   162   81  204 1    
   163   82   83 2    
   164   82   84 am   BACKBONE|DICT|INTERRES
   165   84   85 1    
   166   84  205 1    
   167   85   86 1    
   168   85   87 1    
   169   85  206 1    
   170   86  207 1    
   171   86  208 1    
   172   86  209 1    
   173   87   88 2    
   174   87   89 am   BACKBONE|DICT|INTERRES
   175   89   90 1    
   176   89  210 1    
   177   90   91 1    
   178   90   92 1    
   179   90  211 1    
   180   91  212 1    
   181   91  213 1    
   182   91  214 1    
   183   92   93 2    
   184   92   94 am   BACKBONE|DICT|INTERRES
   185   94   95 1    
   186   94  215 1    
   187   95   96 1    
   188   95   97 1    
   189   95  216 1    
   190   96  217 1    
   191   96  218 1    
   192   96  219 1    
   193   97   98 2    
   194   97   99 am   BACKBONE|DICT|INTERRES
   195   99  100 1    
   196   99  220 1    
   197  100  101 1    
   198  100  102 1    
   199  100  221 1    
   200  101  222 1    
   201  101  223 1    
   202  101  224 1    
   203  102  103 2    
   204  102  104 am   BACKBONE|DICT|INTERRES
   205  104  105 1    
   206  104  225 1    
   207  105  106 1    
   208  105  107 1    
   209  105  226 1    
   210  106  227 1    
   211  106  228 1    
   212  106  229 1    
   213  107  108 2    
   214  107  109 am   BACKBONE|DICT|INTERRES
   215  109  110 1    
   216  109  230 1    
   217  110  111 1    
   218  110  112 1    
   219  110  231 1    
   220  111  232 1    
   221  111  233 1    
   222  111  234 1    
   223  112  113 2    
   224  112  114 am   BACKBONE|DICT|INTERRES
   225  114  115 1    
   226  114  235 1    
   227  115  116 1    
   228  115  117 1    
   229  115  236 1    
   230  116  237 1    
   231  116  238 1    
   232  116  239 1    
   233  117  118 2    
   234  117  119 am   BACKBONE|DICT|INTERRES
   235  119  120 1    
   236  119  240 1    
   237  120  121 1    
   238  120  124 1    
   239  120  241 1    
   240  121  122 am   BACKBONE|DICT|INTERRES
   241  121  123 2    
   242  122  242 1    
   243  122  243 1    
   244  124  125 1    
   245  124  244 1    
   246  124  245 1    
   247  125  126 1    
   248  126  246 1    
   249  126  247 1    
@<TRIPOS>SUBSTRUCTURE
     1 UNK         1 GROUP             0       ****    0 ROOT    
