@<TRIPOS>MOLECULE
3R540
247   249    1
SMALL
USER_CHARGES


@<TRIPOS>ATOM
      1 CA         -2.1070  -14.4621  -44.4926 C.3       0 UNK        -0.1800 
      2 C          -1.6076  -13.4267  -45.4890 C.2       0 UNK         0.5000 
      3 O          -1.7453  -12.2261  -45.2511 O.2       0 UNK        -0.5000 
      4 N          -1.0224  -13.8885  -46.6011 N.am      1 UNK        -0.5000 
      5 CA         -0.4009  -13.0578  -47.6398 C.3       1 UNK         0.1400 
      6 C6          0.0281  -13.8831  -48.8796 C.3       23 UNK        -0.0398 
      7 S7         -1.4050  -14.6390  -49.7214 S.3       23 UNK        -0.2404 
      8 C8         -1.3876  -16.3492  -49.0946 C.3       23 UNK        -0.0205 
      9 C9         -0.5917  -17.2848  -49.9923 C.ar      23 UNK        -0.0193 
     10 C10        -1.2056  -17.8676  -51.1056 C.ar      23 UNK        -0.1150 
     11 C11        -0.4919  -18.7337  -51.9377 C.ar      23 UNK        -0.0193 
     12 C12         0.8463  -19.0113  -51.6515 C.ar      23 UNK        -0.1150 
     13 C13         1.4672  -18.4541  -50.5320 C.ar      23 UNK        -0.0193 
     14 C14         0.7433  -17.5888  -49.7048 C.ar      23 UNK        -0.1150 
     15 C15         2.9271  -18.7750  -50.2424 C.3       23 UNK        -0.0205 
     16 S16         3.1659  -20.4982  -49.6955 S.3       23 UNK        -0.2404 
     17 C17         2.4811  -20.4297  -48.0082 C.3       23 UNK        -0.0398 
     18 CA          1.6580  -21.6776  -47.6117 C.3       11 UNK         0.1400 
     19 N           1.4271  -21.7240  -46.1663 N.am      11 UNK        -0.5000 
     20 C           0.9036  -22.7627  -45.5002 C.2       10 UNK         0.5000 
     21 O           0.6502  -23.8508  -46.0166 O.2       10 UNK        -0.5000 
     22 CA          0.5748  -22.5351  -44.0119 C.3       10 UNK         0.1400 
     23 CB          1.7959  -22.8432  -43.1329 C.3       10 UNK        -0.1800 
     24 N           0.1031  -21.1761  -43.7341 N.am      10 UNK        -0.5000 
     25 C          -1.0357  -20.6534  -44.2139 C.2       9 UNK         0.5000 
     26 O          -1.8398  -21.2832  -44.8996 O.2       9 UNK        -0.5000 
     27 CA         -1.2799  -19.1568  -43.9458 C.3       9 UNK         0.1400 
     28 CB         -1.7698  -18.9121  -42.5109 C.3       9 UNK        -0.1800 
     29 N          -0.0799  -18.3618  -44.2067 N.am      9 UNK        -0.5000 
     30 C           0.4565  -18.1966  -45.4238 C.2       8 UNK         0.5000 
     31 O          -0.0600  -18.6138  -46.4576 O.2       8 UNK        -0.5000 
     32 CA          1.8170  -17.4893  -45.5051 C.3       8 UNK         0.1400 
     33 CB          1.6388  -16.0078  -45.8434 C.3       8 UNK        -0.1800 
     34 N           2.5956  -17.6413  -44.2778 N.am      8 UNK        -0.5000 
     35 C           3.2390  -18.7703  -43.9509 C.2       7 UNK         0.5000 
     36 O           3.2346  -19.7819  -44.6534 O.2       7 UNK        -0.5000 
     37 CA          3.9699  -18.7843  -42.5978 C.3       7 UNK         0.1400 
     38 CB          5.2644  -17.9601  -42.6695 C.3       7 UNK        -0.1800 
     39 N           3.1393  -18.2894  -41.4992 N.am      7 UNK        -0.5000 
     40 C           2.0395  -18.9028  -41.0400 C.2       6 UNK         0.5000 
     41 O           1.5747  -19.9327  -41.5267 O.2       6 UNK        -0.5000 
     42 CA          1.2954  -18.1999  -39.9001 C.3       6 UNK         0.1400 
     43 CB          2.1813  -17.9693  -38.6623 C.3       6 UNK        -0.1800 
     44 N           0.7990  -16.9391  -40.4273 N.am      6 UNK        -0.5000 
     45 C          -0.2732  -16.2610  -40.0208 C.2       5 UNK         0.5000 
     46 O          -0.9342  -16.5667  -39.0270 O.2       5 UNK        -0.5000 
     47 CA         -0.6858  -15.0587  -40.9036 C.3       5 UNK         0.1400 
     48 CB         -1.8102  -14.2173  -40.2743 C.3       5 UNK        -0.1800 
     49 N           0.4079  -14.1572  -41.2884 N.am      5 UNK        -0.5000 
     50 C           1.4346  -14.4130  -42.1101 C.2       4 UNK         0.5000 
     51 O           1.6525  -15.5232  -42.6007 O.2       4 UNK        -0.5000 
     52 CA          2.3512  -13.2210  -42.4471 C.3       4 UNK         0.1400 
     53 CB          3.5300  -13.6125  -43.3547 C.3       4 UNK        -0.1800 
     54 N           1.5970  -12.1446  -43.0906 N.am      4 UNK        -0.5000 
     55 C           0.8867  -11.2085  -42.4452 C.2       3 UNK         0.5000 
     56 O           0.7793  -11.1856  -41.2174 O.2       3 UNK        -0.5000 
     57 CA          0.1389  -10.1518  -43.2880 C.3       3 UNK         0.1400 
     58 CB          0.2341   -8.7385  -42.6764 C.3       3 UNK        -0.1800 
     59 N           0.4997  -10.1428  -44.7106 N.am      3 UNK        -0.5000 
     60 C           1.6701   -9.7978  -45.2724 C.2       2 UNK         0.5000 
     61 O           2.6357   -9.3748  -44.6355 O.2       2 UNK        -0.5000 
     62 CA          1.7761   -9.9675  -46.8079 C.3       2 UNK         0.1400 
     63 CB          3.2180  -10.2615  -47.2738 C.3       2 UNK        -0.1800 
     64 N           0.8379  -10.9584  -47.3583 N.am      2 UNK        -0.5000 
     65 C           0.7846  -12.2631  -47.0523 C.2       1 UNK         0.5000 
     66 O           1.5821  -12.8236  -46.2977 O.2       1 UNK        -0.5000 
     67 C           0.3295  -21.7830  -48.3915 C.2       11 UNK         0.5000 
     68 O           0.1983  -22.6593  -49.2453 O.2       11 UNK        -0.5000 
     69 N          -0.6476  -20.9318  -48.0441 N.am      12 UNK        -0.5000 
     70 CA         -1.9848  -20.8946  -48.6405 C.3       12 UNK         0.1400 
     71 CB         -2.7657  -19.7134  -48.0472 C.3       12 UNK        -0.1800 
     72 C          -2.7715  -22.2034  -48.4459 C.2       12 UNK         0.5000 
     73 O          -3.4692  -22.6440  -49.3627 O.2       12 UNK        -0.5000 
     74 N          -2.6203  -22.8229  -47.2663 N.am      13 UNK        -0.5000 
     75 CA         -3.2439  -24.0902  -46.8780 C.3       13 UNK         0.1400 
     76 CB         -2.9072  -24.4026  -45.4130 C.3       13 UNK        -0.1800 
     77 C          -2.8884  -25.2864  -47.7833 C.2       13 UNK         0.5000 
     78 O          -3.6591  -26.2461  -47.8229 O.2       13 UNK        -0.5000 
     79 N          -1.7869  -25.1942  -48.5458 N.am      14 UNK        -0.5000 
     80 CA         -1.4024  -26.1601  -49.5809 C.3       14 UNK         0.1400 
     81 CB         -0.0170  -25.7934  -50.1323 C.3       14 UNK        -0.1800 
     82 C          -2.4247  -26.2731  -50.7330 C.2       14 UNK         0.5000 
     83 O          -2.4704  -27.3112  -51.3935 O.2       14 UNK        -0.5000 
     84 N          -3.2405  -25.2283  -50.9299 N.am      15 UNK        -0.5000 
     85 CA         -4.3878  -25.2110  -51.8349 C.3       15 UNK         0.1400 
     86 CB         -4.0848  -24.2917  -53.0278 C.3       15 UNK        -0.1800 
     87 C          -5.6600  -24.7962  -51.0747 C.2       15 UNK         0.5000 
     88 O          -6.5128  -24.1106  -51.6383 O.2       15 UNK        -0.5000 
     89 N          -5.7563  -25.1915  -49.7944 N.am      16 UNK        -0.5000 
     90 CA         -6.8914  -24.9849  -48.8831 C.3       16 UNK         0.1400 
     91 CB         -8.0782  -25.8710  -49.3145 C.3       16 UNK        -0.1800 
     92 C          -7.3022  -23.5061  -48.6933 C.2       16 UNK         0.5000 
     93 O          -8.4661  -23.2259  -48.4026 O.2       16 UNK        -0.5000 
     94 N          -6.3403  -22.5893  -48.8758 N.am      17 UNK        -0.5000 
     95 CA         -6.4844  -21.1318  -48.8608 C.3       17 UNK         0.1400 
     96 CB         -6.8796  -20.6217  -47.4600 C.3       17 UNK        -0.1800 
     97 C          -7.3732  -20.5744  -49.9945 C.2       17 UNK         0.5000 
     98 O          -7.9089  -19.4730  -49.8632 O.2       17 UNK        -0.5000 
     99 N          -7.4842  -21.3147  -51.1086 N.am      18 UNK        -0.5000 
    100 CA        -8.2148  -20.9007  -52.3111 C.3       18 UNK         0.1400 
    101 CB        -8.5805  -22.1504  -53.1283 C.3       18 UNK        -0.1800 
    102 C         -7.4345  -19.8998  -53.1895 C.2       18 UNK         0.5000 
    103 O         -8.0139  -19.3575  -54.1312 O.2       18 UNK        -0.5000 
    104 N         -6.1417  -19.6934  -52.8866 N.am      19 UNK        -0.5000 
    105 CA        -5.1774  -18.8565  -53.6149 C.3       19 UNK         0.1400 
    106 CB        -5.5949  -17.3710  -53.5941 C.3       19 UNK        -0.1800 
    107 C         -4.8790  -19.3884  -55.0358 C.2       19 UNK         0.5000 
    108 O         -4.6290  -18.6028  -55.9518 O.2       19 UNK        -0.5000 
    109 N         -4.9337  -20.7184  -55.1876 N.am      20 UNK        -0.5000 
    110 CA        -4.7767  -21.4386  -56.4464 C.3       20 UNK         0.1400 
    111 CB        -5.8980  -22.4940  -56.5450 C.3       20 UNK        -0.1800 
    112 C         -3.3554  -22.0252  -56.5534 C.2       20 UNK         0.5000 
    113 O         -2.4131  -21.2838  -56.8305 O.2       20 UNK        -0.5000 
    114 N         -3.2258  -23.3439  -56.3539 N.am      21 UNK        -0.5000 
    115 CA        -2.0117  -24.1394  -56.5732 C.3       21 UNK         0.1400 
    116 CB        -2.4301  -25.6134  -56.7125 C.3       21 UNK        -0.1800 
    117 C         -0.9111  -23.9848  -55.4998 C.2       21 UNK         0.5000 
    118 O          0.1275  -24.6389  -55.6100 O.2       21 UNK        -0.5000 
    119 N         -1.1554  -23.1619  -54.4748 N.am      22 UNK        -0.5000 
    120 CA        -0.2217  -22.8362  -53.3879 C.3       22 UNK         0.1400 
    121 C          1.0946  -22.1479  -53.8553 C.2       22 UNK         0.5000 
    122 N          2.1528  -22.2314  -53.0595 N.am      22 UNK        -0.7600 
    123 O          1.1669  -21.5202  -54.9092 O.2       22 UNK        -0.5000 
    124 C124       -0.9172  -22.0521  -52.2385 C.3       23 UNK        -0.0398 
    125 S125       -2.1600  -20.8119  -52.7504 S.3       23 UNK        -0.2404 
    126 C126       -1.1561  -19.3483  -53.1595 C.3       23 UNK        -0.0205 
    127 H127       -3.1592  -14.6811  -44.6727 H         1 UNK         0.0600 
    128 H128       -2.0078  -14.0780  -43.4783 H         1 UNK         0.0600 
    129 H129       -1.5412  -15.3918  -44.5614 H         1 UNK         0.0600 
    130 H130       -0.9433  -14.8833  -46.7356 H         1 UNK         0.3000 
    131 H131       -1.1573  -12.3391  -47.9633 H         1 UNK         0.0600 
    132 H132        0.5192  -13.2355  -49.6081 H         1 UNK         0.0800 
    133 H133        0.7611  -14.6474  -48.6235 H         1 UNK         0.0800 
    134 H134       -2.4208  -16.6946  -49.0416 H         1 UNK         0.0800 
    135 H135       -1.0083  -16.3857  -48.0735 H         1 UNK         0.0800 
    136 H136       -2.2395  -17.6433  -51.3272 H         1 UNK         0.1150 
    137 H137        1.4096  -19.6683  -52.2975 H         1 UNK         0.1150 
    138 H138        1.2183  -17.1516  -48.8392 H         1 UNK         0.1150 
    139 H139        3.5107  -18.6127  -51.1497 H         1 UNK         0.0800 
    140 H140        3.3356  -18.0951  -49.4931 H         1 UNK         0.0800 
    141 H141        1.8794  -19.5301  -47.8997 H         1 UNK         0.0800 
    142 H142        3.3265  -20.3119  -47.3291 H         1 UNK         0.0800 
    143 H143        2.2518  -22.5597  -47.8613 H         1 UNK         0.0600 
    144 H144        1.6747  -20.8959  -45.6389 H         1 UNK         0.3000 
    145 H145       -0.2239  -23.2280  -43.7396 H         1 UNK         0.0600 
    146 H146        1.5475  -22.7673  -42.0742 H         1 UNK         0.0600 
    147 H147        2.1606  -23.8557  -43.3101 H         1 UNK         0.0600 
    148 H148        2.6192  -22.1564  -43.3322 H         1 UNK         0.0600 
    149 H149        0.6933  -20.6103  -43.1312 H         1 UNK         0.3000 
    150 H150       -2.0627  -18.8209  -44.6297 H         1 UNK         0.0600 
    151 H151       -1.0324  -19.2178  -41.7695 H         1 UNK         0.0600 
    152 H152       -1.9962  -17.8588  -42.3464 H         1 UNK         0.0600 
    153 H153       -2.6832  -19.4743  -42.3127 H         1 UNK         0.0600 
    154 H154        0.4205  -17.9988  -43.4102 H         1 UNK         0.3000 
    155 H155        2.3798  -17.9396  -46.3236 H         1 UNK         0.0600 
    156 H156        1.1027  -15.8969  -46.7825 H         1 UNK         0.0600 
    157 H157        2.6016  -15.5127  -45.9645 H         1 UNK         0.0600 
    158 H158        1.0715  -15.4726  -45.0834 H         1 UNK         0.0600 
    159 H159        2.5756  -16.8591  -43.6299 H         1 UNK         0.3000 
    160 H160        4.2381  -19.8199  -42.3776 H         1 UNK         0.0600 
    161 H161        5.0625  -16.9034  -42.8491 H         1 UNK         0.0600 
    162 H162        5.9078  -18.3134  -43.4764 H         1 UNK         0.0600 
    163 H163        5.8337  -18.0399  -41.7432 H         1 UNK         0.0600 
    164 H164        3.4424  -17.4347  -41.0564 H         1 UNK         0.3000 
    165 H165        0.4501  -18.8303  -39.6157 H         1 UNK         0.0600 
    166 H166        1.6000  -17.5556  -37.8382 H         1 UNK         0.0600 
    167 H167        2.6160  -18.9068  -38.3138 H         1 UNK         0.0600 
    168 H168        3.0005  -17.2794  -38.8668 H         1 UNK         0.0600 
    169 H169        1.2615  -16.5909  -41.2655 H         1 UNK         0.3000 
    170 H170       -1.0812  -15.4950  -41.8221 H         1 UNK         0.0600 
    171 H171       -2.6856  -14.8294  -40.0529 H         1 UNK         0.0600 
    172 H172       -1.4872  -13.7523  -39.3421 H         1 UNK         0.0600 
    173 H173       -2.1358  -13.4249  -40.9485 H         1 UNK         0.0600 
    174 H174        0.3409  -13.2091  -40.9349 H         1 UNK         0.3000 
    175 H175        2.7697  -12.8591  -41.5057 H         1 UNK         0.0600 
    176 H176        3.1892  -13.9543  -44.3311 H         1 UNK         0.0600 
    177 H177        4.1981  -12.7663  -43.5156 H         1 UNK         0.0600 
    178 H178        4.1217  -14.4137  -42.9105 H         1 UNK         0.0600 
    179 H179        1.6003  -12.1407  -44.1035 H         1 UNK         0.3000 
    180 H180       -0.9111  -10.4456  -43.2559 H         1 UNK         0.0600 
    181 H181        1.2671   -8.4021  -42.5860 H         1 UNK         0.0600 
    182 H182       -0.2019   -8.7151  -41.6771 H         1 UNK         0.0600 
    183 H183       -0.3061   -8.0095  -43.2804 H         1 UNK         0.0600 
    184 H184       -0.2148  -10.5239  -45.3187 H         1 UNK         0.3000 
    185 H185        1.4849   -9.0063  -47.2335 H         1 UNK         0.0600 
    186 H186        3.8896   -9.4444  -47.0083 H         1 UNK         0.0600 
    187 H187        3.6151  -11.1693  -46.8187 H         1 UNK         0.0600 
    188 H188        3.2666  -10.3796  -48.3562 H         1 UNK         0.0600 
    189 H189        0.1297  -10.5802  -47.9729 H         1 UNK         0.3000 
    190 H190       -0.4527  -20.2165  -47.3480 H         1 UNK         0.3000 
    191 H191       -1.8610  -20.7238  -49.7108 H         1 UNK         0.0600 
    192 H192       -3.0649  -19.8994  -47.0150 H         1 UNK         0.0600 
    193 H193       -3.6644  -19.5048  -48.6251 H         1 UNK         0.0600 
    194 H194       -2.1671  -18.8063  -48.0530 H         1 UNK         0.0600 
    195 H195       -2.0773  -22.3531  -46.5475 H         1 UNK         0.3000 
    196 H196       -4.3239  -23.9488  -46.9494 H         1 UNK         0.0600 
    197 H197       -3.3895  -25.3255  -45.0882 H         1 UNK         0.0600 
    198 H198       -3.2516  -23.6091  -44.7499 H         1 UNK         0.0600 
    199 H199       -1.8348  -24.5245  -45.2647 H         1 UNK         0.0600 
    200 H200       -1.2096  -24.3659  -48.4661 H         1 UNK         0.3000 
    201 H201       -1.3327  -27.1406  -49.1057 H         1 UNK         0.0600 
    202 H202        0.7181  -25.7014  -49.3324 H         1 UNK         0.0600 
    203 H203       -0.0400  -24.8503  -50.6780 H         1 UNK         0.0600 
    204 H204        0.3433  -26.5587  -50.8208 H         1 UNK         0.0600 
    205 H205       -3.1407  -24.4095  -50.3375 H         1 UNK         0.3000 
    206 H206       -4.5849  -26.2124  -52.2222 H         1 UNK         0.0600 
    207 H207       -3.2105  -24.6500  -53.5673 H         1 UNK         0.0600 
    208 H208       -4.9149  -24.2745  -53.7340 H         1 UNK         0.0600 
    209 H209       -3.8971  -23.2673  -52.7069 H         1 UNK         0.0600 
    210 H210       -4.9893  -25.7283  -49.4053 H         1 UNK         0.3000 
    211 H211       -6.5597  -25.3312  -47.9033 H         1 UNK         0.0600 
    212 H212       -8.4990  -25.5443  -50.2662 H         1 UNK         0.0600 
    213 H213       -8.8796  -25.8452  -48.5753 H         1 UNK         0.0600 
    214 H214       -7.7741  -26.9122  -49.4221 H         1 UNK         0.0600 
    215 H215       -5.4131  -22.9150  -49.1308 H         1 UNK         0.3000 
    216 H216       -5.4900  -20.7451  -49.0740 H         1 UNK         0.0600 
    217 H217       -6.8227  -19.5338  -47.4090 H         1 UNK         0.0600 
    218 H218       -6.2095  -21.0150  -46.6954 H         1 UNK         0.0600 
    219 H219       -7.8979  -20.9073  -47.1957 H         1 UNK         0.0600 
    220 H220       -7.0496  -22.2324  -51.1433 H         1 UNK         0.3000 
    221 H221       -9.1433  -20.4144  -52.0050 H         1 UNK         0.0600 
    222 H222       -7.6942  -22.6401  -53.5333 H         1 UNK         0.0600 
    223 H223       -9.1183  -22.8784  -52.5204 H         1 UNK         0.0600 
    224 H224       -9.2230  -21.8924  -53.9710 H         1 UNK         0.0600 
    225 H225       -5.7711  -20.1983  -52.0951 H         1 UNK         0.3000 
    226 H226       -4.2441  -18.9217  -53.0590 H         1 UNK         0.0600 
    227 H227       -6.4816  -17.1874  -54.2012 H         1 UNK         0.0600 
    228 H228       -5.8066  -17.0353  -52.5790 H         1 UNK         0.0600 
    229 H229       -4.7974  -16.7376  -53.9841 H         1 UNK         0.0600 
    230 H230       -5.1162  -21.2789  -54.3691 H         1 UNK         0.3000 
    231 H231       -4.8991  -20.7553  -57.2894 H         1 UNK         0.0600 
    232 H232       -6.8763  -22.0133  -56.5707 H         1 UNK         0.0600 
    233 H233       -5.8982  -23.1817  -55.6990 H         1 UNK         0.0600 
    234 H234       -5.8086  -23.0824  -57.4593 H         1 UNK         0.0600 
    235 H235       -4.0562  -23.8693  -56.1242 H         1 UNK         0.3000 
    236 H236       -1.5700  -23.8238  -57.5206 H         1 UNK         0.0600 
    237 H237       -1.5741  -26.2474  -56.9469 H         1 UNK         0.0600 
    238 H238       -2.8764  -25.9926  -55.7923 H         1 UNK         0.0600 
    239 H239       -3.1543  -25.7446  -57.5168 H         1 UNK         0.0600 
    240 H240       -2.0074  -22.6220  -54.4902 H         1 UNK         0.3000 
    241 H241        0.0879  -23.7972  -52.9725 H         1 UNK         0.0600 
    242 H242        2.1224  -22.7257  -52.1814 H         1 UNK         0.3800 
    243 H243        3.0125  -21.7903  -53.3457 H         1 UNK         0.3800 
    244 H244       -1.4488  -22.7672  -51.6094 H         1 UNK         0.0800 
    245 H245       -0.1917  -21.5853  -51.5731 H         1 UNK         0.0800 
    246 H246       -1.8005  -18.6042  -53.6293 H         1 UNK         0.0800 
    247 H247       -0.4132  -19.6090  -53.9130 H         1 UNK         0.0800 
@<TRIPOS>BOND
     1    1    2 1    
     2    1  127 1    
     3    1  128 1    
     4    1  129 1    
     5    2    3 2    
     6    2    4 am   BACKBONE|DICT|INTERRES
     7    4    5 1    
     8    4  130 1    
     9    5    6 1    
    10    5   65 1    
    11    5  131 1    
    12    6    7 1    
    13    6  132 1    
    14    6  133 1    
    15    7    8 1    
    16    8    9 1    
    17    8  134 1    
    18    8  135 1    
    19    9   10 ar   
    20    9   14 ar   
    21   10   11 ar   
    22   10  136 1    
    23   11   12 ar   
    24   11  126 1    
    25   12   13 ar   
    26   12  137 1    
    27   13   14 ar   
    28   13   15 1    
    29   14  138 1    
    30   15   16 1    
    31   15  139 1    
    32   15  140 1    
    33   16   17 1    
    34   17   18 1    
    35   17  141 1    
    36   17  142 1    
    37   18   19 1    
    38   18   67 1    
    39   18  143 1    
    40   19   20 am   BACKBONE|DICT|INTERRES
    41   19  144 1    
    42   20   21 2    
    43   20   22 1    
    44   22   23 1    
    45   22   24 1    
    46   22  145 1    
    47   23  146 1    
    48   23  147 1    
    49   23  148 1    
    50   24   25 am   BACKBONE|DICT|INTERRES
    51   24  149 1    
    52   25   26 2    
    53   25   27 1    
    54   27   28 1    
    55   27   29 1    
    56   27  150 1    
    57   28  151 1    
    58   28  152 1    
    59   28  153 1    
    60   29   30 am   BACKBONE|DICT|INTERRES
    61   29  154 1    
    62   30   31 2    
    63   30   32 1    
    64   32   33 1    
    65   32   34 1    
    66   32  155 1    
    67   33  156 1    
    68   33  157 1    
    69   33  158 1    
    70   34   35 am   BACKBONE|DICT|INTERRES
    71   34  159 1    
    72   35   36 2    
    73   35   37 1    
    74   37   38 1    
    75   37   39 1    
    76   37  160 1    
    77   38  161 1    
    78   38  162 1    
    79   38  163 1    
    80   39   40 am   BACKBONE|DICT|INTERRES
    81   39  164 1    
    82   40   41 2    
    83   40   42 1    
    84   42   43 1    
    85   42   44 1    
    86   42  165 1    
    87   43  166 1    
    88   43  167 1    
    89   43  168 1    
    90   44   45 am   BACKBONE|DICT|INTERRES
    91   44  169 1    
    92   45   46 2    
    93   45   47 1    
    94   47   48 1    
    95   47   49 1    
    96   47  170 1    
    97   48  171 1    
    98   48  172 1    
    99   48  173 1    
   100   49   50 am   BACKBONE|DICT|INTERRES
   101   49  174 1    
   102   50   51 2    
   103   50   52 1    
   104   52   53 1    
   105   52   54 1    
   106   52  175 1    
   107   53  176 1    
   108   53  177 1    
   109   53  178 1    
   110   54   55 am   BACKBONE|DICT|INTERRES
   111   54  179 1    
   112   55   56 2    
   113   55   57 1    
   114   57   58 1    
   115   57   59 1    
   116   57  180 1    
   117   58  181 1    
   118   58  182 1    
   119   58  183 1    
   120   59   60 am   BACKBONE|DICT|INTERRES
   121   59  184 1    
   122   60   61 2    
   123   60   62 1    
   124   62   63 1    
   125   62   64 1    
   126   62  185 1    
   127   63  186 1    
   128   63  187 1    
   129   63  188 1    
   130   64   65 am   BACKBONE|DICT|INTERRES
   131   64  189 1    
   132   65   66 2    
   133   67   68 2    
   134   67   69 am   BACKBONE|DICT|INTERRES
   135   69   70 1    
   136   69  190 1    
   137   70   71 1    
   138   70   72 1    
   139   70  191 1    
   140   71  192 1    
   141   71  193 1    
   142   71  194 1    
   143   72   73 2    
   144   72   74 am   BACKBONE|DICT|INTERRES
   145   74   75 1    
   146   74  195 1    
   147   75   76 1    
   148   75   77 1    
   149   75  196 1    
   150   76  197 1    
   151   76  198 1    
   152   76  199 1    
   153   77   78 2    
   154   77   79 am   BACKBONE|DICT|INTERRES
   155   79   80 1    
   156   79  200 1    
   157   80   81 1    
   158   80   82 1    
   159   80  201 1    
   160   81  202 1    
   161   81  203 1    
   162   81  204 1    
   163   82   83 2    
   164   82   84 am   BACKBONE|DICT|INTERRES
   165   84   85 1    
   166   84  205 1    
   167   85   86 1    
   168   85   87 1    
   169   85  206 1    
   170   86  207 1    
   171   86  208 1    
   172   86  209 1    
   173   87   88 2    
   174   87   89 am   BACKBONE|DICT|INTERRES
   175   89   90 1    
   176   89  210 1    
   177   90   91 1    
   178   90   92 1    
   179   90  211 1    
   180   91  212 1    
   181   91  213 1    
   182   91  214 1    
   183   92   93 2    
   184   92   94 am   BACKBONE|DICT|INTERRES
   185   94   95 1    
   186   94  215 1    
   187   95   96 1    
   188   95   97 1    
   189   95  216 1    
   190   96  217 1    
   191   96  218 1    
   192   96  219 1    
   193   97   98 2    
   194   97   99 am   BACKBONE|DICT|INTERRES
   195   99  100 1    
   196   99  220 1    
   197  100  101 1    
   198  100  102 1    
   199  100  221 1    
   200  101  222 1    
   201  101  223 1    
   202  101  224 1    
   203  102  103 2    
   204  102  104 am   BACKBONE|DICT|INTERRES
   205  104  105 1    
   206  104  225 1    
   207  105  106 1    
   208  105  107 1    
   209  105  226 1    
   210  106  227 1    
   211  106  228 1    
   212  106  229 1    
   213  107  108 2    
   214  107  109 am   BACKBONE|DICT|INTERRES
   215  109  110 1    
   216  109  230 1    
   217  110  111 1    
   218  110  112 1    
   219  110  231 1    
   220  111  232 1    
   221  111  233 1    
   222  111  234 1    
   223  112  113 2    
   224  112  114 am   BACKBONE|DICT|INTERRES
   225  114  115 1    
   226  114  235 1    
   227  115  116 1    
   228  115  117 1    
   229  115  236 1    
   230  116  237 1    
   231  116  238 1    
   232  116  239 1    
   233  117  118 2    
   234  117  119 am   BACKBONE|DICT|INTERRES
   235  119  120 1    
   236  119  240 1    
   237  120  121 1    
   238  120  124 1    
   239  120  241 1    
   240  121  122 am   BACKBONE|DICT|INTERRES
   241  121  123 2    
   242  122  242 1    
   243  122  243 1    
   244  124  125 1    
   245  124  244 1    
   246  124  245 1    
   247  125  126 1    
   248  126  246 1    
   249  126  247 1    
@<TRIPOS>SUBSTRUCTURE
     1 UNK         1 GROUP             0       ****    0 ROOT    
