@<TRIPOS>MOLECULE
3R540
247   249    1
SMALL
USER_CHARGES


@<TRIPOS>ATOM
      1 CA         -4.1157  -14.2660  -53.3300 C.3       0 UNK        -0.1800 
      2 C          -3.2591  -14.0045  -52.0989 C.2       0 UNK         0.5000 
      3 O          -2.7503  -12.8960  -51.9289 O.2       0 UNK        -0.5000 
      4 N          -3.0894  -15.0241  -51.2507 N.am      1 UNK        -0.5000 
      5 CA         -2.3281  -14.9611  -49.9987 C.3       1 UNK         0.1400 
      6 C6         -2.0402  -16.3717  -49.4352 C.3       23 UNK        -0.0398 
      7 S7         -0.9706  -17.3641  -50.5185 S.3       23 UNK        -0.2404 
      8 C8          0.5690  -17.3539  -49.5546 C.3       23 UNK        -0.0205 
      9 C9          1.5905  -18.3033  -50.1498 C.ar      23 UNK        -0.0193 
     10 C10         2.6870  -17.8192  -50.8656 C.ar      23 UNK        -0.1150 
     11 C11         3.6372  -18.7026  -51.3877 C.ar      23 UNK        -0.0193 
     12 C12         3.4963  -20.0768  -51.1658 C.ar      23 UNK        -0.1150 
     13 C13         2.3939  -20.5699  -50.4613 C.ar      23 UNK        -0.0193 
     14 C14         1.4396  -19.6778  -49.9698 C.ar      23 UNK        -0.1150 
     15 C15         2.2115  -22.0642  -50.2522 C.3       23 UNK        -0.0205 
     16 S16         3.0627  -22.6828  -48.7627 S.3       23 UNK        -0.2404 
     17 C17         2.2367  -21.8180  -47.3787 C.3       23 UNK        -0.0398 
     18 CA          0.9731  -22.5481  -46.8555 C.3       11 UNK         0.1400 
     19 N           0.7890  -22.3822  -45.4119 N.am      11 UNK        -0.5000 
     20 C          -0.0962  -23.0744  -44.6800 C.2       10 UNK         0.5000 
     21 O          -0.8078  -23.9714  -45.1355 O.2       10 UNK        -0.5000 
     22 CA         -0.2446  -22.6628  -43.2040 C.3       10 UNK         0.1400 
     23 CB          0.8772  -23.2723  -42.3502 C.3       10 UNK        -0.1800 
     24 N          -0.2685  -21.2093  -43.0262 N.am      10 UNK        -0.5000 
     25 C          -1.2280  -20.4053  -43.5068 C.2       9 UNK         0.5000 
     26 O          -2.2195  -20.8150  -44.1094 O.2       9 UNK        -0.5000 
     27 CA         -1.0296  -18.8888  -43.3251 C.3       9 UNK         0.1400 
     28 CB         -1.4338  -18.4499  -41.9102 C.3       9 UNK        -0.1800 
     29 N           0.3421  -18.4604  -43.5959 N.am      9 UNK        -0.5000 
     30 C           0.9617  -18.5689  -44.7799 C.2       8 UNK         0.5000 
     31 O           0.4331  -19.0160  -45.7952 O.2       8 UNK        -0.5000 
     32 CA          2.4443  -18.1683  -44.8221 C.3       8 UNK         0.1400 
     33 CB          2.6009  -16.6429  -44.9264 C.3       8 UNK        -0.1800 
     34 N           3.1759  -18.6734  -43.6597 N.am      8 UNK        -0.5000 
     35 C           3.3926  -19.9739  -43.4113 C.2       7 UNK         0.5000 
     36 O           3.0267  -20.8835  -44.1554 O.2       7 UNK        -0.5000 
     37 CA          4.0959  -20.3146  -42.0855 C.3       7 UNK         0.1400 
     38 CB          5.6171  -20.1500  -42.2189 C.3       7 UNK        -0.1800 
     39 N           3.6127  -19.4955  -40.9733 N.am      7 UNK        -0.5000 
     40 C           2.3732  -19.5625  -40.4666 C.2       6 UNK         0.5000 
     41 O           1.5158  -20.3533  -40.8584 O.2       6 UNK        -0.5000 
     42 CA          2.0187  -18.5325  -39.3774 C.3       6 UNK         0.1400 
     43 CB          2.4620  -19.0315  -37.9942 C.3       6 UNK        -0.1800 
     44 N           2.5988  -17.2092  -39.6301 N.am      6 UNK        -0.5000 
     45 C           2.3081  -16.4536  -40.6962 C.2       5 UNK         0.5000 
     46 O           1.5162  -16.7953  -41.5802 O.2       5 UNK        -0.5000 
     47 CA          3.0536  -15.1195  -40.8251 C.3       5 UNK         0.1400 
     48 CB          4.4971  -15.3399  -41.3124 C.3       5 UNK        -0.1800 
     49 N           2.3264  -14.3063  -41.7880 N.am      5 UNK        -0.5000 
     50 C           2.3462  -12.9757  -41.8980 C.2       4 UNK         0.5000 
     51 O           3.0538  -12.2408  -41.2080 O.2       4 UNK        -0.5000 
     52 CA          1.4100  -12.3607  -42.9584 C.3       4 UNK         0.1400 
     53 CB          2.1958  -12.0179  -44.2334 C.3       4 UNK        -0.1800 
     54 N           0.2864  -13.2294  -43.3224 N.am      4 UNK        -0.5000 
     55 C          -0.7534  -13.5285  -42.5339 C.2       3 UNK         0.5000 
     56 O          -0.8922  -13.0811  -41.3944 O.2       3 UNK        -0.5000 
     57 CA         -1.8192  -14.4646  -43.1439 C.3       3 UNK         0.1400 
     58 CB         -2.9251  -14.8411  -42.1415 C.3       3 UNK        -0.1800 
     59 N          -2.4418  -13.8762  -44.3328 N.am      3 UNK        -0.5000 
     60 C          -1.8909  -13.8340  -45.5508 C.2       2 UNK         0.5000 
     61 O          -0.7742  -14.2951  -45.8098 O.2       2 UNK        -0.5000 
     62 CA         -2.7051  -13.1429  -46.6550 C.3       2 UNK         0.1400 
     63 CB         -2.4716  -11.6239  -46.6382 C.3       2 UNK        -0.1800 
     64 N          -2.2580  -13.6862  -47.9307 N.am      2 UNK        -0.5000 
     65 C          -3.0449  -14.1276  -48.9158 C.2       1 UNK         0.5000 
     66 O          -4.2681  -13.9697  -48.9475 O.2       1 UNK        -0.5000 
     67 C          -0.2975  -22.1383  -47.6290 C.2       11 UNK         0.5000 
     68 O          -0.7321  -22.8802  -48.5067 O.2       11 UNK        -0.5000 
     69 N          -0.9013  -20.9974  -47.2627 N.am      12 UNK        -0.5000 
     70 CA         -2.1528  -20.4910  -47.8290 C.3       12 UNK         0.1400 
     71 CB         -2.4857  -19.1204  -47.2249 C.3       12 UNK        -0.1800 
     72 C          -3.3318  -21.4575  -47.6352 C.2       12 UNK         0.5000 
     73 O          -4.0865  -21.6811  -48.5805 O.2       12 UNK        -0.5000 
     74 N          -3.4485  -22.0381  -46.4324 N.am      13 UNK        -0.5000 
     75 CA         -4.4396  -23.0596  -46.0932 C.3       13 UNK         0.1400 
     76 CB         -4.3361  -23.4142  -44.6024 C.3       13 UNK        -0.1800 
     77 C          -4.3161  -24.3160  -46.9735 C.2       13 UNK         0.5000 
     78 O          -5.3281  -24.7948  -47.4877 O.2       13 UNK        -0.5000 
     79 N          -3.0762  -24.7876  -47.1729 N.am      14 UNK        -0.5000 
     80 CA         -2.7452  -25.8905  -48.0769 C.3       14 UNK         0.1400 
     81 CB         -1.2814  -26.3066  -47.8672 C.3       14 UNK        -0.1800 
     82 C          -3.0189  -25.5505  -49.5555 C.2       14 UNK         0.5000 
     83 O          -3.5340  -26.3954  -50.2887 O.2       14 UNK        -0.5000 
     84 N          -2.7233  -24.3075  -49.9574 N.am      15 UNK        -0.5000 
     85 CA         -2.9575  -23.7368  -51.2862 C.3       15 UNK         0.1400 
     86 CB         -2.0117  -22.5418  -51.4844 C.3       15 UNK        -0.1800 
     87 C          -4.4360  -23.3635  -51.5403 C.2       15 UNK         0.5000 
     88 O          -4.7281  -22.2632  -52.0202 O.2       15 UNK        -0.5000 
     89 N          -5.3383  -24.3053  -51.2331 N.am      16 UNK        -0.5000 
     90 CA         -6.7872  -24.2656  -51.4438 C.3       16 UNK         0.1400 
     91 CB         -7.1024  -24.3357  -52.9532 C.3       16 UNK        -0.1800 
     92 C          -7.4780  -23.0806  -50.7378 C.2       16 UNK         0.5000 
     93 O          -8.3729  -22.4629  -51.3145 O.2       16 UNK        -0.5000 
     94 N          -7.0384  -22.7748  -49.5074 N.am      17 UNK        -0.5000 
     95 CA         -7.4870  -21.6497  -48.6770 C.3       17 UNK         0.1400 
     96 CB         -8.9388  -21.8616  -48.2002 C.3       17 UNK        -0.1800 
     97 C          -7.2630  -20.2927  -49.3771 C.2       17 UNK         0.5000 
     98 O          -8.1982  -19.5087  -49.5447 O.2       17 UNK        -0.5000 
     99 N          -6.0101  -20.0791  -49.8002 N.am      18 UNK        -0.5000 
    100 CA        -5.4573  -18.9228  -50.5120 C.3       18 UNK         0.1400 
    101 CB        -5.6985  -17.6165  -49.7251 C.3       18 UNK        -0.1800 
    102 C         -5.9045  -18.7867  -51.9816 C.2       18 UNK         0.5000 
    103 O         -5.4684  -17.8419  -52.6405 O.2       18 UNK        -0.5000 
    104 N         -6.7422  -19.7052  -52.4844 N.am      19 UNK        -0.5000 
    105 CA        -7.2861  -19.6578  -53.8421 C.3       19 UNK         0.1400 
    106 CB        -8.5225  -20.5620  -53.9435 C.3       19 UNK        -0.1800 
    107 C         -6.2545  -20.0294  -54.9205 C.2       19 UNK         0.5000 
    108 O         -6.2774  -19.4323  -55.9979 O.2       19 UNK        -0.5000 
    109 N         -5.3714  -20.9947  -54.6246 N.am      20 UNK        -0.5000 
    110 CA        -4.2821  -21.3853  -55.5237 C.3       20 UNK         0.1400 
    111 CB        -3.9090  -22.8568  -55.2854 C.3       20 UNK        -0.1800 
    112 C         -3.0574  -20.4700  -55.3487 C.2       20 UNK         0.5000 
    113 O         -2.3764  -20.1764  -56.3318 O.2       20 UNK        -0.5000 
    114 N         -2.8283  -20.0253  -54.1038 N.am      21 UNK        -0.5000 
    115 CA        -1.7373  -19.1591  -53.6494 C.3       21 UNK         0.1400 
    116 CB        -1.9448  -17.7188  -54.1692 C.3       21 UNK        -0.1800 
    117 C         -0.3344  -19.7432  -53.9419 C.2       21 UNK         0.5000 
    118 O         -0.1670  -20.9644  -53.9068 O.2       21 UNK        -0.5000 
    119 N          0.6557  -18.8756  -54.1891 N.am      22 UNK        -0.5000 
    120 CA         2.0298  -19.2660  -54.5356 C.3       22 UNK         0.1400 
    121 C          2.1195  -19.9353  -55.9367 C.2       22 UNK         0.5000 
    122 N          2.8250  -21.0514  -56.0611 N.am      22 UNK        -0.7600 
    123 O          1.5878  -19.4246  -56.9200 O.2       22 UNK        -0.5000 
    124 C124        3.0092  -18.0667  -54.4172 C.3       23 UNK        -0.0398 
    125 S125        4.6942  -18.6170  -53.9684 S.3       23 UNK        -0.2404 
    126 C126        4.8058  -18.1669  -52.2035 C.3       23 UNK        -0.0205 
    127 H127       -4.5198  -15.2788  -53.3350 H         1 UNK         0.0600 
    128 H128       -3.5231  -14.1329  -54.2350 H         1 UNK         0.0600 
    129 H129       -4.9518  -13.5676  -53.3612 H         1 UNK         0.0600 
    130 H130       -3.5382  -15.9062  -51.4487 H         1 UNK         0.3000 
    131 H131       -1.3740  -14.4740  -50.2130 H         1 UNK         0.0600 
    132 H132       -2.9685  -16.9208  -49.2844 H         1 UNK         0.0800 
    133 H133       -1.5726  -16.3079  -48.4511 H         1 UNK         0.0800 
    134 H134        0.3676  -17.6562  -48.5254 H         1 UNK         0.0800 
    135 H135        0.9631  -16.3375  -49.5101 H         1 UNK         0.0800 
    136 H136        2.7959  -16.7552  -51.0222 H         1 UNK         0.1150 
    137 H137        4.2323  -20.7622  -51.5623 H         1 UNK         0.1150 
    138 H138        0.5768  -20.0487  -49.4376 H         1 UNK         0.1150 
    139 H139        1.1523  -22.3136  -50.2069 H         1 UNK         0.0800 
    140 H140        2.6005  -22.5995  -51.1195 H         1 UNK         0.0800 
    141 H141        2.0456  -20.7711  -47.6119 H         1 UNK         0.0800 
    142 H142        2.9868  -21.7895  -46.5886 H         1 UNK         0.0800 
    143 H143        1.1130  -23.6194  -47.0171 H         1 UNK         0.0600 
    144 H144        1.3687  -21.6864  -44.9530 H         1 UNK         0.3000 
    145 H145       -1.1967  -23.0586  -42.8446 H         1 UNK         0.0600 
    146 H146        0.7279  -23.0556  -41.2924 H         1 UNK         0.0600 
    147 H147        1.8564  -22.8867  -42.6348 H         1 UNK         0.0600 
    148 H148        0.9058  -24.3571  -42.4593 H         1 UNK         0.0600 
    149 H149        0.4884  -20.8032  -42.4844 H         1 UNK         0.3000 
    150 H150       -1.6802  -18.3774  -44.0371 H         1 UNK         0.0600 
    151 H151       -2.4809  -18.6831  -41.7137 H         1 UNK         0.0600 
    152 H152       -1.3071  -17.3761  -41.7783 H         1 UNK         0.0600 
    153 H153       -0.8368  -18.9492  -41.1470 H         1 UNK         0.0600 
    154 H154        0.8478  -18.0423  -42.8194 H         1 UNK         0.3000 
    155 H155        2.8840  -18.6149  -45.7167 H         1 UNK         0.0600 
    156 H156        2.1008  -16.2625  -45.8183 H         1 UNK         0.0600 
    157 H157        3.6503  -16.3565  -44.9952 H         1 UNK         0.0600 
    158 H158        2.1681  -16.1284  -44.0697 H         1 UNK         0.0600 
    159 H159        3.4679  -17.9946  -42.9742 H         1 UNK         0.3000 
    160 H160        3.8842  -21.3610  -41.8550 H         1 UNK         0.0600 
    161 H161        5.8964  -19.1156  -42.4227 H         1 UNK         0.0600 
    162 H162        6.0050  -20.7619  -43.0345 H         1 UNK         0.0600 
    163 H163        6.1283  -20.4628  -41.3083 H         1 UNK         0.0600 
    164 H164        4.2543  -18.8175  -40.5900 H         1 UNK         0.3000 
    165 H165        0.9321  -18.4245  -39.3680 H         1 UNK         0.0600 
    166 H166        2.1381  -18.3504  -37.2070 H         1 UNK         0.0600 
    167 H167        2.0290  -20.0085  -37.7750 H         1 UNK         0.0600 
    168 H168        3.5461  -19.1305  -37.9284 H         1 UNK         0.0600 
    169 H169        3.2598  -16.8670  -38.9474 H         1 UNK         0.3000 
    170 H170        3.0548  -14.6227  -39.8528 H         1 UNK         0.0600 
    171 H171        4.5223  -15.8306  -42.2861 H         1 UNK         0.0600 
    172 H172        5.0313  -14.3940  -41.4036 H         1 UNK         0.0600 
    173 H173        5.0598  -15.9606  -40.6143 H         1 UNK         0.0600 
    174 H174        1.6727  -14.8349  -42.3512 H         1 UNK         0.3000 
    175 H175        1.0056  -11.4351  -42.5436 H         1 UNK         0.0600 
    176 H176        2.6100  -12.9118  -44.7019 H         1 UNK         0.0600 
    177 H177        1.5611  -11.5186  -44.9657 H         1 UNK         0.0600 
    178 H178        3.0269  -11.3468  -44.0128 H         1 UNK         0.0600 
    179 H179        0.2855  -13.6119  -44.2630 H         1 UNK         0.3000 
    180 H180       -1.3087  -15.3869  -43.4312 H         1 UNK         0.0600 
    181 H181       -3.5072  -13.9706  -41.8369 H         1 UNK         0.0600 
    182 H182       -2.5034  -15.2852  -41.2389 H         1 UNK         0.0600 
    183 H183       -3.6117  -15.5717  -42.5696 H         1 UNK         0.0600 
    184 H184       -3.3422  -13.4414  -44.1901 H         1 UNK         0.3000 
    185 H185       -3.7642  -13.3558  -46.4940 H         1 UNK         0.0600 
    186 H186       -1.4169  -11.3768  -46.7672 H         1 UNK         0.0600 
    187 H187       -3.0299  -11.1326  -47.4354 H         1 UNK         0.0600 
    188 H188       -2.7992  -11.1867  -45.6943 H         1 UNK         0.0600 
    189 H189       -1.2716  -13.9143  -47.9417 H         1 UNK         0.3000 
    190 H190       -0.4585  -20.4084  -46.5601 H         1 UNK         0.3000 
    191 H191       -1.9979  -20.3571  -48.9008 H         1 UNK         0.0600 
    192 H192       -1.6723  -18.4145  -47.3801 H         1 UNK         0.0600 
    193 H193       -2.6689  -19.1826  -46.1532 H         1 UNK         0.0600 
    194 H194       -3.3811  -18.7013  -47.6831 H         1 UNK         0.0600 
    195 H195       -2.8198  -21.7485  -45.6880 H         1 UNK         0.3000 
    196 H196       -5.4274  -22.6304  -46.2635 H         1 UNK         0.0600 
    197 H197       -4.5028  -22.5369  -43.9771 H         1 UNK         0.0600 
    198 H198       -3.3579  -23.8224  -44.3492 H         1 UNK         0.0600 
    199 H199       -5.0841  -24.1580  -44.3254 H         1 UNK         0.0600 
    200 H200       -2.3012  -24.3342  -46.7021 H         1 UNK         0.3000 
    201 H201       -3.3783  -26.7395  -47.8110 H         1 UNK         0.0600 
    202 H202       -1.1000  -26.6009  -46.8333 H         1 UNK         0.0600 
    203 H203       -0.5906  -25.4989  -48.1090 H         1 UNK         0.0600 
    204 H204       -1.0241  -27.1578  -48.4987 H         1 UNK         0.0600 
    205 H205       -2.2593  -23.6934  -49.2932 H         1 UNK         0.3000 
    206 H206       -2.6923  -24.4902  -52.0303 H         1 UNK         0.0600 
    207 H207       -0.9724  -22.8269  -51.3238 H         1 UNK         0.0600 
    208 H208       -2.2468  -21.7238  -50.8045 H         1 UNK         0.0600 
    209 H209       -2.0823  -22.1581  -52.5001 H         1 UNK         0.0600 
    210 H210       -4.9730  -25.1694  -50.8446 H         1 UNK         0.3000 
    211 H211       -7.1897  -25.1672  -50.9804 H         1 UNK         0.0600 
    212 H212       -6.7366  -23.4573  -53.4845 H         1 UNK         0.0600 
    213 H213       -8.1765  -24.4030  -53.1295 H         1 UNK         0.0600 
    214 H214       -6.6454  -25.2137  -53.4094 H         1 UNK         0.0600 
    215 H215       -6.2771  -23.3240  -49.1277 H         1 UNK         0.3000 
    216 H216       -6.8521  -21.6426  -47.7916 H         1 UNK         0.0600 
    217 H217       -9.2374  -21.0770  -47.5041 H         1 UNK         0.0600 
    218 H218       -9.0469  -22.8140  -47.6813 H         1 UNK         0.0600 
    219 H219       -9.6476  -21.8488  -49.0286 H         1 UNK         0.0600 
    220 H220       -5.3295  -20.8081  -49.5899 H         1 UNK         0.3000 
    221 H221       -4.3798  -19.0917  -50.5453 H         1 UNK         0.0600 
    222 H222       -6.7537  -17.3451  -49.6999 H         1 UNK         0.0600 
    223 H223       -5.3515  -17.7007  -48.6958 H         1 UNK         0.0600 
    224 H224       -5.1719  -16.7780  -50.1798 H         1 UNK         0.0600 
    225 H225       -7.0510  -20.4632  -51.8902 H         1 UNK         0.3000 
    226 H226       -7.6114  -18.6333  -54.0362 H         1 UNK         0.0600 
    227 H227       -9.2601  -20.3128  -53.1804 H         1 UNK         0.0600 
    228 H228       -9.0066  -20.4501  -54.9144 H         1 UNK         0.0600 
    229 H229       -8.2636  -21.6141  -53.8298 H         1 UNK         0.0600 
    230 H230       -5.3876  -21.4243  -53.7041 H         1 UNK         0.3000 
    231 H231       -4.6208  -21.2988  -56.5585 H         1 UNK         0.0600 
    232 H232       -3.1813  -23.1936  -56.0246 H         1 UNK         0.0600 
    233 H233       -4.7810  -23.5058  -55.3666 H         1 UNK         0.0600 
    234 H234       -3.4644  -23.0106  -54.3040 H         1 UNK         0.0600 
    235 H235       -3.4462  -20.3607  -53.3792 H         1 UNK         0.3000 
    236 H236       -1.8284  -19.1398  -52.5644 H         1 UNK         0.0600 
    237 H237       -1.7834  -17.6495  -55.2456 H         1 UNK         0.0600 
    238 H238       -2.9582  -17.3734  -53.9639 H         1 UNK         0.0600 
    239 H239       -1.2690  -17.0157  -53.6815 H         1 UNK         0.0600 
    240 H240        0.4423  -17.8907  -54.2275 H         1 UNK         0.3000 
    241 H241        2.3171  -20.0112  -53.7911 H         1 UNK         0.0600 
    242 H242        2.9024  -21.4853  -56.9678 H         1 UNK         0.3800 
    243 H243        3.2844  -21.4737  -55.2693 H         1 UNK         0.3800 
    244 H244        2.6646  -17.3588  -53.6633 H         1 UNK         0.0800 
    245 H245        3.0557  -17.4941  -55.3454 H         1 UNK         0.0800 
    246 H246        4.8696  -17.0808  -52.1200 H         1 UNK         0.0800 
    247 H247        5.7383  -18.5592  -51.7957 H         1 UNK         0.0800 
@<TRIPOS>BOND
     1    1    2 1    
     2    1  127 1    
     3    1  128 1    
     4    1  129 1    
     5    2    3 2    
     6    2    4 am   BACKBONE|DICT|INTERRES
     7    4    5 1    
     8    4  130 1    
     9    5    6 1    
    10    5   65 1    
    11    5  131 1    
    12    6    7 1    
    13    6  132 1    
    14    6  133 1    
    15    7    8 1    
    16    8    9 1    
    17    8  134 1    
    18    8  135 1    
    19    9   10 ar   
    20    9   14 ar   
    21   10   11 ar   
    22   10  136 1    
    23   11   12 ar   
    24   11  126 1    
    25   12   13 ar   
    26   12  137 1    
    27   13   14 ar   
    28   13   15 1    
    29   14  138 1    
    30   15   16 1    
    31   15  139 1    
    32   15  140 1    
    33   16   17 1    
    34   17   18 1    
    35   17  141 1    
    36   17  142 1    
    37   18   19 1    
    38   18   67 1    
    39   18  143 1    
    40   19   20 am   BACKBONE|DICT|INTERRES
    41   19  144 1    
    42   20   21 2    
    43   20   22 1    
    44   22   23 1    
    45   22   24 1    
    46   22  145 1    
    47   23  146 1    
    48   23  147 1    
    49   23  148 1    
    50   24   25 am   BACKBONE|DICT|INTERRES
    51   24  149 1    
    52   25   26 2    
    53   25   27 1    
    54   27   28 1    
    55   27   29 1    
    56   27  150 1    
    57   28  151 1    
    58   28  152 1    
    59   28  153 1    
    60   29   30 am   BACKBONE|DICT|INTERRES
    61   29  154 1    
    62   30   31 2    
    63   30   32 1    
    64   32   33 1    
    65   32   34 1    
    66   32  155 1    
    67   33  156 1    
    68   33  157 1    
    69   33  158 1    
    70   34   35 am   BACKBONE|DICT|INTERRES
    71   34  159 1    
    72   35   36 2    
    73   35   37 1    
    74   37   38 1    
    75   37   39 1    
    76   37  160 1    
    77   38  161 1    
    78   38  162 1    
    79   38  163 1    
    80   39   40 am   BACKBONE|DICT|INTERRES
    81   39  164 1    
    82   40   41 2    
    83   40   42 1    
    84   42   43 1    
    85   42   44 1    
    86   42  165 1    
    87   43  166 1    
    88   43  167 1    
    89   43  168 1    
    90   44   45 am   BACKBONE|DICT|INTERRES
    91   44  169 1    
    92   45   46 2    
    93   45   47 1    
    94   47   48 1    
    95   47   49 1    
    96   47  170 1    
    97   48  171 1    
    98   48  172 1    
    99   48  173 1    
   100   49   50 am   BACKBONE|DICT|INTERRES
   101   49  174 1    
   102   50   51 2    
   103   50   52 1    
   104   52   53 1    
   105   52   54 1    
   106   52  175 1    
   107   53  176 1    
   108   53  177 1    
   109   53  178 1    
   110   54   55 am   BACKBONE|DICT|INTERRES
   111   54  179 1    
   112   55   56 2    
   113   55   57 1    
   114   57   58 1    
   115   57   59 1    
   116   57  180 1    
   117   58  181 1    
   118   58  182 1    
   119   58  183 1    
   120   59   60 am   BACKBONE|DICT|INTERRES
   121   59  184 1    
   122   60   61 2    
   123   60   62 1    
   124   62   63 1    
   125   62   64 1    
   126   62  185 1    
   127   63  186 1    
   128   63  187 1    
   129   63  188 1    
   130   64   65 am   BACKBONE|DICT|INTERRES
   131   64  189 1    
   132   65   66 2    
   133   67   68 2    
   134   67   69 am   BACKBONE|DICT|INTERRES
   135   69   70 1    
   136   69  190 1    
   137   70   71 1    
   138   70   72 1    
   139   70  191 1    
   140   71  192 1    
   141   71  193 1    
   142   71  194 1    
   143   72   73 2    
   144   72   74 am   BACKBONE|DICT|INTERRES
   145   74   75 1    
   146   74  195 1    
   147   75   76 1    
   148   75   77 1    
   149   75  196 1    
   150   76  197 1    
   151   76  198 1    
   152   76  199 1    
   153   77   78 2    
   154   77   79 am   BACKBONE|DICT|INTERRES
   155   79   80 1    
   156   79  200 1    
   157   80   81 1    
   158   80   82 1    
   159   80  201 1    
   160   81  202 1    
   161   81  203 1    
   162   81  204 1    
   163   82   83 2    
   164   82   84 am   BACKBONE|DICT|INTERRES
   165   84   85 1    
   166   84  205 1    
   167   85   86 1    
   168   85   87 1    
   169   85  206 1    
   170   86  207 1    
   171   86  208 1    
   172   86  209 1    
   173   87   88 2    
   174   87   89 am   BACKBONE|DICT|INTERRES
   175   89   90 1    
   176   89  210 1    
   177   90   91 1    
   178   90   92 1    
   179   90  211 1    
   180   91  212 1    
   181   91  213 1    
   182   91  214 1    
   183   92   93 2    
   184   92   94 am   BACKBONE|DICT|INTERRES
   185   94   95 1    
   186   94  215 1    
   187   95   96 1    
   188   95   97 1    
   189   95  216 1    
   190   96  217 1    
   191   96  218 1    
   192   96  219 1    
   193   97   98 2    
   194   97   99 am   BACKBONE|DICT|INTERRES
   195   99  100 1    
   196   99  220 1    
   197  100  101 1    
   198  100  102 1    
   199  100  221 1    
   200  101  222 1    
   201  101  223 1    
   202  101  224 1    
   203  102  103 2    
   204  102  104 am   BACKBONE|DICT|INTERRES
   205  104  105 1    
   206  104  225 1    
   207  105  106 1    
   208  105  107 1    
   209  105  226 1    
   210  106  227 1    
   211  106  228 1    
   212  106  229 1    
   213  107  108 2    
   214  107  109 am   BACKBONE|DICT|INTERRES
   215  109  110 1    
   216  109  230 1    
   217  110  111 1    
   218  110  112 1    
   219  110  231 1    
   220  111  232 1    
   221  111  233 1    
   222  111  234 1    
   223  112  113 2    
   224  112  114 am   BACKBONE|DICT|INTERRES
   225  114  115 1    
   226  114  235 1    
   227  115  116 1    
   228  115  117 1    
   229  115  236 1    
   230  116  237 1    
   231  116  238 1    
   232  116  239 1    
   233  117  118 2    
   234  117  119 am   BACKBONE|DICT|INTERRES
   235  119  120 1    
   236  119  240 1    
   237  120  121 1    
   238  120  124 1    
   239  120  241 1    
   240  121  122 am   BACKBONE|DICT|INTERRES
   241  121  123 2    
   242  122  242 1    
   243  122  243 1    
   244  124  125 1    
   245  124  244 1    
   246  124  245 1    
   247  125  126 1    
   248  126  246 1    
   249  126  247 1    
@<TRIPOS>SUBSTRUCTURE
     1 UNK         1 GROUP             0       ****    0 ROOT    
