@<TRIPOS>MOLECULE
3R540
247   249    1
SMALL
USER_CHARGES


@<TRIPOS>ATOM
      1 CA          1.8915   -8.3974  -46.7503 C.3       0 UNK        -0.1800 
      2 C           1.2866   -9.7759  -46.5279 C.2       0 UNK         0.5000 
      3 O           0.4979   -9.9540  -45.5998 O.2       0 UNK        -0.5000 
      4 N           1.6707  -10.7523  -47.3616 N.am      1 UNK        -0.5000 
      5 CA          1.2193  -12.1545  -47.4054 C.3       1 UNK         0.1400 
      6 C6         -0.3029  -12.3315  -47.6245 C.3       23 UNK        -0.0398 
      7 S7         -0.8712  -11.6462  -49.2173 S.3       23 UNK        -0.2404 
      8 C8         -0.6358  -13.0661  -50.3461 C.3       23 UNK        -0.0205 
      9 C9         -1.3417  -14.3485  -49.9101 C.ar      23 UNK        -0.0193 
     10 C10        -2.6225  -14.3171  -49.3498 C.ar      23 UNK        -0.1150 
     11 C11        -3.2514  -15.4924  -48.9335 C.ar      23 UNK        -0.0193 
     12 C12        -2.5981  -16.7173  -49.1001 C.ar      23 UNK        -0.1150 
     13 C13        -1.3256  -16.7683  -49.6803 C.ar      23 UNK        -0.0193 
     14 C14        -0.7035  -15.5811  -50.0776 C.ar      23 UNK        -0.1150 
     15 C15        -0.6350  -18.1048  -49.9179 C.3       23 UNK        -0.0205 
     16 S16         0.7963  -18.3875  -48.8171 S.3       23 UNK        -0.2404 
     17 C17         0.0345  -18.4703  -47.1601 C.3       23 UNK        -0.0398 
     18 CA         -0.3174  -19.9102  -46.7101 C.3       11 UNK         0.1400 
     19 N          -0.5688  -19.9967  -45.2703 N.am      11 UNK        -0.5000 
     20 C          -0.8289  -21.1267  -44.5951 C.2       10 UNK         0.5000 
     21 O          -0.7766  -22.2512  -45.0912 O.2       10 UNK        -0.5000 
     22 CA         -1.2931  -20.9672  -43.1373 C.3       10 UNK         0.1400 
     23 CB         -0.0978  -20.8892  -42.1767 C.3       10 UNK        -0.1800 
     24 N          -2.1486  -19.7908  -42.9698 N.am      10 UNK        -0.5000 
     25 C          -3.3982  -19.6973  -43.4477 C.2       9 UNK         0.5000 
     26 O          -3.9764  -20.6183  -44.0246 O.2       9 UNK        -0.5000 
     27 CA         -4.1006  -18.3346  -43.2920 C.3       9 UNK         0.1400 
     28 CB         -4.7288  -18.2058  -41.8965 C.3       9 UNK        -0.1800 
     29 N          -3.1938  -17.2078  -43.5217 N.am      9 UNK        -0.5000 
     30 C          -2.6636  -16.8947  -44.7129 C.2       8 UNK         0.5000 
     31 O          -2.9467  -17.4854  -45.7545 O.2       8 UNK        -0.5000 
     32 CA         -1.5961  -15.7782  -44.7328 C.3       8 UNK         0.1400 
     33 CB         -2.2362  -14.4118  -45.0139 C.3       8 UNK        -0.1800 
     34 N          -0.8107  -15.6996  -43.4950 N.am      8 UNK        -0.5000 
     35 C          -0.0222  -16.6840  -43.0436 C.2       7 UNK         0.5000 
     36 O           0.1034  -17.7672  -43.6212 O.2       7 UNK        -0.5000 
     37 CA          0.6768  -16.4566  -41.6946 C.3       7 UNK         0.1400 
     38 CB         -0.3612  -16.4822  -40.5528 C.3       7 UNK        -0.1800 
     39 N           1.6566  -17.5229  -41.5232 N.am      7 UNK        -0.5000 
     40 C           2.5462  -17.6728  -40.5353 C.2       6 UNK         0.5000 
     41 O           2.6950  -16.8677  -39.6155 O.2       6 UNK        -0.5000 
     42 CA          3.4067  -18.9531  -40.5663 C.3       6 UNK         0.1400 
     43 CB          2.8151  -20.0166  -39.6278 C.3       6 UNK        -0.1800 
     44 N           3.5223  -19.5212  -41.9123 N.am      6 UNK        -0.5000 
     45 C           4.3788  -19.0773  -42.8407 C.2       5 UNK         0.5000 
     46 O           5.2461  -18.2318  -42.6076 O.2       5 UNK        -0.5000 
     47 CA          4.2699  -19.6885  -44.2585 C.3       5 UNK         0.1400 
     48 CB          2.8877  -20.3070  -44.5696 C.3       5 UNK        -0.1800 
     49 N           4.6456  -18.7243  -45.2994 N.am      5 UNK        -0.5000 
     50 C           4.0716  -17.5341  -45.5268 C.2       4 UNK         0.5000 
     51 O           3.0646  -17.1253  -44.9445 O.2       4 UNK        -0.5000 
     52 CA          4.7410  -16.6508  -46.5908 C.3       4 UNK         0.1400 
     53 CB          3.9274  -16.6470  -47.8938 C.3       4 UNK        -0.1800 
     54 N           4.8453  -15.2881  -46.0788 N.am      4 UNK        -0.5000 
     55 C           5.8737  -14.8330  -45.3480 C.2       3 UNK         0.5000 
     56 O           6.9067  -15.4756  -45.1544 O.2       3 UNK        -0.5000 
     57 CA          5.7409  -13.4273  -44.7242 C.3       3 UNK         0.1400 
     58 CB          6.4521  -12.3813  -45.5966 C.3       3 UNK        -0.1800 
     59 N           4.3518  -13.0140  -44.5320 N.am      3 UNK        -0.5000 
     60 C           3.5075  -13.5454  -43.6375 C.2       2 UNK         0.5000 
     61 O           3.8515  -14.3423  -42.7651 O.2       2 UNK        -0.5000 
     62 CA          2.0249  -13.1312  -43.7399 C.3       2 UNK         0.1400 
     63 CB          1.6206  -12.2348  -42.5601 C.3       2 UNK        -0.1800 
     64 N           1.6568  -12.4622  -44.9917 N.am      2 UNK        -0.5000 
     65 C           1.6884  -13.0116  -46.2119 C.2       1 UNK         0.5000 
     66 O           2.0982  -14.1508  -46.4235 O.2       1 UNK        -0.5000 
     67 C          -1.5082  -20.4781  -47.5047 C.2       11 UNK         0.5000 
     68 O          -1.3070  -21.3547  -48.3421 O.2       11 UNK        -0.5000 
     69 N          -2.7266  -20.0083  -47.1970 N.am      12 UNK        -0.5000 
     70 CA         -3.9699  -20.4702  -47.8151 C.3       12 UNK         0.1400 
     71 CB         -5.1473  -19.6284  -47.3061 C.3       12 UNK        -0.1800 
     72 C          -4.2400  -21.9695  -47.5984 C.2       12 UNK         0.5000 
     73 O          -4.6949  -22.6348  -48.5265 O.2       12 UNK        -0.5000 
     74 N          -3.9270  -22.4787  -46.3991 N.am      13 UNK        -0.5000 
     75 CA         -4.0152  -23.8992  -46.0613 C.3       13 UNK         0.1400 
     76 CB         -3.8426  -24.0808  -44.5459 C.3       13 UNK        -0.1800 
     77 C          -3.0019  -24.7614  -46.8389 C.2       13 UNK         0.5000 
     78 O          -3.3639  -25.8378  -47.3127 O.2       13 UNK        -0.5000 
     79 N          -1.7614  -24.2732  -46.9753 N.am      14 UNK        -0.5000 
     80 CA         -0.6905  -24.9308  -47.7271 C.3       14 UNK         0.1400 
     81 CB          0.6523  -24.2659  -47.3864 C.3       14 UNK        -0.1800 
     82 C          -0.9347  -24.9180  -49.2482 C.2       14 UNK         0.5000 
     83 O          -0.6891  -25.9223  -49.9164 O.2       14 UNK        -0.5000 
     84 N          -1.4250  -23.7842  -49.7624 N.am      15 UNK        -0.5000 
     85 CA         -1.7250  -23.5490  -51.1745 C.3       15 UNK         0.1400 
     86 CB         -1.6596  -22.0356  -51.4399 C.3       15 UNK        -0.1800 
     87 C          -3.0793  -24.1238  -51.6324 C.2       15 UNK         0.5000 
     88 O          -3.4132  -23.9819  -52.8113 O.2       15 UNK        -0.5000 
     89 N          -3.8586  -24.7202  -50.7188 N.am      16 UNK        -0.5000 
     90 CA         -5.1733  -25.3104  -50.9778 C.3       16 UNK         0.1400 
     91 CB         -5.7462  -25.8878  -49.6759 C.3       16 UNK        -0.1800 
     92 C          -5.1100  -26.3854  -52.0765 C.2       16 UNK         0.5000 
     93 O          -4.3324  -27.3340  -51.9548 O.2       16 UNK        -0.5000 
     94 N          -5.8770  -26.1705  -53.1546 N.am      17 UNK        -0.5000 
     95 CA         -5.9265  -26.9227  -54.4183 C.3       17 UNK         0.1400 
     96 CB         -6.3381  -28.3894  -54.1888 C.3       17 UNK        -0.1800 
     97 C          -4.6443  -26.8318  -55.2755 C.2       17 UNK         0.5000 
     98 O          -4.7480  -26.7612  -56.5001 O.2       17 UNK        -0.5000 
     99 N          -3.4704  -26.8170  -54.6328 N.am      18 UNK        -0.5000 
    100 CA        -2.1464  -26.7445  -55.2502 C.3       18 UNK         0.1400 
    101 CB        -1.0804  -26.9694  -54.1665 C.3       18 UNK        -0.1800 
    102 C         -1.8827  -25.4238  -55.9963 C.2       18 UNK         0.5000 
    103 O         -1.2703  -25.4457  -57.0650 O.2       18 UNK        -0.5000 
    104 N         -2.3490  -24.3062  -55.4269 N.am      19 UNK        -0.5000 
    105 CA        -2.1908  -22.9573  -55.9715 C.3       19 UNK         0.1400 
    106 CB        -0.8695  -22.3441  -55.4697 C.3       19 UNK        -0.1800 
    107 C         -3.4265  -22.0841  -55.6783 C.2       19 UNK         0.5000 
    108 O         -3.3090  -20.8609  -55.6023 O.2       19 UNK        -0.5000 
    109 N         -4.5933  -22.7338  -55.5410 N.am      20 UNK        -0.5000 
    110 CA        -5.9238  -22.1474  -55.3349 C.3       20 UNK         0.1400 
    111 CB        -6.3643  -21.3479  -56.5793 C.3       20 UNK        -0.1800 
    112 C         -6.0707  -21.3435  -54.0236 C.2       20 UNK         0.5000 
    113 O         -6.8268  -20.3698  -53.9813 O.2       20 UNK        -0.5000 
    114 N         -5.3714  -21.7818  -52.9662 N.am      21 UNK        -0.5000 
    115 CA        -5.3804  -21.2091  -51.6163 C.3       21 UNK         0.1400 
    116 CB        -6.7427  -21.4688  -50.9296 C.3       21 UNK        -0.1800 
    117 C         -4.9433  -19.7276  -51.6161 C.2       21 UNK         0.5000 
    118 O         -3.8236  -19.4275  -52.0293 O.2       21 UNK        -0.5000 
    119 N         -5.8285  -18.8381  -51.1550 N.am      22 UNK        -0.5000 
    120 CA        -5.6692  -17.3770  -51.1905 C.3       22 UNK         0.1400 
    121 C         -6.0065  -16.7407  -52.5773 C.2       22 UNK         0.5000 
    122 N         -6.4844  -17.4871  -53.5673 N.am      22 UNK        -0.7600 
    123 O         -5.8172  -15.5446  -52.7762 O.2       22 UNK        -0.5000 
    124 C124       -6.4678  -16.7416  -50.0202 C.3       23 UNK        -0.0398 
    125 S125       -5.9267  -15.0706  -49.5229 S.3       23 UNK        -0.2404 
    126 C126       -4.6284  -15.4140  -48.2922 C.3       23 UNK        -0.0205 
    127 H127        2.5782   -8.3867  -47.5970 H         1 UNK         0.0600 
    128 H128        1.1031   -7.6697  -46.9429 H         1 UNK         0.0600 
    129 H129        2.4400   -8.0808  -45.8631 H         1 UNK         0.0600 
    130 H130        2.3399  -10.5159  -48.0810 H         1 UNK         0.3000 
    131 H131        1.7189  -12.5811  -48.2769 H         1 UNK         0.0600 
    132 H132       -0.5780  -13.3854  -47.5695 H         1 UNK         0.0800 
    133 H133       -0.8676  -11.8454  -46.8282 H         1 UNK         0.0800 
    134 H134        0.4355  -13.2424  -50.4530 H         1 UNK         0.0800 
    135 H135       -1.0020  -12.7893  -51.3353 H         1 UNK         0.0800 
    136 H136       -3.1336  -13.3729  -49.2261 H         1 UNK         0.1150 
    137 H137       -3.0837  -17.6299  -48.7866 H         1 UNK         0.1150 
    138 H138        0.2811  -15.6224  -50.5222 H         1 UNK         0.1150 
    139 H139       -1.3463  -18.9264  -49.8332 H         1 UNK         0.0800 
    140 H140       -0.2822  -18.1347  -50.9497 H         1 UNK         0.0800 
    141 H141       -0.8323  -17.8140  -47.1254 H         1 UNK         0.0800 
    142 H142        0.7561  -18.0400  -46.4633 H         1 UNK         0.0800 
    143 H143        0.5465  -20.5473  -46.9113 H         1 UNK         0.0600 
    144 H144       -0.5571  -19.1226  -44.7521 H         1 UNK         0.3000 
    145 H145       -1.8761  -21.8524  -42.8748 H         1 UNK         0.0600 
    146 H146       -0.4300  -20.8112  -41.1414 H         1 UNK         0.0600 
    147 H147        0.5204  -21.7845  -42.2535 H         1 UNK         0.0600 
    148 H148        0.5385  -20.0329  -42.3898 H         1 UNK         0.0600 
    149 H149       -1.7212  -18.9741  -42.5604 H         1 UNK         0.3000 
    150 H150       -4.9014  -18.2861  -44.0330 H         1 UNK         0.0600 
    151 H151       -5.4220  -19.0258  -41.7040 H         1 UNK         0.0600 
    152 H152       -5.2919  -17.2771  -41.8024 H         1 UNK         0.0600 
    153 H153       -3.9737  -18.2222  -41.1095 H         1 UNK         0.0600 
    154 H154       -2.9194  -16.6682  -42.7148 H         1 UNK         0.3000 
    155 H155       -0.9032  -15.9972  -45.5475 H         1 UNK         0.0600 
    156 H156       -2.9645  -14.1415  -44.2485 H         1 UNK         0.0600 
    157 H157       -1.4834  -13.6246  -45.0537 H         1 UNK         0.0600 
    158 H158       -2.7518  -14.4153  -45.9746 H         1 UNK         0.0600 
    159 H159       -0.9012  -14.8499  -42.9575 H         1 UNK         0.3000 
    160 H160        1.1956  -15.4970  -41.7156 H         1 UNK         0.0600 
    161 H161       -0.8654  -17.4475  -40.4911 H         1 UNK         0.0600 
    162 H162       -1.1273  -15.7191  -40.6937 H         1 UNK         0.0600 
    163 H163        0.0994  -16.2863  -39.5850 H         1 UNK         0.0600 
    164 H164        1.6427  -18.1911  -42.2834 H         1 UNK         0.3000 
    165 H165        4.4014  -18.6941  -40.1972 H         1 UNK         0.0600 
    166 H166        3.4369  -20.9117  -39.6034 H         1 UNK         0.0600 
    167 H167        2.7487  -19.6407  -38.6059 H         1 UNK         0.0600 
    168 H168        1.8110  -20.3124  -39.9327 H         1 UNK         0.0600 
    169 H169        2.8678  -20.2482  -42.1584 H         1 UNK         0.3000 
    170 H170        5.0095  -20.4890  -44.3023 H         1 UNK         0.0600 
    171 H171        2.6744  -21.1610  -43.9263 H         1 UNK         0.0600 
    172 H172        2.0846  -19.5816  -44.4410 H         1 UNK         0.0600 
    173 H173        2.8420  -20.6676  -45.5972 H         1 UNK         0.0600 
    174 H174        5.4850  -18.9537  -45.8123 H         1 UNK         0.3000 
    175 H175        5.7371  -17.0381  -46.8152 H         1 UNK         0.0600 
    176 H176        2.9009  -16.3177  -47.7294 H         1 UNK         0.0600 
    177 H177        4.3751  -15.9895  -48.6388 H         1 UNK         0.0600 
    178 H178        3.8824  -17.6475  -48.3252 H         1 UNK         0.0600 
    179 H179        3.9895  -14.7442  -46.1251 H         1 UNK         0.3000 
    180 H180        6.2301  -13.4508  -43.7482 H         1 UNK         0.0600 
    181 H181        5.9961  -12.3039  -46.5844 H         1 UNK         0.0600 
    182 H182        7.5019  -12.6409  -45.7392 H         1 UNK         0.0600 
    183 H183        6.4227  -11.3948  -45.1337 H         1 UNK         0.0600 
    184 H184        3.9785  -12.3547  -45.1982 H         1 UNK         0.3000 
    185 H185        1.4435  -14.0514  -43.6863 H         1 UNK         0.0600 
    186 H186        1.8416  -12.7158  -41.6063 H         1 UNK         0.0600 
    187 H187        2.1534  -11.2834  -42.5805 H         1 UNK         0.0600 
    188 H188        0.5516  -12.0210  -42.5751 H         1 UNK         0.0600 
    189 H189        1.2914  -11.5156  -44.9208 H         1 UNK         0.3000 
    190 H190       -2.8089  -19.2583  -46.5160 H         1 UNK         0.3000 
    191 H191       -3.8742  -20.3056  -48.8893 H         1 UNK         0.0600 
    192 H192       -5.2918  -19.7440  -46.2319 H         1 UNK         0.0600 
    193 H193       -6.0776  -19.9174  -47.7958 H         1 UNK         0.0600 
    194 H194       -4.9886  -18.5715  -47.5068 H         1 UNK         0.0600 
    195 H195       -3.6158  -21.8494  -45.6675 H         1 UNK         0.3000 
    196 H196       -5.0164  -24.2434  -46.3292 H         1 UNK         0.0600 
    197 H197       -3.9568  -25.1281  -44.2639 H         1 UNK         0.0600 
    198 H198       -4.5893  -23.5108  -43.9927 H         1 UNK         0.0600 
    199 H199       -2.8580  -23.7567  -44.2094 H         1 UNK         0.0600 
    200 H200       -1.5237  -23.3992  -46.5151 H         1 UNK         0.3000 
    201 H201       -0.6418  -25.9737  -47.4068 H         1 UNK         0.0600 
    202 H202        0.8686  -24.3400  -46.3205 H         1 UNK         0.0600 
    203 H203        0.6584  -23.2086  -47.6539 H         1 UNK         0.0600 
    204 H204        1.4735  -24.7457  -47.9201 H         1 UNK         0.0600 
    205 H205       -1.5405  -22.9833  -49.1435 H         1 UNK         0.3000 
    206 H206       -0.9580  -24.0304  -51.7842 H         1 UNK         0.0600 
    207 H207       -1.9559  -21.7858  -52.4584 H         1 UNK         0.0600 
    208 H208       -2.3199  -21.4832  -50.7725 H         1 UNK         0.0600 
    209 H209       -0.6493  -21.6544  -51.2912 H         1 UNK         0.0600 
    210 H210       -3.5215  -24.7762  -49.7683 H         1 UNK         0.3000 
    211 H211       -5.8298  -24.5057  -51.3097 H         1 UNK         0.0600 
    212 H212       -5.1169  -26.6861  -49.2804 H         1 UNK         0.0600 
    213 H213       -6.7415  -26.3033  -49.8372 H         1 UNK         0.0600 
    214 H214       -5.8350  -25.1196  -48.9077 H         1 UNK         0.0600 
    215 H215       -6.4590  -25.3452  -53.1453 H         1 UNK         0.3000 
    216 H216       -6.7190  -26.4533  -55.0034 H         1 UNK         0.0600 
    217 H217       -6.4934  -28.9010  -55.1394 H         1 UNK         0.0600 
    218 H218       -7.2710  -28.4543  -53.6289 H         1 UNK         0.0600 
    219 H219       -5.5782  -28.9481  -53.6420 H         1 UNK         0.0600 
    220 H220       -3.5004  -26.9147  -53.6223 H         1 UNK         0.3000 
    221 H221       -2.0730  -27.5561  -55.9769 H         1 UNK         0.0600 
    222 H222       -1.1334  -26.2096  -53.3855 H         1 UNK         0.0600 
    223 H223       -1.2003  -27.9436  -53.6922 H         1 UNK         0.0600 
    224 H224       -0.0763  -26.9360  -54.5912 H         1 UNK         0.0600 
    225 H225       -2.8117  -24.3636  -54.5215 H         1 UNK         0.3000 
    226 H226       -2.1386  -23.0161  -57.0605 H         1 UNK         0.0600 
    227 H227       -0.0147  -22.9378  -55.7936 H         1 UNK         0.0600 
    228 H228       -0.7245  -21.3357  -55.8587 H         1 UNK         0.0600 
    229 H229       -0.8399  -22.2885  -54.3828 H         1 UNK         0.0600 
    230 H230       -4.5695  -23.7391  -55.6321 H         1 UNK         0.3000 
    231 H231       -6.6078  -22.9915  -55.2367 H         1 UNK         0.0600 
    232 H232       -7.4077  -21.0407  -56.4994 H         1 UNK         0.0600 
    233 H233       -6.2735  -21.9464  -57.4857 H         1 UNK         0.0600 
    234 H234       -5.7681  -20.4446  -56.7118 H         1 UNK         0.0600 
    235 H235       -4.7245  -22.5512  -53.1093 H         1 UNK         0.3000 
    236 H236       -4.6258  -21.7460  -51.0452 H         1 UNK         0.0600 
    237 H237       -6.9715  -22.5330  -50.9041 H         1 UNK         0.0600 
    238 H238       -6.7335  -21.1283  -49.8938 H         1 UNK         0.0600 
    239 H239       -7.5687  -20.9717  -51.4390 H         1 UNK         0.0600 
    240 H240       -6.7372  -19.1754  -50.8736 H         1 UNK         0.3000 
    241 H241       -4.6130  -17.1637  -51.0221 H         1 UNK         0.0600 
    242 H242       -6.6865  -17.0493  -54.4516 H         1 UNK         0.3800 
    243 H243       -6.6141  -18.4900  -53.4735 H         1 UNK         0.3800 
    244 H244       -7.5289  -16.6952  -50.2708 H         1 UNK         0.0800 
    245 H245       -6.4108  -17.3780  -49.1368 H         1 UNK         0.0800 
    246 H246       -4.6293  -14.6038  -47.5620 H         1 UNK         0.0800 
    247 H247       -4.8543  -16.3178  -47.7281 H         1 UNK         0.0800 
@<TRIPOS>BOND
     1    1    2 1    
     2    1  127 1    
     3    1  128 1    
     4    1  129 1    
     5    2    3 2    
     6    2    4 am   BACKBONE|DICT|INTERRES
     7    4    5 1    
     8    4  130 1    
     9    5    6 1    
    10    5   65 1    
    11    5  131 1    
    12    6    7 1    
    13    6  132 1    
    14    6  133 1    
    15    7    8 1    
    16    8    9 1    
    17    8  134 1    
    18    8  135 1    
    19    9   10 ar   
    20    9   14 ar   
    21   10   11 ar   
    22   10  136 1    
    23   11   12 ar   
    24   11  126 1    
    25   12   13 ar   
    26   12  137 1    
    27   13   14 ar   
    28   13   15 1    
    29   14  138 1    
    30   15   16 1    
    31   15  139 1    
    32   15  140 1    
    33   16   17 1    
    34   17   18 1    
    35   17  141 1    
    36   17  142 1    
    37   18   19 1    
    38   18   67 1    
    39   18  143 1    
    40   19   20 am   BACKBONE|DICT|INTERRES
    41   19  144 1    
    42   20   21 2    
    43   20   22 1    
    44   22   23 1    
    45   22   24 1    
    46   22  145 1    
    47   23  146 1    
    48   23  147 1    
    49   23  148 1    
    50   24   25 am   BACKBONE|DICT|INTERRES
    51   24  149 1    
    52   25   26 2    
    53   25   27 1    
    54   27   28 1    
    55   27   29 1    
    56   27  150 1    
    57   28  151 1    
    58   28  152 1    
    59   28  153 1    
    60   29   30 am   BACKBONE|DICT|INTERRES
    61   29  154 1    
    62   30   31 2    
    63   30   32 1    
    64   32   33 1    
    65   32   34 1    
    66   32  155 1    
    67   33  156 1    
    68   33  157 1    
    69   33  158 1    
    70   34   35 am   BACKBONE|DICT|INTERRES
    71   34  159 1    
    72   35   36 2    
    73   35   37 1    
    74   37   38 1    
    75   37   39 1    
    76   37  160 1    
    77   38  161 1    
    78   38  162 1    
    79   38  163 1    
    80   39   40 am   BACKBONE|DICT|INTERRES
    81   39  164 1    
    82   40   41 2    
    83   40   42 1    
    84   42   43 1    
    85   42   44 1    
    86   42  165 1    
    87   43  166 1    
    88   43  167 1    
    89   43  168 1    
    90   44   45 am   BACKBONE|DICT|INTERRES
    91   44  169 1    
    92   45   46 2    
    93   45   47 1    
    94   47   48 1    
    95   47   49 1    
    96   47  170 1    
    97   48  171 1    
    98   48  172 1    
    99   48  173 1    
   100   49   50 am   BACKBONE|DICT|INTERRES
   101   49  174 1    
   102   50   51 2    
   103   50   52 1    
   104   52   53 1    
   105   52   54 1    
   106   52  175 1    
   107   53  176 1    
   108   53  177 1    
   109   53  178 1    
   110   54   55 am   BACKBONE|DICT|INTERRES
   111   54  179 1    
   112   55   56 2    
   113   55   57 1    
   114   57   58 1    
   115   57   59 1    
   116   57  180 1    
   117   58  181 1    
   118   58  182 1    
   119   58  183 1    
   120   59   60 am   BACKBONE|DICT|INTERRES
   121   59  184 1    
   122   60   61 2    
   123   60   62 1    
   124   62   63 1    
   125   62   64 1    
   126   62  185 1    
   127   63  186 1    
   128   63  187 1    
   129   63  188 1    
   130   64   65 am   BACKBONE|DICT|INTERRES
   131   64  189 1    
   132   65   66 2    
   133   67   68 2    
   134   67   69 am   BACKBONE|DICT|INTERRES
   135   69   70 1    
   136   69  190 1    
   137   70   71 1    
   138   70   72 1    
   139   70  191 1    
   140   71  192 1    
   141   71  193 1    
   142   71  194 1    
   143   72   73 2    
   144   72   74 am   BACKBONE|DICT|INTERRES
   145   74   75 1    
   146   74  195 1    
   147   75   76 1    
   148   75   77 1    
   149   75  196 1    
   150   76  197 1    
   151   76  198 1    
   152   76  199 1    
   153   77   78 2    
   154   77   79 am   BACKBONE|DICT|INTERRES
   155   79   80 1    
   156   79  200 1    
   157   80   81 1    
   158   80   82 1    
   159   80  201 1    
   160   81  202 1    
   161   81  203 1    
   162   81  204 1    
   163   82   83 2    
   164   82   84 am   BACKBONE|DICT|INTERRES
   165   84   85 1    
   166   84  205 1    
   167   85   86 1    
   168   85   87 1    
   169   85  206 1    
   170   86  207 1    
   171   86  208 1    
   172   86  209 1    
   173   87   88 2    
   174   87   89 am   BACKBONE|DICT|INTERRES
   175   89   90 1    
   176   89  210 1    
   177   90   91 1    
   178   90   92 1    
   179   90  211 1    
   180   91  212 1    
   181   91  213 1    
   182   91  214 1    
   183   92   93 2    
   184   92   94 am   BACKBONE|DICT|INTERRES
   185   94   95 1    
   186   94  215 1    
   187   95   96 1    
   188   95   97 1    
   189   95  216 1    
   190   96  217 1    
   191   96  218 1    
   192   96  219 1    
   193   97   98 2    
   194   97   99 am   BACKBONE|DICT|INTERRES
   195   99  100 1    
   196   99  220 1    
   197  100  101 1    
   198  100  102 1    
   199  100  221 1    
   200  101  222 1    
   201  101  223 1    
   202  101  224 1    
   203  102  103 2    
   204  102  104 am   BACKBONE|DICT|INTERRES
   205  104  105 1    
   206  104  225 1    
   207  105  106 1    
   208  105  107 1    
   209  105  226 1    
   210  106  227 1    
   211  106  228 1    
   212  106  229 1    
   213  107  108 2    
   214  107  109 am   BACKBONE|DICT|INTERRES
   215  109  110 1    
   216  109  230 1    
   217  110  111 1    
   218  110  112 1    
   219  110  231 1    
   220  111  232 1    
   221  111  233 1    
   222  111  234 1    
   223  112  113 2    
   224  112  114 am   BACKBONE|DICT|INTERRES
   225  114  115 1    
   226  114  235 1    
   227  115  116 1    
   228  115  117 1    
   229  115  236 1    
   230  116  237 1    
   231  116  238 1    
   232  116  239 1    
   233  117  118 2    
   234  117  119 am   BACKBONE|DICT|INTERRES
   235  119  120 1    
   236  119  240 1    
   237  120  121 1    
   238  120  124 1    
   239  120  241 1    
   240  121  122 am   BACKBONE|DICT|INTERRES
   241  121  123 2    
   242  122  242 1    
   243  122  243 1    
   244  124  125 1    
   245  124  244 1    
   246  124  245 1    
   247  125  126 1    
   248  126  246 1    
   249  126  247 1    
@<TRIPOS>SUBSTRUCTURE
     1 UNK         1 GROUP             0       ****    0 ROOT    
