@<TRIPOS>MOLECULE
3R540
247   249    1
SMALL
USER_CHARGES


@<TRIPOS>ATOM
      1 CA          0.0543  -16.6386  -48.0135 C.3       0 UNK        -0.1800 
      2 C           0.9134  -15.5208  -47.4469 C.2       0 UNK         0.5000 
      3 O           1.9222  -15.8053  -46.8000 O.2       0 UNK        -0.5000 
      4 N           0.5395  -14.2600  -47.7125 N.am      1 UNK        -0.5000 
      5 CA          1.1912  -13.0141  -47.2681 C.3       1 UNK         0.1400 
      6 C6          0.2631  -11.7811  -47.4544 C.3       23 UNK        -0.0398 
      7 S7         -1.2847  -11.8618  -46.4927 S.3       23 UNK        -0.2404 
      8 C8         -2.5577  -11.7971  -47.7924 C.3       23 UNK        -0.0205 
      9 C9         -2.7319  -13.1416  -48.4788 C.ar      23 UNK        -0.0193 
     10 C10        -2.1955  -13.3689  -49.7493 C.ar      23 UNK        -0.1150 
     11 C11        -2.3615  -14.6076  -50.3758 C.ar      23 UNK        -0.0193 
     12 C12        -3.0683  -15.6220  -49.7224 C.ar      23 UNK        -0.1150 
     13 C13        -3.5947  -15.4108  -48.4449 C.ar      23 UNK        -0.0193 
     14 C14        -3.4351  -14.1634  -47.8357 C.ar      23 UNK        -0.1150 
     15 C15        -4.3089  -16.5349  -47.7102 C.3       23 UNK        -0.0205 
     16 S16        -3.3377  -17.0794  -46.2722 S.3       23 UNK        -0.2404 
     17 C17        -4.1176  -18.6755  -45.8686 C.3       23 UNK        -0.0398 
     18 CA         -3.3204  -19.8877  -46.4119 C.3       11 UNK         0.1400 
     19 N          -1.9265  -19.9048  -45.9525 N.am      11 UNK        -0.5000 
     20 C          -0.9528  -20.6448  -46.4995 C.2       10 UNK         0.5000 
     21 O          -1.1051  -21.3350  -47.5057 O.2       10 UNK        -0.5000 
     22 CA          0.4046  -20.6583  -45.7740 C.3       10 UNK         0.1400 
     23 CB          1.3659  -19.6265  -46.3767 C.3       10 UNK        -0.1800 
     24 N           0.2782  -20.4313  -44.3335 N.am      10 UNK        -0.5000 
     25 C          -0.2166  -21.3279  -43.4700 C.2       9 UNK         0.5000 
     26 O          -0.6206  -22.4412  -43.8032 O.2       9 UNK        -0.5000 
     27 CA         -0.3363  -20.8819  -42.0017 C.3       9 UNK         0.1400 
     28 CB          1.0382  -20.8831  -41.3156 C.3       9 UNK        -0.1800 
     29 N          -0.9434  -19.5580  -41.8722 N.am      9 UNK        -0.5000 
     30 C          -2.2009  -19.2606  -42.2279 C.2       8 UNK         0.5000 
     31 O          -3.0092  -20.0896  -42.6445 O.2       8 UNK        -0.5000 
     32 CA         -2.6207  -17.7822  -42.1359 C.3       8 UNK         0.1400 
     33 CB         -3.2391  -17.4878  -40.7614 C.3       8 UNK        -0.1800 
     34 N          -1.5526  -16.8126  -42.3918 N.am      8 UNK        -0.5000 
     35 C          -0.7535  -16.7520  -43.4645 C.2       7 UNK         0.5000 
     36 O          -0.7014  -17.6234  -44.3310 O.2       7 UNK        -0.5000 
     37 CA          0.1635  -15.5218  -43.5776 C.3       7 UNK         0.1400 
     38 CB         -0.6366  -14.2743  -43.9849 C.3       7 UNK        -0.1800 
     39 N           0.9927  -15.2715  -42.3931 N.am      7 UNK        -0.5000 
     40 C           0.6305  -14.9310  -41.1463 C.2       6 UNK         0.5000 
     41 O          -0.5350  -14.7345  -40.7998 O.2       6 UNK        -0.5000 
     42 CA          1.7525  -14.8330  -40.0922 C.3       6 UNK         0.1400 
     43 CB          1.6151  -15.9693  -39.0656 C.3       6 UNK        -0.1800 
     44 N           3.0920  -14.9001  -40.6807 N.am      6 UNK        -0.5000 
     45 C           3.7498  -13.8624  -41.2158 C.2       5 UNK         0.5000 
     46 O           3.3332  -12.7040  -41.2033 O.2       5 UNK        -0.5000 
     47 CA          5.0837  -14.1906  -41.9144 C.3       5 UNK         0.1400 
     48 CB          6.2485  -14.1269  -40.9148 C.3       5 UNK        -0.1800 
     49 N           5.0736  -15.5063  -42.5651 N.am      5 UNK        -0.5000 
     50 C           4.3390  -15.8053  -43.6443 C.2       4 UNK         0.5000 
     51 O           3.5959  -15.0001  -44.2079 O.2       4 UNK        -0.5000 
     52 CA          4.4034  -17.2532  -44.1441 C.3       4 UNK         0.1400 
     53 CB          3.2312  -18.0762  -43.5828 C.3       4 UNK        -0.1800 
     54 N           4.3389  -17.2440  -45.6010 N.am      4 UNK        -0.5000 
     55 C           5.1664  -17.9171  -46.4091 C.2       3 UNK         0.5000 
     56 O           6.0065  -18.7250  -46.0103 O.2       3 UNK        -0.5000 
     57 CA          5.0657  -17.6251  -47.9182 C.3       3 UNK         0.1400 
     58 CB          4.0742  -18.5782  -48.5995 C.3       3 UNK        -0.1800 
     59 N           4.6733  -16.2479  -48.2141 N.am      3 UNK        -0.5000 
     60 C           5.4510  -15.1693  -48.0427 C.2       2 UNK         0.5000 
     61 O           6.6076  -15.2129  -47.6231 O.2       2 UNK        -0.5000 
     62 CA          4.8157  -13.8165  -48.3921 C.3       2 UNK         0.1400 
     63 CB          4.8826  -13.5795  -49.9148 C.3       2 UNK        -0.1800 
     64 N           3.4399  -13.7895  -47.8986 N.am      2 UNK        -0.5000 
     65 C           2.5795  -12.7701  -47.9209 C.2       1 UNK         0.5000 
     66 O           2.8470  -11.6757  -48.4209 O.2       1 UNK        -0.5000 
     67 C          -4.0711  -21.2011  -46.0907 C.2       11 UNK         0.5000 
     68 O          -5.1362  -21.4221  -46.6654 O.2       11 UNK        -0.5000 
     69 N          -3.5324  -22.0342  -45.1880 N.am      12 UNK        -0.5000 
     70 CA         -4.0892  -23.3306  -44.8025 C.3       12 UNK         0.1400 
     71 CB         -4.0910  -23.4409  -43.2697 C.3       12 UNK        -0.1800 
     72 C          -3.3004  -24.4944  -45.4272 C.2       12 UNK         0.5000 
     73 O          -3.9133  -25.4348  -45.9369 O.2       12 UNK        -0.5000 
     74 N          -1.9627  -24.4186  -45.3792 N.am      13 UNK        -0.5000 
     75 CA         -1.0353  -25.4326  -45.8865 C.3       13 UNK         0.1400 
     76 CB          0.3998  -25.0139  -45.5323 C.3       13 UNK        -0.1800 
     77 C          -1.1548  -25.6791  -47.4023 C.2       13 UNK         0.5000 
     78 O          -1.5842  -24.7928  -48.1431 O.2       13 UNK        -0.5000 
     79 N          -0.7524  -26.8851  -47.8306 N.am      14 UNK        -0.5000 
     80 CA         -0.7380  -27.3647  -49.2195 C.3       14 UNK         0.1400 
     81 CB          0.3463  -26.6265  -50.0329 C.3       14 UNK        -0.1800 
     82 C          -2.1297  -27.3093  -49.8842 C.2       14 UNK         0.5000 
     83 O          -2.2540  -26.8569  -51.0235 O.2       14 UNK        -0.5000 
     84 N          -3.1550  -27.7373  -49.1304 N.am      15 UNK        -0.5000 
     85 CA         -4.5807  -27.6921  -49.4767 C.3       15 UNK         0.1400 
     86 CB         -4.8956  -28.6729  -50.6263 C.3       15 UNK        -0.1800 
     87 C          -5.0513  -26.2522  -49.7656 C.2       15 UNK         0.5000 
     88 O          -5.6205  -25.9848  -50.8245 O.2       15 UNK        -0.5000 
     89 N          -4.7514  -25.3435  -48.8266 N.am      16 UNK        -0.5000 
     90 CA         -4.9788  -23.8977  -48.8980 C.3       16 UNK         0.1400 
     91 CB         -6.4873  -23.5811  -48.8232 C.3       16 UNK        -0.1800 
     92 C          -4.2749  -23.2456  -50.1055 C.2       16 UNK         0.5000 
     93 O          -4.8970  -22.4853  -50.8486 O.2       16 UNK        -0.5000 
     94 N          -2.9940  -23.6004  -50.2885 N.am      17 UNK        -0.5000 
     95 CA         -2.1157  -23.2362  -51.4030 C.3       17 UNK         0.1400 
     96 CB         -1.7020  -21.7561  -51.2941 C.3       17 UNK        -0.1800 
     97 C          -2.7234  -23.6153  -52.7707 C.2       17 UNK         0.5000 
     98 O          -2.8861  -22.7607  -53.6445 O.2       17 UNK        -0.5000 
     99 N          -3.0842  -24.9010  -52.9014 N.am      18 UNK        -0.5000 
    100 CA        -3.7688  -25.5237  -54.0396 C.3       18 UNK         0.1400 
    101 CB        -2.8322  -25.5904  -55.2634 C.3       18 UNK        -0.1800 
    102 C         -5.1284  -24.8621  -54.3537 C.2       18 UNK         0.5000 
    103 O         -5.4683  -24.6637  -55.5219 O.2       18 UNK        -0.5000 
    104 N         -5.8624  -24.5058  -53.2907 N.am      19 UNK        -0.5000 
    105 CA        -7.1547  -23.8144  -53.2164 C.3       19 UNK         0.1400 
    106 CB        -8.2695  -24.6640  -53.8536 C.3       19 UNK        -0.1800 
    107 C         -7.1760  -22.3732  -53.7684 C.2       19 UNK         0.5000 
    108 O         -7.8126  -21.5084  -53.1649 O.2       19 UNK        -0.5000 
    109 N         -6.5205  -22.1395  -54.9101 N.am      20 UNK        -0.5000 
    110 CA        -6.4971  -20.8654  -55.6247 C.3       20 UNK         0.1400 
    111 CB        -6.0521  -21.1165  -57.0735 C.3       20 UNK        -0.1800 
    112 C         -5.5962  -19.8070  -54.9658 C.2       20 UNK         0.5000 
    113 O         -5.9098  -18.6178  -55.0531 O.2       20 UNK        -0.5000 
    114 N         -4.4920  -20.2454  -54.3412 N.am      21 UNK        -0.5000 
    115 CA        -3.4410  -19.4150  -53.7471 C.3       21 UNK         0.1400 
    116 CB        -3.9469  -18.7680  -52.4367 C.3       21 UNK        -0.1800 
    117 C         -2.8594  -18.4160  -54.7726 C.2       21 UNK         0.5000 
    118 O         -2.4260  -18.8384  -55.8465 O.2       21 UNK        -0.5000 
    119 N         -2.8776  -17.1221  -54.4394 N.am      22 UNK        -0.5000 
    120 CA        -2.5266  -16.0039  -55.3277 C.3       22 UNK         0.1400 
    121 C         -3.6864  -15.5279  -56.2557 C.2       22 UNK         0.5000 
    122 N         -4.8669  -16.1364  -56.2359 N.am      22 UNK        -0.7600 
    123 O         -3.5066  -14.5933  -57.0322 O.2       22 UNK        -0.5000 
    124 C124       -1.8746  -14.8353  -54.5394 C.3       23 UNK        -0.0398 
    125 S125       -2.8345  -14.2856  -53.0820 S.3       23 UNK        -0.2404 
    126 C126       -1.7479  -14.8614  -51.7422 C.3       23 UNK        -0.0205 
    127 H127       -0.6288  -16.2718  -48.7750 H         1 UNK         0.0600 
    128 H128       -0.5283  -17.1021  -47.2183 H         1 UNK         0.0600 
    129 H129        0.6816  -17.4038  -48.4694 H         1 UNK         0.0600 
    130 H130       -0.3088  -14.1186  -48.2431 H         1 UNK         0.3000 
    131 H131        1.3844  -13.1194  -46.1987 H         1 UNK         0.0600 
    132 H132        0.7697  -10.8709  -47.1281 H         1 UNK         0.0800 
    133 H133        0.0369  -11.6339  -48.5115 H         1 UNK         0.0800 
    134 H134       -3.5052  -11.5045  -47.3375 H         1 UNK         0.0800 
    135 H135       -2.3161  -11.0151  -48.5139 H         1 UNK         0.0800 
    136 H136       -1.6499  -12.5834  -50.2535 H         1 UNK         0.1150 
    137 H137       -3.1862  -16.5849  -50.1976 H         1 UNK         0.1150 
    138 H138       -3.8378  -13.9963  -46.8462 H         1 UNK         0.1150 
    139 H139       -5.2916  -16.1948  -47.3808 H         1 UNK         0.0800 
    140 H140       -4.4753  -17.3819  -48.3777 H         1 UNK         0.0800 
    141 H141       -5.1367  -18.6759  -46.2598 H         1 UNK         0.0800 
    142 H142       -4.2144  -18.7419  -44.7849 H         1 UNK         0.0800 
    143 H143       -3.3016  -19.8031  -47.5008 H         1 UNK         0.0600 
    144 H144       -1.6918  -19.2914  -45.1800 H         1 UNK         0.3000 
    145 H145        0.8414  -21.6467  -45.9282 H         1 UNK         0.0600 
    146 H146        2.3821  -19.7755  -46.0132 H         1 UNK         0.0600 
    147 H147        1.3934  -19.7180  -47.4627 H         1 UNK         0.0600 
    148 H148        1.0712  -18.6055  -46.1362 H         1 UNK         0.0600 
    149 H149        0.4683  -19.4928  -44.0093 H         1 UNK         0.3000 
    150 H150       -0.9771  -21.6005  -41.4861 H         1 UNK         0.0600 
    151 H151        1.5098  -21.8639  -41.3898 H         1 UNK         0.0600 
    152 H152        0.9492  -20.6460  -40.2553 H         1 UNK         0.0600 
    153 H153        1.7172  -20.1578  -41.7653 H         1 UNK         0.0600 
    154 H154       -0.3519  -18.8098  -41.5439 H         1 UNK         0.3000 
    155 H155       -3.3868  -17.6141  -42.8939 H         1 UNK         0.0600 
    156 H156       -4.0583  -18.1747  -40.5440 H         1 UNK         0.0600 
    157 H157       -3.6446  -16.4766  -40.7199 H         1 UNK         0.0600 
    158 H158       -2.5041  -17.5869  -39.9616 H         1 UNK         0.0600 
    159 H159       -1.4610  -16.0542  -41.7202 H         1 UNK         0.3000 
    160 H160        0.8660  -15.7309  -44.3838 H         1 UNK         0.0600 
    161 H161       -1.1641  -14.4484  -44.9239 H         1 UNK         0.0600 
    162 H162        0.0215  -13.4184  -44.1322 H         1 UNK         0.0600 
    163 H163       -1.3827  -13.9986  -43.2397 H         1 UNK         0.0600 
    164 H164        1.9843  -15.3596  -42.5646 H         1 UNK         0.3000 
    165 H165        1.6333  -13.8814  -39.5699 H         1 UNK         0.0600 
    166 H166        2.3748  -15.8915  -38.2877 H         1 UNK         0.0600 
    167 H167        0.6432  -15.9362  -38.5713 H         1 UNK         0.0600 
    168 H168        1.7117  -16.9500  -39.5333 H         1 UNK         0.0600 
    169 H169        3.5243  -15.8114  -40.7181 H         1 UNK         0.3000 
    170 H170        5.2511  -13.4317  -42.6819 H         1 UNK         0.0600 
    171 H171        6.2936  -13.1505  -40.4303 H         1 UNK         0.0600 
    172 H172        6.1497  -14.8782  -40.1303 H         1 UNK         0.0600 
    173 H173        7.2051  -14.2848  -41.4133 H         1 UNK         0.0600 
    174 H174        5.6633  -16.2166  -42.1548 H         1 UNK         0.3000 
    175 H175        5.3428  -17.6916  -43.8010 H         1 UNK         0.0600 
    176 H176        2.2730  -17.7210  -43.9620 H         1 UNK         0.0600 
    177 H177        3.3276  -19.1271  -43.8549 H         1 UNK         0.0600 
    178 H178        3.1971  -18.0265  -42.4939 H         1 UNK         0.0600 
    179 H179        3.6697  -16.5908  -45.9979 H         1 UNK         0.3000 
    180 H180        6.0536  -17.8000  -48.3496 H         1 UNK         0.0600 
    181 H181        3.0484  -18.3496  -48.3144 H         1 UNK         0.0600 
    182 H182        4.2724  -19.6169  -48.3315 H         1 UNK         0.0600 
    183 H183        4.1416  -18.5035  -49.6849 H         1 UNK         0.0600 
    184 H184        3.7379  -16.1188  -48.5701 H         1 UNK         0.3000 
    185 H185        5.3805  -13.0344  -47.8812 H         1 UNK         0.0600 
    186 H186        5.9005  -13.7081  -50.2853 H         1 UNK         0.0600 
    187 H187        4.2446  -14.2768  -50.4588 H         1 UNK         0.0600 
    188 H188        4.5757  -12.5685  -50.1808 H         1 UNK         0.0600 
    189 H189        3.1225  -14.6282  -47.4151 H         1 UNK         0.3000 
    190 H190       -2.6661  -21.7647  -44.7416 H         1 UNK         0.3000 
    191 H191       -5.1237  -23.4151  -45.1419 H         1 UNK         0.0600 
    192 H192       -4.6996  -22.6550  -42.8219 H         1 UNK         0.0600 
    193 H193       -4.5034  -24.3975  -42.9464 H         1 UNK         0.0600 
    194 H194       -3.0858  -23.3575  -42.8548 H         1 UNK         0.0600 
    195 H195       -1.5317  -23.6245  -44.9142 H         1 UNK         0.3000 
    196 H196       -1.2623  -26.3676  -45.3705 H         1 UNK         0.0600 
    197 H197        1.1236  -25.7597  -45.8632 H         1 UNK         0.0600 
    198 H198        0.5241  -24.8996  -44.4553 H         1 UNK         0.0600 
    199 H199        0.6658  -24.0672  -46.0034 H         1 UNK         0.0600 
    200 H200       -0.4165  -27.5468  -47.1443 H         1 UNK         0.3000 
    201 H201       -0.4611  -28.4193  -49.1837 H         1 UNK         0.0600 
    202 H202        1.3239  -26.7203  -49.5603 H         1 UNK         0.0600 
    203 H203        0.1255  -25.5639  -50.1341 H         1 UNK         0.0600 
    204 H204        0.4323  -27.0403  -51.0384 H         1 UNK         0.0600 
    205 H205       -2.9438  -28.0650  -48.1984 H         1 UNK         0.3000 
    206 H206       -5.1301  -28.0270  -48.5956 H         1 UNK         0.0600 
    207 H207       -4.5702  -29.6839  -50.3817 H         1 UNK         0.0600 
    208 H208       -5.9683  -28.7147  -50.8185 H         1 UNK         0.0600 
    209 H209       -4.4098  -28.3806  -51.5577 H         1 UNK         0.0600 
    210 H210       -4.2720  -25.6538  -47.9882 H         1 UNK         0.3000 
    211 H211       -4.5000  -23.4814  -48.0144 H         1 UNK         0.0600 
    212 H212       -7.0300  -23.9715  -49.6840 H         1 UNK         0.0600 
    213 H213       -6.6578  -22.5044  -48.7901 H         1 UNK         0.0600 
    214 H214       -6.9320  -24.0056  -47.9234 H         1 UNK         0.0600 
    215 H215       -2.5630  -24.1907  -49.5787 H         1 UNK         0.3000 
    216 H216       -1.2123  -23.8371  -51.2937 H         1 UNK         0.0600 
    217 H217       -1.0310  -21.4730  -52.1056 H         1 UNK         0.0600 
    218 H218       -1.1772  -21.5667  -50.3576 H         1 UNK         0.0600 
    219 H219       -2.5658  -21.0943  -51.3268 H         1 UNK         0.0600 
    220 H220       -2.8880  -25.5316  -52.1251 H         1 UNK         0.3000 
    221 H221       -3.9918  -26.5474  -53.7357 H         1 UNK         0.0600 
    222 H222       -2.6028  -24.5980  -55.6527 H         1 UNK         0.0600 
    223 H223       -1.8906  -26.0783  -55.0119 H         1 UNK         0.0600 
    224 H224       -3.2869  -26.1624  -56.0730 H         1 UNK         0.0600 
    225 H225       -5.4883  -24.7588  -52.3806 H         1 UNK         0.3000 
    226 H226       -7.3731  -23.7365  -52.1504 H         1 UNK         0.0600 
    227 H227       -8.3170  -25.6538  -53.3995 H         1 UNK         0.0600 
    228 H228       -9.2441  -24.1948  -53.7137 H         1 UNK         0.0600 
    229 H229       -8.1210  -24.7928  -54.9261 H         1 UNK         0.0600 
    230 H230       -6.0412  -22.9268  -55.3403 H         1 UNK         0.3000 
    231 H231       -7.5133  -20.4661  -55.6472 H         1 UNK         0.0600 
    232 H232       -5.0491  -21.5433  -57.1171 H         1 UNK         0.0600 
    233 H233       -6.0396  -20.1877  -57.6455 H         1 UNK         0.0600 
    234 H234       -6.7307  -21.8022  -57.5814 H         1 UNK         0.0600 
    235 H235       -4.3043  -21.2414  -54.3263 H         1 UNK         0.3000 
    236 H236       -2.6222  -20.0873  -53.4948 H         1 UNK         0.0600 
    237 H237       -4.3470  -19.5237  -51.7603 H         1 UNK         0.0600 
    238 H238       -3.1355  -18.2658  -51.9096 H         1 UNK         0.0600 
    239 H239       -4.7392  -18.0396  -52.6128 H         1 UNK         0.0600 
    240 H240       -3.2839  -16.8544  -53.5550 H         1 UNK         0.3000 
    241 H241       -1.7623  -16.3621  -56.0198 H         1 UNK         0.0600 
    242 H242       -5.5942  -15.8086  -56.8511 H         1 UNK         0.3800 
    243 H243       -5.0480  -16.9417  -55.6450 H         1 UNK         0.3800 
    244 H244       -0.8801  -15.1432  -54.2144 H         1 UNK         0.0800 
    245 H245       -1.7027  -13.9730  -55.1859 H         1 UNK         0.0800 
    246 H246       -1.5438  -15.9259  -51.8692 H         1 UNK         0.0800 
    247 H247       -0.7848  -14.3532  -51.8132 H         1 UNK         0.0800 
@<TRIPOS>BOND
     1    1    2 1    
     2    1  127 1    
     3    1  128 1    
     4    1  129 1    
     5    2    3 2    
     6    2    4 am   BACKBONE|DICT|INTERRES
     7    4    5 1    
     8    4  130 1    
     9    5    6 1    
    10    5   65 1    
    11    5  131 1    
    12    6    7 1    
    13    6  132 1    
    14    6  133 1    
    15    7    8 1    
    16    8    9 1    
    17    8  134 1    
    18    8  135 1    
    19    9   10 ar   
    20    9   14 ar   
    21   10   11 ar   
    22   10  136 1    
    23   11   12 ar   
    24   11  126 1    
    25   12   13 ar   
    26   12  137 1    
    27   13   14 ar   
    28   13   15 1    
    29   14  138 1    
    30   15   16 1    
    31   15  139 1    
    32   15  140 1    
    33   16   17 1    
    34   17   18 1    
    35   17  141 1    
    36   17  142 1    
    37   18   19 1    
    38   18   67 1    
    39   18  143 1    
    40   19   20 am   BACKBONE|DICT|INTERRES
    41   19  144 1    
    42   20   21 2    
    43   20   22 1    
    44   22   23 1    
    45   22   24 1    
    46   22  145 1    
    47   23  146 1    
    48   23  147 1    
    49   23  148 1    
    50   24   25 am   BACKBONE|DICT|INTERRES
    51   24  149 1    
    52   25   26 2    
    53   25   27 1    
    54   27   28 1    
    55   27   29 1    
    56   27  150 1    
    57   28  151 1    
    58   28  152 1    
    59   28  153 1    
    60   29   30 am   BACKBONE|DICT|INTERRES
    61   29  154 1    
    62   30   31 2    
    63   30   32 1    
    64   32   33 1    
    65   32   34 1    
    66   32  155 1    
    67   33  156 1    
    68   33  157 1    
    69   33  158 1    
    70   34   35 am   BACKBONE|DICT|INTERRES
    71   34  159 1    
    72   35   36 2    
    73   35   37 1    
    74   37   38 1    
    75   37   39 1    
    76   37  160 1    
    77   38  161 1    
    78   38  162 1    
    79   38  163 1    
    80   39   40 am   BACKBONE|DICT|INTERRES
    81   39  164 1    
    82   40   41 2    
    83   40   42 1    
    84   42   43 1    
    85   42   44 1    
    86   42  165 1    
    87   43  166 1    
    88   43  167 1    
    89   43  168 1    
    90   44   45 am   BACKBONE|DICT|INTERRES
    91   44  169 1    
    92   45   46 2    
    93   45   47 1    
    94   47   48 1    
    95   47   49 1    
    96   47  170 1    
    97   48  171 1    
    98   48  172 1    
    99   48  173 1    
   100   49   50 am   BACKBONE|DICT|INTERRES
   101   49  174 1    
   102   50   51 2    
   103   50   52 1    
   104   52   53 1    
   105   52   54 1    
   106   52  175 1    
   107   53  176 1    
   108   53  177 1    
   109   53  178 1    
   110   54   55 am   BACKBONE|DICT|INTERRES
   111   54  179 1    
   112   55   56 2    
   113   55   57 1    
   114   57   58 1    
   115   57   59 1    
   116   57  180 1    
   117   58  181 1    
   118   58  182 1    
   119   58  183 1    
   120   59   60 am   BACKBONE|DICT|INTERRES
   121   59  184 1    
   122   60   61 2    
   123   60   62 1    
   124   62   63 1    
   125   62   64 1    
   126   62  185 1    
   127   63  186 1    
   128   63  187 1    
   129   63  188 1    
   130   64   65 am   BACKBONE|DICT|INTERRES
   131   64  189 1    
   132   65   66 2    
   133   67   68 2    
   134   67   69 am   BACKBONE|DICT|INTERRES
   135   69   70 1    
   136   69  190 1    
   137   70   71 1    
   138   70   72 1    
   139   70  191 1    
   140   71  192 1    
   141   71  193 1    
   142   71  194 1    
   143   72   73 2    
   144   72   74 am   BACKBONE|DICT|INTERRES
   145   74   75 1    
   146   74  195 1    
   147   75   76 1    
   148   75   77 1    
   149   75  196 1    
   150   76  197 1    
   151   76  198 1    
   152   76  199 1    
   153   77   78 2    
   154   77   79 am   BACKBONE|DICT|INTERRES
   155   79   80 1    
   156   79  200 1    
   157   80   81 1    
   158   80   82 1    
   159   80  201 1    
   160   81  202 1    
   161   81  203 1    
   162   81  204 1    
   163   82   83 2    
   164   82   84 am   BACKBONE|DICT|INTERRES
   165   84   85 1    
   166   84  205 1    
   167   85   86 1    
   168   85   87 1    
   169   85  206 1    
   170   86  207 1    
   171   86  208 1    
   172   86  209 1    
   173   87   88 2    
   174   87   89 am   BACKBONE|DICT|INTERRES
   175   89   90 1    
   176   89  210 1    
   177   90   91 1    
   178   90   92 1    
   179   90  211 1    
   180   91  212 1    
   181   91  213 1    
   182   91  214 1    
   183   92   93 2    
   184   92   94 am   BACKBONE|DICT|INTERRES
   185   94   95 1    
   186   94  215 1    
   187   95   96 1    
   188   95   97 1    
   189   95  216 1    
   190   96  217 1    
   191   96  218 1    
   192   96  219 1    
   193   97   98 2    
   194   97   99 am   BACKBONE|DICT|INTERRES
   195   99  100 1    
   196   99  220 1    
   197  100  101 1    
   198  100  102 1    
   199  100  221 1    
   200  101  222 1    
   201  101  223 1    
   202  101  224 1    
   203  102  103 2    
   204  102  104 am   BACKBONE|DICT|INTERRES
   205  104  105 1    
   206  104  225 1    
   207  105  106 1    
   208  105  107 1    
   209  105  226 1    
   210  106  227 1    
   211  106  228 1    
   212  106  229 1    
   213  107  108 2    
   214  107  109 am   BACKBONE|DICT|INTERRES
   215  109  110 1    
   216  109  230 1    
   217  110  111 1    
   218  110  112 1    
   219  110  231 1    
   220  111  232 1    
   221  111  233 1    
   222  111  234 1    
   223  112  113 2    
   224  112  114 am   BACKBONE|DICT|INTERRES
   225  114  115 1    
   226  114  235 1    
   227  115  116 1    
   228  115  117 1    
   229  115  236 1    
   230  116  237 1    
   231  116  238 1    
   232  116  239 1    
   233  117  118 2    
   234  117  119 am   BACKBONE|DICT|INTERRES
   235  119  120 1    
   236  119  240 1    
   237  120  121 1    
   238  120  124 1    
   239  120  241 1    
   240  121  122 am   BACKBONE|DICT|INTERRES
   241  121  123 2    
   242  122  242 1    
   243  122  243 1    
   244  124  125 1    
   245  124  244 1    
   246  124  245 1    
   247  125  126 1    
   248  126  246 1    
   249  126  247 1    
@<TRIPOS>SUBSTRUCTURE
     1 UNK         1 GROUP             0       ****    0 ROOT    
