@<TRIPOS>MOLECULE
3R540
247   249    1
SMALL
USER_CHARGES


@<TRIPOS>ATOM
      1 CA         -3.0483  -14.9419  -51.3890 C.3       0 UNK        -0.1800 
      2 C          -1.6272  -15.2198  -50.8994 C.2       0 UNK         0.5000 
      3 O          -0.7593  -14.3678  -51.0746 O.2       0 UNK        -0.5000 
      4 N          -1.3252  -16.3786  -50.2936 N.am      1 UNK        -0.5000 
      5 CA         -2.2141  -17.4936  -49.9375 C.3       1 UNK         0.1400 
      6 C6         -2.9053  -18.1553  -51.1637 C.3       23 UNK        -0.0398 
      7 S7         -3.0609  -19.9661  -50.9836 S.3       23 UNK        -0.2404 
      8 C8         -1.7558  -20.5807  -52.1059 C.3       23 UNK        -0.0205 
      9 C9         -0.4064  -19.9303  -51.8425 C.ar      23 UNK        -0.0193 
     10 C10         0.2043  -19.1552  -52.8304 C.ar      23 UNK        -0.1150 
     11 C11         1.4104  -18.4955  -52.5763 C.ar      23 UNK        -0.0193 
     12 C12         2.0118  -18.6248  -51.3201 C.ar      23 UNK        -0.1150 
     13 C13         1.4180  -19.4145  -50.3309 C.ar      23 UNK        -0.0193 
     14 C14         0.2192  -20.0766  -50.6037 C.ar      23 UNK        -0.1150 
     15 C15         2.0416  -19.5384  -48.9534 C.3       23 UNK        -0.0205 
     16 S16         2.8857  -21.1378  -48.7503 S.3       23 UNK        -0.2404 
     17 C17         2.7546  -21.3364  -46.9405 C.3       23 UNK        -0.0398 
     18 CA          1.7157  -22.3753  -46.4390 C.3       11 UNK         0.1400 
     19 N           1.5884  -22.2952  -44.9828 N.am      11 UNK        -0.5000 
     20 C           0.9322  -23.1661  -44.2051 C.2       10 UNK         0.5000 
     21 O           0.3978  -24.1951  -44.6206 O.2       10 UNK        -0.5000 
     22 CA          0.8223  -22.7922  -42.7145 C.3       10 UNK         0.1400 
     23 CB          2.1170  -23.1400  -41.9646 C.3       10 UNK        -0.1800 
     24 N           0.5080  -21.3755  -42.5124 N.am      10 UNK        -0.5000 
     25 C          -0.6314  -20.7918  -42.9114 C.2       9 UNK         0.5000 
     26 O          -1.5529  -21.3934  -43.4588 O.2       9 UNK        -0.5000 
     27 CA         -0.7470  -19.2734  -42.7062 C.3       9 UNK         0.1400 
     28 CB         -1.0594  -18.9522  -41.2361 C.3       9 UNK        -0.1800 
     29 N           0.4580  -18.5588  -43.1244 N.am      9 UNK        -0.5000 
     30 C           0.9522  -18.5347  -44.3706 C.2       8 UNK         0.5000 
     31 O           0.4249  -19.0924  -45.3288 O.2       8 UNK        -0.5000 
     32 CA          2.3013  -17.8255  -44.5710 C.3       8 UNK         0.1400 
     33 CB          2.1124  -16.3104  -44.7295 C.3       8 UNK        -0.1800 
     34 N           3.2308  -18.1061  -43.4772 N.am      8 UNK        -0.5000 
     35 C           3.7584  -19.3132  -43.2246 C.2       7 UNK         0.5000 
     36 O           3.5421  -20.3135  -43.9098 O.2       7 UNK        -0.5000 
     37 CA          4.6396  -19.4258  -41.9680 C.3       7 UNK         0.1400 
     38 CB          6.0698  -18.9503  -42.2630 C.3       7 UNK        -0.1800 
     39 N           4.0955  -18.6658  -40.8411 N.am      7 UNK        -0.5000 
     40 C           2.9655  -18.9850  -40.1945 C.2       6 UNK         0.5000 
     41 O           2.2862  -19.9786  -40.4566 O.2       6 UNK        -0.5000 
     42 CA          2.4919  -17.9966  -39.1095 C.3       6 UNK         0.1400 
     43 CB          3.2074  -18.2697  -37.7782 C.3       6 UNK        -0.1800 
     44 N           2.6726  -16.5872  -39.4829 N.am      6 UNK        -0.5000 
     45 C           2.0777  -16.0097  -40.5341 C.2       5 UNK         0.5000 
     46 O           1.3324  -16.6195  -41.3062 O.2       5 UNK        -0.5000 
     47 CA          2.3799  -14.5263  -40.7992 C.3       5 UNK         0.1400 
     48 CB          3.8298  -14.3330  -41.2806 C.3       5 UNK        -0.1800 
     49 N           1.4501  -14.0908  -41.8322 N.am      5 UNK        -0.5000 
     50 C           1.1142  -12.8484  -42.1872 C.2       4 UNK         0.5000 
     51 O           1.5882  -11.8350  -41.6727 O.2       4 UNK        -0.5000 
     52 CA          0.0654  -12.7224  -43.3150 C.3       4 UNK         0.1400 
     53 CB          0.7522  -12.3974  -44.6503 C.3       4 UNK        -0.1800 
     54 N          -0.7452  -13.9334  -43.4906 N.am      4 UNK        -0.5000 
     55 C          -1.6933  -14.3545  -42.6451 C.2       3 UNK         0.5000 
     56 O          -2.0522  -13.7116  -41.6572 O.2       3 UNK        -0.5000 
     57 CA         -2.3313  -15.7247  -42.9598 C.3       3 UNK         0.1400 
     58 CB         -3.3095  -16.1886  -41.8651 C.3       3 UNK        -0.1800 
     59 N          -3.0303  -15.7539  -44.2452 N.am      3 UNK        -0.5000 
     60 C          -2.4564  -15.8177  -45.4516 C.2       2 UNK         0.5000 
     61 O          -1.2355  -15.8095  -45.6324 O.2       2 UNK        -0.5000 
     62 CA         -3.4146  -15.8854  -46.6497 C.3       2 UNK         0.1400 
     63 CB         -4.0362  -14.5098  -46.9449 C.3       2 UNK        -0.1800 
     64 N          -2.6862  -16.3435  -47.8266 N.am      2 UNK        -0.5000 
     65 C          -3.1798  -17.1329  -48.7865 C.2       1 UNK         0.5000 
     66 O          -4.3376  -17.5547  -48.7924 O.2       1 UNK        -0.5000 
     67 C           0.3331  -22.2826  -47.1311 C.2       11 UNK         0.5000 
     68 O           0.0330  -23.1027  -47.9990 O.2       11 UNK        -0.5000 
     69 N          -0.4973  -21.3184  -46.7084 N.am      12 UNK        -0.5000 
     70 CA         -1.8665  -21.1206  -47.1805 C.3       12 UNK         0.1400 
     71 CB         -2.4406  -19.8267  -46.5853 C.3       12 UNK        -0.1800 
     72 C          -2.7777  -22.3153  -46.8668 C.2       12 UNK         0.5000 
     73 O          -3.4695  -22.7915  -47.7651 O.2       12 UNK        -0.5000 
     74 N          -2.7377  -22.8028  -45.6185 N.am      13 UNK        -0.5000 
     75 CA         -3.5402  -23.9230  -45.1190 C.3       13 UNK         0.1400 
     76 CB         -3.2492  -24.1426  -43.6274 C.3       13 UNK        -0.1800 
     77 C          -3.3468  -25.2336  -45.9023 C.2       13 UNK         0.5000 
     78 O          -4.3127  -25.9770  -46.0752 O.2       13 UNK        -0.5000 
     79 N          -2.1321  -25.4641  -46.4200 N.am      14 UNK        -0.5000 
     80 CA         -1.7998  -26.5918  -47.2955 C.3       14 UNK         0.1400 
     81 CB         -0.2777  -26.6418  -47.4943 C.3       14 UNK        -0.1800 
     82 C          -2.5281  -26.5577  -48.6578 C.2       14 UNK         0.5000 
     83 O          -2.7069  -27.6109  -49.2703 O.2       14 UNK        -0.5000 
     84 N          -2.9526  -25.3641  -49.0931 N.am      15 UNK        -0.5000 
     85 CA         -3.7441  -25.1226  -50.3008 C.3       15 UNK         0.1400 
     86 CB         -3.0895  -23.9668  -51.0755 C.3       15 UNK        -0.1800 
     87 C          -5.2165  -24.7925  -49.9727 C.2       15 UNK         0.5000 
     88 O          -5.9686  -24.4477  -50.8842 O.2       15 UNK        -0.5000 
     89 N          -5.5956  -24.8754  -48.6864 N.am      16 UNK        -0.5000 
     90 CA         -6.8880  -24.4981  -48.0964 C.3       16 UNK         0.1400 
     91 CB         -8.0330  -25.3636  -48.6628 C.3       16 UNK        -0.1800 
     92 C          -7.1961  -22.9823  -48.1564 C.2       16 UNK         0.5000 
     93 O          -8.3516  -22.5943  -47.9756 O.2       16 UNK        -0.5000 
     94 N          -6.1498  -22.1670  -48.3583 N.am      17 UNK        -0.5000 
     95 CA         -6.1025  -20.7067  -48.4771 C.3       17 UNK         0.1400 
     96 CB         -6.5663  -20.0366  -47.1691 C.3       17 UNK        -0.1800 
     97 C          -6.8431  -20.1314  -49.7025 C.2       17 UNK         0.5000 
     98 O          -7.7062  -20.7800  -50.2959 O.2       17 UNK        -0.5000 
     99 N          -6.4675  -18.8956  -50.0609 N.am      18 UNK        -0.5000 
    100 CA        -7.0394  -18.0461  -51.1135 C.3       18 UNK         0.1400 
    101 CB        -8.4911  -17.6602  -50.7622 C.3       18 UNK        -0.1800 
    102 C         -6.9142  -18.5942  -52.5538 C.2       18 UNK         0.5000 
    103 O         -7.5541  -18.0555  -53.4583 O.2       18 UNK        -0.5000 
    104 N         -6.0860  -19.6285  -52.7617 N.am      19 UNK        -0.5000 
    105 CA        -5.8423  -20.2452  -54.0691 C.3       19 UNK         0.1400 
    106 CB        -5.1676  -21.6114  -53.8709 C.3       19 UNK        -0.1800 
    107 C         -5.0130  -19.3443  -55.0054 C.2       19 UNK         0.5000 
    108 O         -5.2418  -19.3571  -56.2155 O.2       19 UNK        -0.5000 
    109 N         -4.1000  -18.5591  -54.4124 N.am      20 UNK        -0.5000 
    110 CA        -3.2419  -17.5516  -55.0437 C.3       20 UNK         0.1400 
    111 CB        -4.0851  -16.3225  -55.4505 C.3       20 UNK        -0.1800 
    112 C         -2.3679  -18.1343  -56.1770 C.2       20 UNK         0.5000 
    113 O         -1.7495  -19.1803  -55.9729 O.2       20 UNK        -0.5000 
    114 N         -2.3118  -17.4395  -57.3245 N.am      21 UNK        -0.5000 
    115 CA        -1.5177  -17.7559  -58.5202 C.3       21 UNK         0.1400 
    116 CB        -1.9972  -19.0716  -59.1697 C.3       21 UNK        -0.1800 
    117 C          0.0056  -17.7252  -58.2630 C.2       21 UNK         0.5000 
    118 O          0.7526  -18.5060  -58.8564 O.2       21 UNK        -0.5000 
    119 N          0.4332  -16.8228  -57.3714 N.am      22 UNK        -0.5000 
    120 CA         1.8334  -16.6119  -56.9790 C.3       22 UNK         0.1400 
    121 C          2.6986  -16.0155  -58.1243 C.2       22 UNK         0.5000 
    122 N          3.9683  -16.3885  -58.2100 N.am      22 UNK        -0.7600 
    123 O          2.2424  -15.1861  -58.9088 O.2       22 UNK        -0.5000 
    124 C124        1.9475  -15.7358  -55.7033 C.3       23 UNK        -0.0398 
    125 S125        0.9619  -16.3620  -54.2996 S.3       23 UNK        -0.2404 
    126 C126        2.0682  -17.6646  -53.6682 C.3       23 UNK        -0.0205 
    127 H127       -3.1554  -13.8897  -51.6535 H         1 UNK         0.0600 
    128 H128       -3.7970  -15.1592  -50.6292 H         1 UNK         0.0600 
    129 H129       -3.2670  -15.5272  -52.2815 H         1 UNK         0.0600 
    130 H130       -0.3615  -16.5171  -50.0241 H         1 UNK         0.3000 
    131 H131       -1.5393  -18.2298  -49.5001 H         1 UNK         0.0600 
    132 H132       -2.3263  -17.9545  -52.0639 H         1 UNK         0.0800 
    133 H133       -3.8911  -17.7293  -51.3521 H         1 UNK         0.0800 
    134 H134       -2.0653  -20.4126  -53.1386 H         1 UNK         0.0800 
    135 H135       -1.6569  -21.6594  -51.9876 H         1 UNK         0.0800 
    136 H136       -0.2652  -19.0490  -53.7979 H         1 UNK         0.1150 
    137 H137        2.9423  -18.1154  -51.1125 H         1 UNK         0.1150 
    138 H138       -0.2406  -20.6877  -49.8414 H         1 UNK         0.1150 
    139 H139        2.7517  -18.7302  -48.7719 H         1 UNK         0.0800 
    140 H140        1.2535  -19.4277  -48.2065 H         1 UNK         0.0800 
    141 H141        2.5495  -20.3623  -46.4979 H         1 UNK         0.0800 
    142 H142        3.7421  -21.6134  -46.5689 H         1 UNK         0.0800 
    143 H143        2.1113  -23.3663  -46.6712 H         1 UNK         0.0600 
    144 H144        2.0341  -21.4984  -44.5393 H         1 UNK         0.3000 
    145 H145        0.0098  -23.3806  -42.2833 H         1 UNK         0.0600 
    146 H146        2.0169  -22.9456  -40.8966 H         1 UNK         0.0600 
    147 H147        2.9642  -22.5590  -42.3305 H         1 UNK         0.0600 
    148 H148        2.3655  -24.1955  -42.0823 H         1 UNK         0.0600 
    149 H149        1.2027  -20.8148  -42.0304 H         1 UNK         0.3000 
    150 H150       -1.5741  -18.9122  -43.3206 H         1 UNK         0.0600 
    151 H151       -2.0239  -19.3695  -40.9446 H         1 UNK         0.0600 
    152 H152       -1.1006  -17.8789  -41.0593 H         1 UNK         0.0600 
    153 H153       -0.3087  -19.3639  -40.5621 H         1 UNK         0.0600 
    154 H154        0.9379  -18.0258  -42.4033 H         1 UNK         0.3000 
    155 H155        2.7475  -18.2026  -45.4930 H         1 UNK         0.0600 
    156 H156        1.5201  -16.0875  -45.6177 H         1 UNK         0.0600 
    157 H157        3.0679  -15.7975  -44.8391 H         1 UNK         0.0600 
    158 H158        1.5919  -15.8780  -43.8781 H         1 UNK         0.0600 
    159 H159        3.4266  -17.3506  -42.8393 H         1 UNK         0.3000 
    160 H160        4.6814  -20.4794  -41.6834 H         1 UNK         0.0600 
    161 H161        6.0984  -17.8934  -42.5312 H         1 UNK         0.0600 
    162 H162        6.5037  -19.5114  -43.0918 H         1 UNK         0.0600 
    163 H163        6.7189  -19.0952  -41.3992 H         1 UNK         0.0600 
    164 H164        4.5945  -17.8342  -40.5621 H         1 UNK         0.3000 
    165 H165        1.4233  -18.1651  -38.9602 H         1 UNK         0.0600 
    166 H166        2.8095  -17.6419  -36.9808 H         1 UNK         0.0600 
    167 H167        3.0744  -19.3076  -37.4695 H         1 UNK         0.0600 
    168 H168        4.2796  -18.0831  -37.8498 H         1 UNK         0.0600 
    169 H169        3.2753  -16.0346  -38.8902 H         1 UNK         0.3000 
    170 H170        2.2017  -13.9583  -39.8843 H         1 UNK         0.0600 
    171 H171        4.0278  -14.8943  -42.1947 H         1 UNK         0.0600 
    172 H172        4.0431  -13.2834  -41.4830 H         1 UNK         0.0600 
    173 H173        4.5449  -14.6650  -40.5273 H         1 UNK         0.0600 
    174 H174        0.9635  -14.8652  -42.2656 H         1 UNK         0.3000 
    175 H175       -0.5988  -11.8947  -43.0584 H         1 UNK         0.0600 
    176 H176        1.4233  -13.1986  -44.9626 H         1 UNK         0.0600 
    177 H177        0.0199  -12.2451  -45.4436 H         1 UNK         0.0600 
    178 H178        1.3434  -11.4839  -44.5744 H         1 UNK         0.0600 
    179 H179       -0.5620  -14.5010  -44.3129 H         1 UNK         0.3000 
    180 H180       -1.5116  -16.4433  -42.9994 H         1 UNK         0.0600 
    181 H181       -4.1820  -15.5373  -41.8023 H         1 UNK         0.0600 
    182 H182       -2.8325  -16.1908  -40.8842 H         1 UNK         0.0600 
    183 H183       -3.6605  -17.2031  -42.0549 H         1 UNK         0.0600 
    184 H184       -4.0382  -15.7200  -44.1930 H         1 UNK         0.3000 
    185 H185       -4.2054  -16.5975  -46.4033 H         1 UNK         0.0600 
    186 H186       -3.2729  -13.7689  -47.1864 H         1 UNK         0.0600 
    187 H187       -4.7271  -14.5635  -47.7866 H         1 UNK         0.0600 
    188 H188       -4.5987  -14.1367  -46.0884 H         1 UNK         0.0600 
    189 H189       -1.7102  -16.0769  -47.8449 H         1 UNK         0.3000 
    190 H190       -0.1601  -20.6421  -46.0256 H         1 UNK         0.3000 
    191 H191       -1.8363  -21.0082  -48.2649 H         1 UNK         0.0600 
    192 H192       -1.8230  -18.9684  -46.8471 H         1 UNK         0.0600 
    193 H193       -2.4987  -19.8703  -45.4980 H         1 UNK         0.0600 
    194 H194       -3.4463  -19.6339  -46.9584 H         1 UNK         0.0600 
    195 H195       -2.1585  -22.3280  -44.9286 H         1 UNK         0.3000 
    196 H196       -4.5892  -23.6378  -45.2216 H         1 UNK         0.0600 
    197 H197       -3.5118  -23.2620  -43.0412 H         1 UNK         0.0600 
    198 H198       -2.1951  -24.3601  -43.4526 H         1 UNK         0.0600 
    199 H199       -3.8286  -24.9781  -43.2322 H         1 UNK         0.0600 
    200 H200       -1.3908  -24.8025  -46.2262 H         1 UNK         0.3000 
    201 H201       -2.1054  -27.5077  -46.7857 H         1 UNK         0.0600 
    202 H202        0.2448  -26.7000  -46.5391 H         1 UNK         0.0600 
    203 H203        0.0880  -25.7617  -48.0233 H         1 UNK         0.0600 
    204 H204        0.0108  -27.5171  -48.0777 H         1 UNK         0.0600 
    205 H205       -2.7827  -24.5456  -48.5175 H         1 UNK         0.3000 
    206 H206       -3.7452  -26.0068  -50.9408 H         1 UNK         0.0600 
    207 H207       -2.0513  -24.1933  -51.3185 H         1 UNK         0.0600 
    208 H208       -3.1035  -23.0425  -50.4971 H         1 UNK         0.0600 
    209 H209       -3.6081  -23.7747  -52.0154 H         1 UNK         0.0600 
    210 H210       -4.9029  -25.1907  -48.0186 H         1 UNK         0.3000 
    211 H211       -6.8010  -24.7350  -47.0352 H         1 UNK         0.0600 
    212 H212       -8.2487  -25.1211  -49.7035 H         1 UNK         0.0600 
    213 H213       -8.9534  -25.2129  -48.0976 H         1 UNK         0.0600 
    214 H214       -7.7907  -26.4248  -48.6071 H         1 UNK         0.0600 
    215 H215       -5.2384  -22.6110  -48.4273 H         1 UNK         0.3000 
    216 H216       -5.0467  -20.4693  -48.6136 H         1 UNK         0.0600 
    217 H217       -6.3947  -18.9599  -47.1982 H         1 UNK         0.0600 
    218 H218       -6.0181  -20.4269  -46.3115 H         1 UNK         0.0600 
    219 H219       -7.6302  -20.1916  -46.9885 H         1 UNK         0.0600 
    220 H220       -5.7235  -18.4509  -49.5230 H         1 UNK         0.3000 
    221 H221       -6.4492  -17.1288  -51.0989 H         1 UNK         0.0600 
    222 H222       -8.5554  -17.2436  -49.7569 H         1 UNK         0.0600 
    223 H223       -8.8759  -16.9048  -51.4483 H         1 UNK         0.0600 
    224 H224       -9.1612  -18.5188  -50.8132 H         1 UNK         0.0600 
    225 H225       -5.6137  -20.0336  -51.9665 H         1 UNK         0.3000 
    226 H226       -6.8088  -20.4163  -54.5481 H         1 UNK         0.0600 
    227 H227       -5.7849  -22.2714  -53.2605 H         1 UNK         0.0600 
    228 H228       -5.0075  -22.1092  -54.8281 H         1 UNK         0.0600 
    229 H229       -4.1978  -21.5201  -53.3844 H         1 UNK         0.0600 
    230 H230       -3.9871  -18.6733  -53.4177 H         1 UNK         0.3000 
    231 H231       -2.5388  -17.2207  -54.2789 H         1 UNK         0.0600 
    232 H232       -3.4546  -15.4974  -55.7837 H         1 UNK         0.0600 
    233 H233       -4.6653  -15.9532  -54.6045 H         1 UNK         0.0600 
    234 H234       -4.7880  -16.5567  -56.2511 H         1 UNK         0.0600 
    235 H235       -2.8657  -16.5968  -57.3862 H         1 UNK         0.3000 
    236 H236       -1.7135  -16.9537  -59.2330 H         1 UNK         0.0600 
    237 H237       -1.7675  -19.9383  -58.5494 H         1 UNK         0.0600 
    238 H238       -3.0738  -19.0575  -59.3398 H         1 UNK         0.0600 
    239 H239       -1.5187  -19.2272  -60.1372 H         1 UNK         0.0600 
    240 H240       -0.2448  -16.2188  -56.9329 H         1 UNK         0.3000 
    241 H241        2.2422  -17.5966  -56.7454 H         1 UNK         0.0600 
    242 H242        4.5446  -15.9974  -58.9395 H         1 UNK         0.3800 
    243 H243        4.3684  -17.0628  -57.5756 H         1 UNK         0.3800 
    244 H244        1.6131  -14.7184  -55.9140 H         1 UNK         0.0800 
    245 H245        2.9888  -15.6504  -55.3872 H         1 UNK         0.0800 
    246 H246        2.3518  -18.3324  -54.4820 H         1 UNK         0.0800 
    247 H247        2.9882  -17.2041  -53.3049 H         1 UNK         0.0800 
@<TRIPOS>BOND
     1    1    2 1    
     2    1  127 1    
     3    1  128 1    
     4    1  129 1    
     5    2    3 2    
     6    2    4 am   BACKBONE|DICT|INTERRES
     7    4    5 1    
     8    4  130 1    
     9    5    6 1    
    10    5   65 1    
    11    5  131 1    
    12    6    7 1    
    13    6  132 1    
    14    6  133 1    
    15    7    8 1    
    16    8    9 1    
    17    8  134 1    
    18    8  135 1    
    19    9   10 ar   
    20    9   14 ar   
    21   10   11 ar   
    22   10  136 1    
    23   11   12 ar   
    24   11  126 1    
    25   12   13 ar   
    26   12  137 1    
    27   13   14 ar   
    28   13   15 1    
    29   14  138 1    
    30   15   16 1    
    31   15  139 1    
    32   15  140 1    
    33   16   17 1    
    34   17   18 1    
    35   17  141 1    
    36   17  142 1    
    37   18   19 1    
    38   18   67 1    
    39   18  143 1    
    40   19   20 am   BACKBONE|DICT|INTERRES
    41   19  144 1    
    42   20   21 2    
    43   20   22 1    
    44   22   23 1    
    45   22   24 1    
    46   22  145 1    
    47   23  146 1    
    48   23  147 1    
    49   23  148 1    
    50   24   25 am   BACKBONE|DICT|INTERRES
    51   24  149 1    
    52   25   26 2    
    53   25   27 1    
    54   27   28 1    
    55   27   29 1    
    56   27  150 1    
    57   28  151 1    
    58   28  152 1    
    59   28  153 1    
    60   29   30 am   BACKBONE|DICT|INTERRES
    61   29  154 1    
    62   30   31 2    
    63   30   32 1    
    64   32   33 1    
    65   32   34 1    
    66   32  155 1    
    67   33  156 1    
    68   33  157 1    
    69   33  158 1    
    70   34   35 am   BACKBONE|DICT|INTERRES
    71   34  159 1    
    72   35   36 2    
    73   35   37 1    
    74   37   38 1    
    75   37   39 1    
    76   37  160 1    
    77   38  161 1    
    78   38  162 1    
    79   38  163 1    
    80   39   40 am   BACKBONE|DICT|INTERRES
    81   39  164 1    
    82   40   41 2    
    83   40   42 1    
    84   42   43 1    
    85   42   44 1    
    86   42  165 1    
    87   43  166 1    
    88   43  167 1    
    89   43  168 1    
    90   44   45 am   BACKBONE|DICT|INTERRES
    91   44  169 1    
    92   45   46 2    
    93   45   47 1    
    94   47   48 1    
    95   47   49 1    
    96   47  170 1    
    97   48  171 1    
    98   48  172 1    
    99   48  173 1    
   100   49   50 am   BACKBONE|DICT|INTERRES
   101   49  174 1    
   102   50   51 2    
   103   50   52 1    
   104   52   53 1    
   105   52   54 1    
   106   52  175 1    
   107   53  176 1    
   108   53  177 1    
   109   53  178 1    
   110   54   55 am   BACKBONE|DICT|INTERRES
   111   54  179 1    
   112   55   56 2    
   113   55   57 1    
   114   57   58 1    
   115   57   59 1    
   116   57  180 1    
   117   58  181 1    
   118   58  182 1    
   119   58  183 1    
   120   59   60 am   BACKBONE|DICT|INTERRES
   121   59  184 1    
   122   60   61 2    
   123   60   62 1    
   124   62   63 1    
   125   62   64 1    
   126   62  185 1    
   127   63  186 1    
   128   63  187 1    
   129   63  188 1    
   130   64   65 am   BACKBONE|DICT|INTERRES
   131   64  189 1    
   132   65   66 2    
   133   67   68 2    
   134   67   69 am   BACKBONE|DICT|INTERRES
   135   69   70 1    
   136   69  190 1    
   137   70   71 1    
   138   70   72 1    
   139   70  191 1    
   140   71  192 1    
   141   71  193 1    
   142   71  194 1    
   143   72   73 2    
   144   72   74 am   BACKBONE|DICT|INTERRES
   145   74   75 1    
   146   74  195 1    
   147   75   76 1    
   148   75   77 1    
   149   75  196 1    
   150   76  197 1    
   151   76  198 1    
   152   76  199 1    
   153   77   78 2    
   154   77   79 am   BACKBONE|DICT|INTERRES
   155   79   80 1    
   156   79  200 1    
   157   80   81 1    
   158   80   82 1    
   159   80  201 1    
   160   81  202 1    
   161   81  203 1    
   162   81  204 1    
   163   82   83 2    
   164   82   84 am   BACKBONE|DICT|INTERRES
   165   84   85 1    
   166   84  205 1    
   167   85   86 1    
   168   85   87 1    
   169   85  206 1    
   170   86  207 1    
   171   86  208 1    
   172   86  209 1    
   173   87   88 2    
   174   87   89 am   BACKBONE|DICT|INTERRES
   175   89   90 1    
   176   89  210 1    
   177   90   91 1    
   178   90   92 1    
   179   90  211 1    
   180   91  212 1    
   181   91  213 1    
   182   91  214 1    
   183   92   93 2    
   184   92   94 am   BACKBONE|DICT|INTERRES
   185   94   95 1    
   186   94  215 1    
   187   95   96 1    
   188   95   97 1    
   189   95  216 1    
   190   96  217 1    
   191   96  218 1    
   192   96  219 1    
   193   97   98 2    
   194   97   99 am   BACKBONE|DICT|INTERRES
   195   99  100 1    
   196   99  220 1    
   197  100  101 1    
   198  100  102 1    
   199  100  221 1    
   200  101  222 1    
   201  101  223 1    
   202  101  224 1    
   203  102  103 2    
   204  102  104 am   BACKBONE|DICT|INTERRES
   205  104  105 1    
   206  104  225 1    
   207  105  106 1    
   208  105  107 1    
   209  105  226 1    
   210  106  227 1    
   211  106  228 1    
   212  106  229 1    
   213  107  108 2    
   214  107  109 am   BACKBONE|DICT|INTERRES
   215  109  110 1    
   216  109  230 1    
   217  110  111 1    
   218  110  112 1    
   219  110  231 1    
   220  111  232 1    
   221  111  233 1    
   222  111  234 1    
   223  112  113 2    
   224  112  114 am   BACKBONE|DICT|INTERRES
   225  114  115 1    
   226  114  235 1    
   227  115  116 1    
   228  115  117 1    
   229  115  236 1    
   230  116  237 1    
   231  116  238 1    
   232  116  239 1    
   233  117  118 2    
   234  117  119 am   BACKBONE|DICT|INTERRES
   235  119  120 1    
   236  119  240 1    
   237  120  121 1    
   238  120  124 1    
   239  120  241 1    
   240  121  122 am   BACKBONE|DICT|INTERRES
   241  121  123 2    
   242  122  242 1    
   243  122  243 1    
   244  124  125 1    
   245  124  244 1    
   246  124  245 1    
   247  125  126 1    
   248  126  246 1    
   249  126  247 1    
@<TRIPOS>SUBSTRUCTURE
     1 UNK         1 GROUP             0       ****    0 ROOT    
