@<TRIPOS>MOLECULE
3R540
247   249    1
SMALL
USER_CHARGES


@<TRIPOS>ATOM
      1 CA          6.3128  -13.7795  -49.4039 C.3       0 UNK        -0.1800 
      2 C           4.8049  -13.5770  -49.3574 C.2       0 UNK         0.5000 
      3 O           4.2778  -12.7906  -50.1428 O.2       0 UNK        -0.5000 
      4 N           4.1318  -14.2807  -48.4337 N.am      1 UNK        -0.5000 
      5 CA          2.6802  -14.3117  -48.1820 C.3       1 UNK         0.1400 
      6 C6          1.8938  -15.3038  -49.0862 C.3       23 UNK        -0.0398 
      7 S7          1.8796  -14.9526  -50.8807 S.3       23 UNK        -0.2404 
      8 C8          3.0032  -16.2318  -51.5301 C.3       23 UNK        -0.0205 
      9 C9          2.4295  -17.6328  -51.3721 C.ar      23 UNK        -0.0193 
     10 C10         1.3775  -18.0598  -52.1886 C.ar      23 UNK        -0.1150 
     11 C11         0.8356  -19.3394  -52.0354 C.ar      23 UNK        -0.0193 
     12 C12         1.3538  -20.1935  -51.0580 C.ar      23 UNK        -0.1150 
     13 C13         2.4051  -19.7780  -50.2375 C.ar      23 UNK        -0.0193 
     14 C14         2.9473  -18.5017  -50.4066 C.ar      23 UNK        -0.1150 
     15 C15         2.9482  -20.7065  -49.1659 C.3       23 UNK        -0.0205 
     16 S16         2.3289  -20.2418  -47.5194 S.3       23 UNK        -0.2404 
     17 C17         2.6785  -21.7728  -46.5891 C.3       23 UNK        -0.0398 
     18 CA          1.4520  -22.6606  -46.2502 C.3       11 UNK         0.1400 
     19 N           0.6880  -22.1846  -45.0939 N.am      11 UNK        -0.5000 
     20 C          -0.1316  -22.9747  -44.3838 C.2       10 UNK         0.5000 
     21 O          -0.3201  -24.1639  -44.6425 O.2       10 UNK        -0.5000 
     22 CA         -0.8925  -22.3365  -43.2096 C.3       10 UNK         0.1400 
     23 CB          0.0289  -22.1490  -41.9953 C.3       10 UNK        -0.1800 
     24 N          -1.5219  -21.0655  -43.5631 N.am      10 UNK        -0.5000 
     25 C          -2.4922  -20.9324  -44.4789 C.2       9 UNK         0.5000 
     26 O          -2.9708  -21.8744  -45.1104 O.2       9 UNK        -0.5000 
     27 CA         -2.9895  -19.5041  -44.7631 C.3       9 UNK         0.1400 
     28 CB         -3.9860  -19.0494  -43.6865 C.3       9 UNK        -0.1800 
     29 N          -1.8975  -18.5366  -44.8639 N.am      9 UNK        -0.5000 
     30 C          -0.9345  -18.5799  -45.7960 C.2       8 UNK         0.5000 
     31 O          -0.8861  -19.4231  -46.6890 O.2       8 UNK        -0.5000 
     32 CA          0.1926  -17.5395  -45.6743 C.3       8 UNK         0.1400 
     33 CB         -0.2880  -16.1559  -46.1365 C.3       8 UNK        -0.1800 
     34 N           0.7191  -17.4494  -44.3127 N.am      8 UNK        -0.5000 
     35 C           1.2846  -18.4625  -43.6392 C.2       7 UNK         0.5000 
     36 O           1.4846  -19.5816  -44.1106 O.2       7 UNK        -0.5000 
     37 CA          1.6381  -18.1919  -42.1682 C.3       7 UNK         0.1400 
     38 CB          2.9866  -17.4661  -42.0540 C.3       7 UNK        -0.1800 
     39 N           0.5954  -17.4174  -41.4941 N.am      7 UNK        -0.5000 
     40 C          -0.6215  -17.8940  -41.1940 C.2       6 UNK         0.5000 
     41 O          -0.9815  -19.0472  -41.4289 O.2       6 UNK        -0.5000 
     42 CA         -1.6152  -16.9029  -40.5613 C.3       6 UNK         0.1400 
     43 CB         -1.3617  -16.7665  -39.0526 C.3       6 UNK        -0.1800 
     44 N          -1.5633  -15.5803  -41.1861 N.am      6 UNK        -0.5000 
     45 C          -1.9351  -15.3295  -42.4491 C.2       5 UNK         0.5000 
     46 O          -2.3926  -16.1833  -43.2077 O.2       5 UNK        -0.5000 
     47 CA         -1.7206  -13.8943  -42.9666 C.3       5 UNK         0.1400 
     48 CB         -2.9417  -13.0194  -42.6469 C.3       5 UNK        -0.1800 
     49 N          -0.5104  -13.2439  -42.4524 N.am      5 UNK        -0.5000 
     50 C           0.7384  -13.7072  -42.6008 C.2       4 UNK         0.5000 
     51 O           1.0084  -14.7715  -43.1601 O.2       4 UNK        -0.5000 
     52 CA          1.8566  -12.7961  -42.0756 C.3       4 UNK         0.1400 
     53 CB          3.2565  -13.4342  -42.1818 C.3       4 UNK        -0.1800 
     54 N           1.8091  -11.5478  -42.8294 N.am      4 UNK        -0.5000 
     55 C           2.3363  -10.3776  -42.4504 C.2       3 UNK         0.5000 
     56 O           2.8873  -10.2048  -41.3618 O.2       3 UNK        -0.5000 
     57 CA          2.2130   -9.2010  -43.4484 C.3       3 UNK         0.1400 
     58 CB          3.4019   -8.2212  -43.3556 C.3       3 UNK        -0.1800 
     59 N           1.9851   -9.6118  -44.8436 N.am      3 UNK        -0.5000 
     60 C           2.8018  -10.3411  -45.6181 C.2       2 UNK         0.5000 
     61 O           3.9009  -10.7729  -45.2605 O.2       2 UNK        -0.5000 
     62 CA          2.2949  -10.6518  -47.0319 C.3       2 UNK         0.1400 
     63 CB          2.8369   -9.6363  -48.0502 C.3       2 UNK        -0.1800 
     64 N           2.7470  -11.9901  -47.3926 N.am      2 UNK        -0.5000 
     65 C           2.0122  -12.9257  -48.0042 C.2       1 UNK         0.5000 
     66 O           0.8541  -12.7371  -48.3809 O.2       1 UNK        -0.5000 
     67 C           0.5410  -22.9841  -47.4559 C.2       11 UNK         0.5000 
     68 O           0.7945  -23.9713  -48.1456 O.2       11 UNK        -0.5000 
     69 N          -0.5302  -22.1993  -47.6545 N.am      12 UNK        -0.5000 
     70 CA         -1.5696  -22.4529  -48.6535 C.3       12 UNK         0.1400 
     71 CB         -2.5471  -21.2711  -48.7062 C.3       12 UNK        -0.1800 
     72 C          -2.3283  -23.7635  -48.3858 C.2       12 UNK         0.5000 
     73 O          -2.5420  -24.5392  -49.3173 O.2       12 UNK        -0.5000 
     74 N          -2.6843  -24.0074  -47.1160 N.am      13 UNK        -0.5000 
     75 CA         -3.3199  -25.2421  -46.6571 C.3       13 UNK         0.1400 
     76 CB         -3.7839  -25.0813  -45.2019 C.3       13 UNK        -0.1800 
     77 C          -2.4050  -26.4699  -46.8108 C.2       13 UNK         0.5000 
     78 O          -2.8722  -27.5127  -47.2682 O.2       13 UNK        -0.5000 
     79 N          -1.1161  -26.3165  -46.4725 N.am      14 UNK        -0.5000 
     80 CA         -0.0845  -27.3449  -46.6357 C.3       14 UNK         0.1400 
     81 CB          1.2107  -26.8899  -45.9471 C.3       14 UNK        -0.1800 
     82 C           0.1791  -27.7029  -48.1113 C.2       14 UNK         0.5000 
     83 O           0.3622  -28.8786  -48.4286 O.2       14 UNK        -0.5000 
     84 N           0.1589  -26.6901  -48.9885 N.am      15 UNK        -0.5000 
     85 CA          0.2629  -26.8356  -50.4422 C.3       15 UNK         0.1400 
     86 CB          0.6232  -25.4696  -51.0497 C.3       15 UNK        -0.1800 
     87 C          -1.0195  -27.3867  -51.1002 C.2       15 UNK         0.5000 
     88 O          -0.9642  -27.8023  -52.2583 O.2       15 UNK        -0.5000 
     89 N          -2.1426  -27.3573  -50.3664 N.am      16 UNK        -0.5000 
     90 CA         -3.5082  -27.6745  -50.7967 C.3       16 UNK         0.1400 
     91 CB         -3.6471  -29.1712  -51.1442 C.3       16 UNK        -0.1800 
     92 C          -3.9998  -26.7342  -51.9187 C.2       16 UNK         0.5000 
     93 O          -4.6665  -27.1746  -52.8578 O.2       16 UNK        -0.5000 
     94 N          -3.6374  -25.4509  -51.8050 N.am      17 UNK        -0.5000 
     95 CA         -3.9887  -24.3912  -52.7443 C.3       17 UNK         0.1400 
     96 CB         -3.0042  -23.2298  -52.5556 C.3       17 UNK        -0.1800 
     97 C          -5.4374  -23.9087  -52.5514 C.2       17 UNK         0.5000 
     98 O          -6.0122  -24.0675  -51.4708 O.2       17 UNK        -0.5000 
     99 N          -5.9933  -23.3075  -53.6093 N.am      18 UNK        -0.5000 
    100 CA        -7.3245  -22.7047  -53.6179 C.3       18 UNK         0.1400 
    101 CB        -7.7402  -22.4542  -55.0763 C.3       18 UNK        -0.1800 
    102 C         -7.3615  -21.3844  -52.8290 C.2       18 UNK         0.5000 
    103 O         -6.3504  -20.6782  -52.7537 O.2       18 UNK        -0.5000 
    104 N         -8.5490  -21.0325  -52.3198 N.am      19 UNK        -0.5000 
    105 CA        -8.8227  -19.7710  -51.6210 C.3       19 UNK         0.1400 
    106 CB       -10.2476  -19.8112  -51.0484 C.3       19 UNK        -0.1800 
    107 C         -8.6345  -18.5271  -52.5126 C.2       19 UNK         0.5000 
    108 O         -8.2450  -17.4710  -52.0146 O.2       19 UNK        -0.5000 
    109 N         -8.8916  -18.6871  -53.8181 N.am      20 UNK        -0.5000 
    110 CA        -8.6741  -17.6661  -54.8424 C.3       20 UNK         0.1400 
    111 CB        -9.4869  -18.0379  -56.0923 C.3       20 UNK        -0.1800 
    112 C         -7.1870  -17.4833  -55.2048 C.2       20 UNK         0.5000 
    113 O         -6.8116  -16.4045  -55.6654 O.2       20 UNK        -0.5000 
    114 N         -6.3730  -18.5307  -55.0071 N.am      21 UNK        -0.5000 
    115 CA        -4.9338  -18.5127  -55.2617 C.3       21 UNK         0.1400 
    116 CB        -4.4361  -19.9384  -55.5565 C.3       21 UNK        -0.1800 
    117 C         -4.1738  -17.8932  -54.0794 C.2       21 UNK         0.5000 
    118 O         -3.3817  -16.9720  -54.2821 O.2       21 UNK        -0.5000 
    119 N         -4.4435  -18.4005  -52.8717 N.am      22 UNK        -0.5000 
    120 CA        -3.7987  -17.9801  -51.6167 C.3       22 UNK         0.1400 
    121 C         -4.5035  -18.4963  -50.3305 C.2       22 UNK         0.5000 
    122 N         -5.3983  -19.4753  -50.3880 N.am      22 UNK        -0.7600 
    123 O         -4.2481  -17.9766  -49.2481 O.2       22 UNK        -0.5000 
    124 C124       -2.2691  -18.2664  -51.5791 C.3       23 UNK        -0.0398 
    125 S125       -1.8479  -20.0005  -51.9703 S.3       23 UNK        -0.2404 
    126 C126       -0.3106  -19.8054  -52.9194 C.3       23 UNK        -0.0205 
    127 H127        6.6105  -14.1490  -50.3852 H         1 UNK         0.0600 
    128 H128        6.6513  -14.4958  -48.6547 H         1 UNK         0.0600 
    129 H129        6.8241  -12.8336  -49.2251 H         1 UNK         0.0600 
    130 H130        4.6683  -14.8834  -47.8256 H         1 UNK         0.3000 
    131 H131        2.6137  -14.7376  -47.1796 H         1 UNK         0.0600 
    132 H132        2.2814  -16.3069  -48.9169 H         1 UNK         0.0800 
    133 H133        0.8532  -15.3551  -48.7663 H         1 UNK         0.0800 
    134 H134        3.9707  -16.1484  -51.0327 H         1 UNK         0.0800 
    135 H135        3.1861  -16.0360  -52.5875 H         1 UNK         0.0800 
    136 H136        0.9757  -17.3892  -52.9352 H         1 UNK         0.1150 
    137 H137        0.9262  -21.1783  -50.9294 H         1 UNK         0.1150 
    138 H138        3.7594  -18.1798  -49.7697 H         1 UNK         0.1150 
    139 H139        2.6640  -21.7364  -49.3891 H         1 UNK         0.0800 
    140 H140        4.0387  -20.6782  -49.1659 H         1 UNK         0.0800 
    141 H141        3.1909  -21.4923  -45.6678 H         1 UNK         0.0800 
    142 H142        3.4058  -22.3643  -47.1473 H         1 UNK         0.0800 
    143 H143        1.8774  -23.6186  -45.9435 H         1 UNK         0.0600 
    144 H144        0.8166  -21.2116  -44.8245 H         1 UNK         0.3000 
    145 H145       -1.6878  -23.0269  -42.9212 H         1 UNK         0.0600 
    146 H146       -0.5280  -21.7883  -41.1306 H         1 UNK         0.0600 
    147 H147        0.4957  -23.0927  -41.7102 H         1 UNK         0.0600 
    148 H148        0.8277  -21.4365  -42.2000 H         1 UNK         0.0600 
    149 H149       -1.2072  -20.2452  -43.0555 H         1 UNK         0.3000 
    150 H150       -3.5094  -19.5186  -45.7233 H         1 UNK         0.0600 
    151 H151       -4.8136  -19.7541  -43.5968 H         1 UNK         0.0600 
    152 H152       -4.4123  -18.0763  -43.9313 H         1 UNK         0.0600 
    153 H153       -3.5129  -18.9694  -42.7072 H         1 UNK         0.0600 
    154 H154       -1.8928  -17.7830  -44.1824 H         1 UNK         0.3000 
    155 H155        1.0108  -17.8493  -46.3263 H         1 UNK         0.0600 
    156 H156       -1.1072  -15.7871  -45.5213 H         1 UNK         0.0600 
    157 H157        0.5152  -15.4211  -46.0947 H         1 UNK         0.0600 
    158 H158       -0.6513  -16.1959  -47.1636 H         1 UNK         0.0600 
    159 H159        0.6410  -16.5482  -43.8501 H         1 UNK         0.3000 
    160 H160        1.7285  -19.1540  -41.6596 H         1 UNK         0.0600 
    161 H161        2.9837  -16.5203  -42.5953 H         1 UNK         0.0600 
    162 H162        3.7892  -18.0755  -42.4711 H         1 UNK         0.0600 
    163 H163        3.2406  -17.2604  -41.0141 H         1 UNK         0.0600 
    164 H164        0.7900  -16.4408  -41.3302 H         1 UNK         0.3000 
    165 H165       -2.6206  -17.3056  -40.7024 H         1 UNK         0.0600 
    166 H166       -2.1108  -16.1286  -38.5833 H         1 UNK         0.0600 
    167 H167       -1.4098  -17.7387  -38.5601 H         1 UNK         0.0600 
    168 H168       -0.3793  -16.3410  -38.8439 H         1 UNK         0.0600 
    169 H169       -1.1981  -14.8215  -40.6300 H         1 UNK         0.3000 
    170 H170       -1.6222  -13.9509  -44.0521 H         1 UNK         0.0600 
    171 H171       -3.8565  -13.4679  -43.0368 H         1 UNK         0.0600 
    172 H172       -3.0728  -12.8876  -41.5721 H         1 UNK         0.0600 
    173 H173       -2.8487  -12.0314  -43.0982 H         1 UNK         0.0600 
    174 H174       -0.6415  -12.3553  -41.9904 H         1 UNK         0.3000 
    175 H175        1.6447  -12.5914  -41.0242 H         1 UNK         0.0600 
    176 H176        3.5149  -13.6680  -43.2154 H         1 UNK         0.0600 
    177 H177        4.0275  -12.7720  -41.7882 H         1 UNK         0.0600 
    178 H178        3.3065  -14.3593  -41.6075 H         1 UNK         0.0600 
    179 H179        1.3515  -11.5989  -43.7285 H         1 UNK         0.3000 
    180 H180        1.3183   -8.6542  -43.1476 H         1 UNK         0.0600 
    181 H181        4.3511   -8.7139  -43.5678 H         1 UNK         0.0600 
    182 H182        3.4763   -7.7872  -42.3578 H         1 UNK         0.0600 
    183 H183        3.2881   -7.3953  -44.0577 H         1 UNK         0.0600 
    184 H184        1.1044   -9.3082  -45.2367 H         1 UNK         0.3000 
    185 H185        1.2036  -10.6084  -47.0278 H         1 UNK         0.0600 
    186 H186        2.5162   -8.6237  -47.8026 H         1 UNK         0.0600 
    187 H187        3.9273   -9.6399  -48.0801 H         1 UNK         0.0600 
    188 H188        2.4755   -9.8572  -49.0548 H         1 UNK         0.0600 
    189 H189        3.6730  -12.2272  -47.0612 H         1 UNK         0.3000 
    190 H190       -0.6424  -21.3630  -47.0881 H         1 UNK         0.3000 
    191 H191       -1.0847  -22.5369  -49.6283 H         1 UNK         0.0600 
    192 H192       -3.0472  -21.1130  -47.7509 H         1 UNK         0.0600 
    193 H193       -3.3197  -21.4353  -49.4580 H         1 UNK         0.0600 
    194 H194       -2.0326  -20.3467  -48.9679 H         1 UNK         0.0600 
    195 H195       -2.5183  -23.2936  -46.4125 H         1 UNK         0.3000 
    196 H196       -4.2039  -25.4092  -47.2761 H         1 UNK         0.0600 
    197 H197       -4.2703  -25.9895  -44.8438 H         1 UNK         0.0600 
    198 H198       -4.5034  -24.2680  -45.1066 H         1 UNK         0.0600 
    199 H199       -2.9501  -24.8687  -44.5325 H         1 UNK         0.0600 
    200 H200       -0.8243  -25.4407  -46.0479 H         1 UNK         0.3000 
    201 H201       -0.4354  -28.2485  -46.1332 H         1 UNK         0.0600 
    202 H202        1.0444  -26.6820  -44.8900 H         1 UNK         0.0600 
    203 H203        1.6149  -25.9883  -46.4068 H         1 UNK         0.0600 
    204 H204        1.9780  -27.6623  -46.0105 H         1 UNK         0.0600 
    205 H205        0.0801  -25.7402  -48.6365 H         1 UNK         0.3000 
    206 H206        1.0728  -27.5335  -50.6637 H         1 UNK         0.0600 
    207 H207        1.5626  -25.0928  -50.6449 H         1 UNK         0.0600 
    208 H208        0.7405  -25.5385  -52.1319 H         1 UNK         0.0600 
    209 H209       -0.1492  -24.7257  -50.8502 H         1 UNK         0.0600 
    210 H210       -2.0693  -26.9744  -49.4330 H         1 UNK         0.3000 
    211 H211       -4.1483  -27.4768  -49.9357 H         1 UNK         0.0600 
    212 H212       -3.0820  -29.4363  -52.0380 H         1 UNK         0.0600 
    213 H213       -4.6896  -29.4332  -51.3280 H         1 UNK         0.0600 
    214 H214       -3.2949  -29.7987  -50.3254 H         1 UNK         0.0600 
    215 H215       -3.1526  -25.1594  -50.9588 H         1 UNK         0.3000 
    216 H216       -3.8805  -24.7767  -53.7603 H         1 UNK         0.0600 
    217 H217       -3.1951  -22.4331  -53.2755 H         1 UNK         0.0600 
    218 H218       -1.9729  -23.5544  -52.6953 H         1 UNK         0.0600 
    219 H219       -3.0861  -22.7967  -51.5582 H         1 UNK         0.0600 
    220 H220       -5.4432  -23.1849  -54.4463 H         1 UNK         0.3000 
    221 H221       -8.0283  -23.4065  -53.1653 H         1 UNK         0.0600 
    222 H222       -7.0669  -21.7558  -55.5751 H         1 UNK         0.0600 
    223 H223       -7.7438  -23.3817  -55.6493 H         1 UNK         0.0600 
    224 H224       -8.7466  -22.0375  -55.1339 H         1 UNK         0.0600 
    225 H225       -9.3325  -21.6607  -52.4279 H         1 UNK         0.3000 
    226 H226       -8.1259  -19.6883  -50.7858 H         1 UNK         0.0600 
    227 H227      -10.3698  -20.6412  -50.3523 H         1 UNK         0.0600 
    228 H228      -10.4745  -18.8948  -50.5017 H         1 UNK         0.0600 
    229 H229      -10.9957  -19.9181  -51.8348 H         1 UNK         0.0600 
    230 H230       -9.2298  -19.5837  -54.1341 H         1 UNK         0.3000 
    231 H231       -9.0442  -16.7099  -54.4663 H         1 UNK         0.0600 
    232 H232       -9.3714  -17.2837  -56.8720 H         1 UNK         0.0600 
    233 H233      -10.5509  -18.1074  -55.8650 H         1 UNK         0.0600 
    234 H234       -9.1687  -18.9937  -56.5106 H         1 UNK         0.0600 
    235 H235       -6.7435  -19.3577  -54.5624 H         1 UNK         0.3000 
    236 H236       -4.7350  -17.9047  -56.1472 H         1 UNK         0.0600 
    237 H237       -4.9451  -20.3617  -56.4223 H         1 UNK         0.0600 
    238 H238       -3.3677  -19.9370  -55.7760 H         1 UNK         0.0600 
    239 H239       -4.5914  -20.6119  -54.7139 H         1 UNK         0.0600 
    240 H240       -5.1128  -19.1578  -52.7994 H         1 UNK         0.3000 
    241 H241       -3.9205  -16.8964  -51.5701 H         1 UNK         0.0600 
    242 H242       -5.6349  -19.9506  -51.2530 H         1 UNK         0.3800 
    243 H243       -5.8280  -19.7744  -49.5286 H         1 UNK         0.3800 
    244 H244       -1.8432  -18.0169  -50.6055 H         1 UNK         0.0800 
    245 H245       -1.7607  -17.6120  -52.2872 H         1 UNK         0.0800 
    246 H246       -0.0494  -20.7660  -53.3654 H         1 UNK         0.0800 
    247 H247       -0.4778  -19.1165  -53.7489 H         1 UNK         0.0800 
@<TRIPOS>BOND
     1    1    2 1    
     2    1  127 1    
     3    1  128 1    
     4    1  129 1    
     5    2    3 2    
     6    2    4 am   BACKBONE|DICT|INTERRES
     7    4    5 1    
     8    4  130 1    
     9    5    6 1    
    10    5   65 1    
    11    5  131 1    
    12    6    7 1    
    13    6  132 1    
    14    6  133 1    
    15    7    8 1    
    16    8    9 1    
    17    8  134 1    
    18    8  135 1    
    19    9   10 ar   
    20    9   14 ar   
    21   10   11 ar   
    22   10  136 1    
    23   11   12 ar   
    24   11  126 1    
    25   12   13 ar   
    26   12  137 1    
    27   13   14 ar   
    28   13   15 1    
    29   14  138 1    
    30   15   16 1    
    31   15  139 1    
    32   15  140 1    
    33   16   17 1    
    34   17   18 1    
    35   17  141 1    
    36   17  142 1    
    37   18   19 1    
    38   18   67 1    
    39   18  143 1    
    40   19   20 am   BACKBONE|DICT|INTERRES
    41   19  144 1    
    42   20   21 2    
    43   20   22 1    
    44   22   23 1    
    45   22   24 1    
    46   22  145 1    
    47   23  146 1    
    48   23  147 1    
    49   23  148 1    
    50   24   25 am   BACKBONE|DICT|INTERRES
    51   24  149 1    
    52   25   26 2    
    53   25   27 1    
    54   27   28 1    
    55   27   29 1    
    56   27  150 1    
    57   28  151 1    
    58   28  152 1    
    59   28  153 1    
    60   29   30 am   BACKBONE|DICT|INTERRES
    61   29  154 1    
    62   30   31 2    
    63   30   32 1    
    64   32   33 1    
    65   32   34 1    
    66   32  155 1    
    67   33  156 1    
    68   33  157 1    
    69   33  158 1    
    70   34   35 am   BACKBONE|DICT|INTERRES
    71   34  159 1    
    72   35   36 2    
    73   35   37 1    
    74   37   38 1    
    75   37   39 1    
    76   37  160 1    
    77   38  161 1    
    78   38  162 1    
    79   38  163 1    
    80   39   40 am   BACKBONE|DICT|INTERRES
    81   39  164 1    
    82   40   41 2    
    83   40   42 1    
    84   42   43 1    
    85   42   44 1    
    86   42  165 1    
    87   43  166 1    
    88   43  167 1    
    89   43  168 1    
    90   44   45 am   BACKBONE|DICT|INTERRES
    91   44  169 1    
    92   45   46 2    
    93   45   47 1    
    94   47   48 1    
    95   47   49 1    
    96   47  170 1    
    97   48  171 1    
    98   48  172 1    
    99   48  173 1    
   100   49   50 am   BACKBONE|DICT|INTERRES
   101   49  174 1    
   102   50   51 2    
   103   50   52 1    
   104   52   53 1    
   105   52   54 1    
   106   52  175 1    
   107   53  176 1    
   108   53  177 1    
   109   53  178 1    
   110   54   55 am   BACKBONE|DICT|INTERRES
   111   54  179 1    
   112   55   56 2    
   113   55   57 1    
   114   57   58 1    
   115   57   59 1    
   116   57  180 1    
   117   58  181 1    
   118   58  182 1    
   119   58  183 1    
   120   59   60 am   BACKBONE|DICT|INTERRES
   121   59  184 1    
   122   60   61 2    
   123   60   62 1    
   124   62   63 1    
   125   62   64 1    
   126   62  185 1    
   127   63  186 1    
   128   63  187 1    
   129   63  188 1    
   130   64   65 am   BACKBONE|DICT|INTERRES
   131   64  189 1    
   132   65   66 2    
   133   67   68 2    
   134   67   69 am   BACKBONE|DICT|INTERRES
   135   69   70 1    
   136   69  190 1    
   137   70   71 1    
   138   70   72 1    
   139   70  191 1    
   140   71  192 1    
   141   71  193 1    
   142   71  194 1    
   143   72   73 2    
   144   72   74 am   BACKBONE|DICT|INTERRES
   145   74   75 1    
   146   74  195 1    
   147   75   76 1    
   148   75   77 1    
   149   75  196 1    
   150   76  197 1    
   151   76  198 1    
   152   76  199 1    
   153   77   78 2    
   154   77   79 am   BACKBONE|DICT|INTERRES
   155   79   80 1    
   156   79  200 1    
   157   80   81 1    
   158   80   82 1    
   159   80  201 1    
   160   81  202 1    
   161   81  203 1    
   162   81  204 1    
   163   82   83 2    
   164   82   84 am   BACKBONE|DICT|INTERRES
   165   84   85 1    
   166   84  205 1    
   167   85   86 1    
   168   85   87 1    
   169   85  206 1    
   170   86  207 1    
   171   86  208 1    
   172   86  209 1    
   173   87   88 2    
   174   87   89 am   BACKBONE|DICT|INTERRES
   175   89   90 1    
   176   89  210 1    
   177   90   91 1    
   178   90   92 1    
   179   90  211 1    
   180   91  212 1    
   181   91  213 1    
   182   91  214 1    
   183   92   93 2    
   184   92   94 am   BACKBONE|DICT|INTERRES
   185   94   95 1    
   186   94  215 1    
   187   95   96 1    
   188   95   97 1    
   189   95  216 1    
   190   96  217 1    
   191   96  218 1    
   192   96  219 1    
   193   97   98 2    
   194   97   99 am   BACKBONE|DICT|INTERRES
   195   99  100 1    
   196   99  220 1    
   197  100  101 1    
   198  100  102 1    
   199  100  221 1    
   200  101  222 1    
   201  101  223 1    
   202  101  224 1    
   203  102  103 2    
   204  102  104 am   BACKBONE|DICT|INTERRES
   205  104  105 1    
   206  104  225 1    
   207  105  106 1    
   208  105  107 1    
   209  105  226 1    
   210  106  227 1    
   211  106  228 1    
   212  106  229 1    
   213  107  108 2    
   214  107  109 am   BACKBONE|DICT|INTERRES
   215  109  110 1    
   216  109  230 1    
   217  110  111 1    
   218  110  112 1    
   219  110  231 1    
   220  111  232 1    
   221  111  233 1    
   222  111  234 1    
   223  112  113 2    
   224  112  114 am   BACKBONE|DICT|INTERRES
   225  114  115 1    
   226  114  235 1    
   227  115  116 1    
   228  115  117 1    
   229  115  236 1    
   230  116  237 1    
   231  116  238 1    
   232  116  239 1    
   233  117  118 2    
   234  117  119 am   BACKBONE|DICT|INTERRES
   235  119  120 1    
   236  119  240 1    
   237  120  121 1    
   238  120  124 1    
   239  120  241 1    
   240  121  122 am   BACKBONE|DICT|INTERRES
   241  121  123 2    
   242  122  242 1    
   243  122  243 1    
   244  124  125 1    
   245  124  244 1    
   246  124  245 1    
   247  125  126 1    
   248  126  246 1    
   249  126  247 1    
@<TRIPOS>SUBSTRUCTURE
     1 UNK         1 GROUP             0       ****    0 ROOT    
