@<TRIPOS>MOLECULE
3R540
247   249    1
SMALL
USER_CHARGES


@<TRIPOS>ATOM
      1 CA         -1.8869  -14.1412  -49.2413 C.3       0 UNK        -0.1800 
      2 C          -1.4612  -13.3399  -48.0237 C.2       0 UNK         0.5000 
      3 O          -0.3962  -12.7260  -48.0282 O.2       0 UNK        -0.5000 
      4 N          -2.3085  -13.3121  -46.9895 N.am      1 UNK        -0.5000 
      5 CA         -2.0992  -12.6075  -45.7168 C.3       1 UNK         0.1400 
      6 C6         -3.0909  -13.0866  -44.6275 C.3       23 UNK        -0.0398 
      7 S7         -4.8467  -13.0233  -45.1378 S.3       23 UNK        -0.2404 
      8 C8         -5.3241  -14.7790  -45.0585 C.3       23 UNK        -0.0205 
      9 C9         -4.8924  -15.5639  -46.2902 C.ar      23 UNK        -0.0193 
     10 C10        -5.7471  -15.6584  -47.3917 C.ar      23 UNK        -0.1150 
     11 C11        -5.4000  -16.4378  -48.4990 C.ar      23 UNK        -0.0193 
     12 C12        -4.1823  -17.1231  -48.4978 C.ar      23 UNK        -0.1150 
     13 C13        -3.3010  -17.0167  -47.4184 C.ar      23 UNK        -0.0193 
     14 C14        -3.6644  -16.2318  -46.3167 C.ar      23 UNK        -0.1150 
     15 C15        -1.9573  -17.7378  -47.4917 C.3       23 UNK        -0.0205 
     16 S16        -1.3210  -18.3608  -45.8999 S.3       23 UNK        -0.2404 
     17 C17        -2.6489  -19.4850  -45.3510 C.3       23 UNK        -0.0398 
     18 CA         -2.8535  -20.7361  -46.2400 C.3       11 UNK         0.1400 
     19 N          -1.6163  -21.4994  -46.4669 N.am      11 UNK        -0.5000 
     20 C          -1.5145  -22.5661  -47.2753 C.2       10 UNK         0.5000 
     21 O          -2.4409  -22.9895  -47.9605 O.2       10 UNK        -0.5000 
     22 CA         -0.1969  -23.3547  -47.2469 C.3       10 UNK         0.1400 
     23 CB          0.8593  -22.7257  -48.1654 C.3       10 UNK        -0.1800 
     24 N           0.3175  -23.4703  -45.8858 N.am      10 UNK        -0.5000 
     25 C          -0.2338  -24.2530  -44.9482 C.2       9 UNK         0.5000 
     26 O          -1.2010  -24.9857  -45.1577 O.2       9 UNK        -0.5000 
     27 CA          0.3693  -24.1705  -43.5337 C.3       9 UNK         0.1400 
     28 CB          1.5749  -25.1133  -43.4074 C.3       9 UNK        -0.1800 
     29 N           0.7727  -22.8097  -43.1715 N.am      9 UNK        -0.5000 
     30 C          -0.0834  -21.7928  -42.9983 C.2       8 UNK         0.5000 
     31 O          -1.3054  -21.9131  -43.0726 O.2       8 UNK        -0.5000 
     32 CA          0.5230  -20.3983  -42.7488 C.3       8 UNK         0.1400 
     33 CB          0.7388  -20.1675  -41.2460 C.3       8 UNK        -0.1800 
     34 N           1.7775  -20.1366  -43.4634 N.am      8 UNK        -0.5000 
     35 C           1.9448  -20.2219  -44.7895 C.2       7 UNK         0.5000 
     36 O           1.0785  -20.6291  -45.5635 O.2       7 UNK        -0.5000 
     37 CA          3.3005  -19.7623  -45.3490 C.3       7 UNK         0.1400 
     38 CB          3.8189  -20.7239  -46.4318 C.3       7 UNK        -0.1800 
     39 N           3.1774  -18.4221  -45.9184 N.am      7 UNK        -0.5000 
     40 C           3.1222  -17.2959  -45.1990 C.2       6 UNK         0.5000 
     41 O           3.2238  -17.2615  -43.9686 O.2       6 UNK        -0.5000 
     42 CA          2.9284  -15.9891  -45.9817 C.3       6 UNK         0.1400 
     43 CB          1.4412  -15.7303  -46.2853 C.3       6 UNK        -0.1800 
     44 N           3.4765  -14.8978  -45.1840 N.am      6 UNK        -0.5000 
     45 C           3.9409  -13.7406  -45.6603 C.2       5 UNK         0.5000 
     46 O           3.9109  -13.4215  -46.8521 O.2       5 UNK        -0.5000 
     47 CA          4.5728  -12.7903  -44.6344 C.3       5 UNK         0.1400 
     48 CB          6.0373  -13.1725  -44.3524 C.3       5 UNK        -0.1800 
     49 N           4.5014  -11.4330  -45.1595 N.am      5 UNK        -0.5000 
     50 C           4.5281  -10.3086  -44.4365 C.2       4 UNK         0.5000 
     51 O           4.7042  -10.2843  -43.2175 O.2       4 UNK        -0.5000 
     52 CA          4.3070   -8.9833  -45.1960 C.3       4 UNK         0.1400 
     53 CB          5.6551   -8.3261  -45.5303 C.3       4 UNK        -0.1800 
     54 N           3.5246   -9.1203  -46.4302 N.am      4 UNK        -0.5000 
     55 C           2.2426   -9.5062  -46.4857 C.2       3 UNK         0.5000 
     56 O           1.5799   -9.8066  -45.4897 O.2       3 UNK        -0.5000 
     57 CA          1.6216   -9.5913  -47.8943 C.3       3 UNK         0.1400 
     58 CB          2.2117  -10.7762  -48.6766 C.3       3 UNK        -0.1800 
     59 N           0.1676   -9.7428  -47.8353 N.am      3 UNK        -0.5000 
     60 C          -0.6928   -8.7501  -47.5614 C.2       2 UNK         0.5000 
     61 O          -0.3539   -7.5712  -47.4451 O.2       2 UNK        -0.5000 
     62 CA         -2.1814   -9.1235  -47.3876 C.3       2 UNK         0.1400 
     63 CB         -2.9641   -8.8321  -48.6773 C.3       2 UNK        -0.1800 
     64 N          -2.3796  -10.5260  -47.0227 N.am      2 UNK        -0.5000 
     65 C          -2.0672  -11.0636  -45.8350 C.2       1 UNK         0.5000 
     66 O          -1.7384  -10.3913  -44.8568 O.2       1 UNK        -0.5000 
     67 C          -3.9840  -21.6120  -45.6524 C.2       11 UNK         0.5000 
     68 O          -5.1441  -21.4429  -46.0267 O.2       11 UNK        -0.5000 
     69 N          -3.6158  -22.5631  -44.7815 N.am      12 UNK        -0.5000 
     70 CA         -4.4891  -23.5945  -44.2146 C.3       12 UNK         0.1400 
     71 CB         -3.8476  -24.1353  -42.9259 C.3       12 UNK        -0.1800 
     72 C          -4.8257  -24.7420  -45.1955 C.2       12 UNK         0.5000 
     73 O          -5.5401  -25.6677  -44.8082 O.2       12 UNK        -0.5000 
     74 N          -4.3288  -24.6598  -46.4380 N.am      13 UNK        -0.5000 
     75 CA         -4.5786  -25.5528  -47.5683 C.3       13 UNK         0.1400 
     76 CB         -6.0793  -25.6073  -47.9275 C.3       13 UNK        -0.1800 
     77 C          -3.9354  -26.9433  -47.4274 C.2       13 UNK         0.5000 
     78 O          -4.4697  -27.9133  -47.9709 O.2       13 UNK        -0.5000 
     79 N          -2.7674  -27.0251  -46.7694 N.am      14 UNK        -0.5000 
     80 CA         -1.9124  -28.2164  -46.7849 C.3       14 UNK         0.1400 
     81 CB         -0.6931  -28.0069  -45.8750 C.3       14 UNK        -0.1800 
     82 C          -1.4709  -28.5322  -48.2264 C.2       14 UNK         0.5000 
     83 O          -0.9267  -27.6532  -48.8978 O.2       14 UNK        -0.5000 
     84 N          -1.7962  -29.7444  -48.6972 N.am      15 UNK        -0.5000 
     85 CA         -1.6284  -30.2242  -50.0771 C.3       15 UNK         0.1400 
     86 CB         -0.1310  -30.3802  -50.4170 C.3       15 UNK        -0.1800 
     87 C          -2.3908  -29.3820  -51.1301 C.2       15 UNK         0.5000 
     88 O          -2.0001  -29.3691  -52.2983 O.2       15 UNK        -0.5000 
     89 N          -3.4557  -28.6863  -50.6952 N.am      16 UNK        -0.5000 
     90 CA         -4.2905  -27.7521  -51.4610 C.3       16 UNK         0.1400 
     91 CB         -5.0646  -28.4876  -52.5745 C.3       16 UNK        -0.1800 
     92 C          -3.5263  -26.5129  -51.9817 C.2       16 UNK         0.5000 
     93 O          -3.9526  -25.8969  -52.9602 O.2       16 UNK        -0.5000 
     94 N          -2.4219  -26.1471  -51.3124 N.am      17 UNK        -0.5000 
     95 CA         -1.5162  -25.0656  -51.7137 C.3       17 UNK         0.1400 
     96 CB         -0.2120  -25.1873  -50.9141 C.3       17 UNK        -0.1800 
     97 C          -2.0975  -23.6430  -51.5869 C.2       17 UNK         0.5000 
     98 O          -1.4922  -22.7063  -52.1095 O.2       17 UNK        -0.5000 
     99 N          -3.2551  -23.4937  -50.9261 N.am      18 UNK        -0.5000 
    100 CA        -3.9476  -22.2218  -50.6905 C.3       18 UNK         0.1400 
    101 CB        -5.2256  -22.4697  -49.8754 C.3       18 UNK        -0.1800 
    102 C         -4.2743  -21.4431  -51.9759 C.2       18 UNK         0.5000 
    103 O         -4.1927  -20.2155  -51.9769 O.2       18 UNK        -0.5000 
    104 N         -4.5832  -22.1738  -53.0563 N.am      19 UNK        -0.5000 
    105 CA        -4.8486  -21.6282  -54.3882 C.3       19 UNK         0.1400 
    106 CB        -5.3326  -22.7633  -55.3031 C.3       19 UNK        -0.1800 
    107 C         -3.6363  -20.9091  -55.0138 C.2       19 UNK         0.5000 
    108 O         -3.8281  -19.9774  -55.7958 O.2       19 UNK        -0.5000 
    109 N         -2.4207  -21.3409  -54.6519 N.am      20 UNK        -0.5000 
    110 CA        -1.1684  -20.7016  -55.0453 C.3       20 UNK         0.1400 
    111 CB        -0.0749  -21.7702  -55.2037 C.3       20 UNK        -0.1800 
    112 C         -0.7520  -19.6406  -54.0146 C.2       20 UNK         0.5000 
    113 O         -0.3856  -18.5301  -54.4016 O.2       20 UNK        -0.5000 
    114 N         -0.8296  -19.9923  -52.7220 N.am      21 UNK        -0.5000 
    115 CA        -0.3866  -19.1665  -51.5952 C.3       21 UNK         0.1400 
    116 CB        -0.4779  -19.9797  -50.2973 C.3       21 UNK        -0.1800 
    117 C         -1.1352  -17.8291  -51.4543 C.2       21 UNK         0.5000 
    118 O         -0.5298  -16.8548  -51.0105 O.2       21 UNK        -0.5000 
    119 N         -2.4122  -17.7937  -51.8586 N.am      22 UNK        -0.5000 
    120 CA        -3.2190  -16.5654  -51.9580 C.3       22 UNK         0.1400 
    121 C         -2.8028  -15.6025  -53.1147 C.2       22 UNK         0.5000 
    122 N         -1.9264  -15.9898  -54.0352 N.am      22 UNK        -0.7600 
    123 O         -3.2748  -14.4711  -53.1760 O.2       22 UNK        -0.5000 
    124 C124       -4.7374  -16.8906  -51.9932 C.3       23 UNK        -0.0398 
    125 S125       -5.7738  -15.6462  -51.1443 S.3       23 UNK        -0.2404 
    126 C126       -6.3564  -16.5606  -49.6775 C.3       23 UNK        -0.0205 
    127 H127       -1.2729  -15.0358  -49.3214 H         1 UNK         0.0600 
    128 H128       -1.7583  -13.5537  -50.1502 H         1 UNK         0.0600 
    129 H129       -2.9321  -14.4448  -49.1779 H         1 UNK         0.0600 
    130 H130       -3.1792  -13.8232  -47.0505 H         1 UNK         0.3000 
    131 H131       -1.0995  -12.8839  -45.3743 H         1 UNK         0.0600 
    132 H132       -2.9773  -12.5034  -43.7119 H         1 UNK         0.0800 
    133 H133       -2.8340  -14.1058  -44.3399 H         1 UNK         0.0800 
    134 H134       -6.4091  -14.8344  -44.9575 H         1 UNK         0.0800 
    135 H135       -4.9213  -15.2363  -44.1535 H         1 UNK         0.0800 
    136 H136       -6.6950  -15.1387  -47.3764 H         1 UNK         0.1150 
    137 H137       -3.9142  -17.7348  -49.3467 H         1 UNK         0.1150 
    138 H138       -2.9962  -16.1501  -45.4721 H         1 UNK         0.1150 
    139 H139       -2.0176  -18.5753  -48.1864 H         1 UNK         0.0800 
    140 H140       -1.2223  -17.0502  -47.9105 H         1 UNK         0.0800 
    141 H141       -3.5763  -18.9140  -45.2844 H         1 UNK         0.0800 
    142 H142       -2.4129  -19.7831  -44.3287 H         1 UNK         0.0800 
    143 H143       -3.1994  -20.4002  -47.2194 H         1 UNK         0.0600 
    144 H144       -0.7862  -21.1831  -45.9737 H         1 UNK         0.3000 
    145 H145       -0.4007  -24.3634  -47.6120 H         1 UNK         0.0600 
    146 H146        1.8228  -23.2253  -48.0652 H         1 UNK         0.0600 
    147 H147        0.5568  -22.8157  -49.2079 H         1 UNK         0.0600 
    148 H148        1.0041  -21.6658  -47.9580 H         1 UNK         0.0600 
    149 H149        1.0368  -22.8119  -45.6189 H         1 UNK         0.3000 
    150 H150       -0.3954  -24.4984  -42.8266 H         1 UNK         0.0600 
    151 H151        1.2957  -26.1378  -43.6579 H         1 UNK         0.0600 
    152 H152        1.9629  -25.1230  -42.3888 H         1 UNK         0.0600 
    153 H153        2.3872  -24.8220  -44.0745 H         1 UNK         0.0600 
    154 H154        1.7623  -22.6263  -43.0952 H         1 UNK         0.3000 
    155 H155       -0.2037  -19.6642  -43.1020 H         1 UNK         0.0600 
    156 H156        1.4927  -20.8427  -40.8394 H         1 UNK         0.0600 
    157 H157       -0.1845  -20.3313  -40.6885 H         1 UNK         0.0600 
    158 H158        1.0597  -19.1449  -41.0460 H         1 UNK         0.0600 
    159 H159        2.5327  -19.7567  -42.9104 H         1 UNK         0.3000 
    160 H160        4.0321  -19.7455  -44.5382 H         1 UNK         0.0600 
    161 H161        3.1721  -20.7351  -47.3095 H         1 UNK         0.0600 
    162 H162        3.8772  -21.7451  -46.0533 H         1 UNK         0.0600 
    163 H163        4.8193  -20.4417  -46.7602 H         1 UNK         0.0600 
    164 H164        3.0479  -18.3742  -46.9184 H         1 UNK         0.3000 
    165 H165        3.4842  -16.0638  -46.9190 H         1 UNK         0.0600 
    166 H166        1.3031  -14.7982  -46.8338 H         1 UNK         0.0600 
    167 H167        1.0252  -16.5298  -46.8987 H         1 UNK         0.0600 
    168 H168        0.8470  -15.6728  -45.3725 H         1 UNK         0.0600 
    169 H169        3.5744  -15.1231  -44.2012 H         1 UNK         0.3000 
    170 H170        3.9935  -12.8474  -43.7102 H         1 UNK         0.0600 
    171 H171        6.1106  -14.1924  -43.9731 H         1 UNK         0.0600 
    172 H172        6.6472  -13.1120  -45.2546 H         1 UNK         0.0600 
    173 H173        6.4821  -12.5171  -43.6035 H         1 UNK         0.0600 
    174 H174        4.3157  -11.3836  -46.1534 H         1 UNK         0.3000 
    175 H175        3.7591   -8.3152  -44.5284 H         1 UNK         0.0600 
    176 H176        6.2406   -8.9373  -46.2183 H         1 UNK         0.0600 
    177 H177        5.5151   -7.3456  -45.9857 H         1 UNK         0.0600 
    178 H178        6.2535   -8.1816  -44.6297 H         1 UNK         0.0600 
    179 H179        4.0055   -8.8978  -47.2899 H         1 UNK         0.3000 
    180 H180        1.8563   -8.6694  -48.4306 H         1 UNK         0.0600 
    181 H181        1.7457  -10.8749  -49.6571 H         1 UNK         0.0600 
    182 H182        2.0725  -11.7179  -48.1444 H         1 UNK         0.0600 
    183 H183        3.2825  -10.6505  -48.8389 H         1 UNK         0.0600 
    184 H184       -0.1771  -10.6964  -47.8731 H         1 UNK         0.3000 
    185 H185       -2.5888   -8.4986  -46.5901 H         1 UNK         0.0600 
    186 H186       -2.8641   -7.7851  -48.9666 H         1 UNK         0.0600 
    187 H187       -2.6068   -9.4386  -49.5105 H         1 UNK         0.0600 
    188 H188       -4.0279   -9.0318  -48.5471 H         1 UNK         0.0600 
    189 H189       -2.6503  -11.1538  -47.7650 H         1 UNK         0.3000 
    190 H190       -2.6490  -22.5839  -44.4748 H         1 UNK         0.3000 
    191 H191       -5.4362  -23.1240  -43.9433 H         1 UNK         0.0600 
    192 H192       -4.5069  -24.8457  -42.4259 H         1 UNK         0.0600 
    193 H193       -3.6440  -23.3312  -42.2185 H         1 UNK         0.0600 
    194 H194       -2.9082  -24.6487  -43.1285 H         1 UNK         0.0600 
    195 H195       -3.7203  -23.8778  -46.6527 H         1 UNK         0.3000 
    196 H196       -4.0684  -25.0940  -48.4149 H         1 UNK         0.0600 
    197 H197       -6.6543  -26.1599  -47.1841 H         1 UNK         0.0600 
    198 H198       -6.5066  -24.6078  -48.0044 H         1 UNK         0.0600 
    199 H199       -6.2347  -26.0994  -48.8880 H         1 UNK         0.0600 
    200 H200       -2.3761  -26.1948  -46.3356 H         1 UNK         0.3000 
    201 H201       -2.4936  -29.0524  -46.3905 H         1 UNK         0.0600 
    202 H202       -0.0566  -27.1976  -46.2350 H         1 UNK         0.0600 
    203 H203       -0.0811  -28.9084  -45.8315 H         1 UNK         0.0600 
    204 H204       -0.9962  -27.7692  -44.8552 H         1 UNK         0.0600 
    205 H205       -2.2742  -30.3834  -48.0766 H         1 UNK         0.3000 
    206 H206       -2.0774  -31.2178  -50.1093 H         1 UNK         0.0600 
    207 H207        0.3840  -30.9782  -49.6653 H         1 UNK         0.0600 
    208 H208        0.0037  -30.8824  -51.3757 H         1 UNK         0.0600 
    209 H209        0.3727  -29.4152  -50.4811 H         1 UNK         0.0600 
    210 H210       -3.6916  -28.7500  -49.7100 H         1 UNK         0.3000 
    211 H211       -5.0280  -27.3676  -50.7556 H         1 UNK         0.0600 
    212 H212       -5.8052  -27.8327  -53.0349 H         1 UNK         0.0600 
    213 H213       -5.5999  -29.3506  -52.1786 H         1 UNK         0.0600 
    214 H214       -4.4026  -28.8371  -53.3671 H         1 UNK         0.0600 
    215 H215       -2.1161  -26.7129  -50.5293 H         1 UNK         0.3000 
    216 H216       -1.2750  -25.2103  -52.7688 H         1 UNK         0.0600 
    217 H217       -0.3923  -25.0898  -49.8443 H         1 UNK         0.0600 
    218 H218        0.5036  -24.4161  -51.2024 H         1 UNK         0.0600 
    219 H219        0.2659  -26.1523  -51.0845 H         1 UNK         0.0600 
    220 H220       -3.6765  -24.3176  -50.5295 H         1 UNK         0.3000 
    221 H221       -3.2881  -21.5937  -50.0922 H         1 UNK         0.0600 
    222 H222       -4.9900  -22.8440  -48.8801 H         1 UNK         0.0600 
    223 H223       -5.8848  -23.1886  -50.3630 H         1 UNK         0.0600 
    224 H224       -5.7886  -21.5454  -49.7384 H         1 UNK         0.0600 
    225 H225       -4.5998  -23.1803  -52.9660 H         1 UNK         0.3000 
    226 H226       -5.6525  -20.8951  -54.2947 H         1 UNK         0.0600 
    227 H227       -4.5795  -23.5460  -55.4046 H         1 UNK         0.0600 
    228 H228       -6.2425  -23.2218  -54.9155 H         1 UNK         0.0600 
    229 H229       -5.5578  -22.3911  -56.3034 H         1 UNK         0.0600 
    230 H230       -2.3515  -22.0760  -53.9594 H         1 UNK         0.3000 
    231 H231       -1.2912  -20.2058  -56.0108 H         1 UNK         0.0600 
    232 H232        0.1079  -22.3096  -54.2738 H         1 UNK         0.0600 
    233 H233        0.8688  -21.3181  -55.5111 H         1 UNK         0.0600 
    234 H234       -0.3482  -22.5010  -55.9650 H         1 UNK         0.0600 
    235 H235       -1.1274  -20.9381  -52.4947 H         1 UNK         0.3000 
    236 H236        0.6654  -18.9305  -51.7679 H         1 UNK         0.0600 
    237 H237        0.0634  -20.9193  -50.3923 H         1 UNK         0.0600 
    238 H238       -0.0402  -19.4346  -49.4600 H         1 UNK         0.0600 
    239 H239       -1.5099  -20.2095  -50.0377 H         1 UNK         0.0600 
    240 H240       -2.8521  -18.6521  -52.1730 H         1 UNK         0.3000 
    241 H241       -3.0263  -16.0119  -51.0390 H         1 UNK         0.0600 
    242 H242       -1.6706  -15.3470  -54.7675 H         1 UNK         0.3800 
    243 H243       -1.4930  -16.9064  -54.0071 H         1 UNK         0.3800 
    244 H244       -4.9278  -17.8513  -51.5190 H         1 UNK         0.0800 
    245 H245       -5.0914  -17.0093  -53.0187 H         1 UNK         0.0800 
    246 H246       -6.5201  -17.6121  -49.9166 H         1 UNK         0.0800 
    247 H247       -7.3361  -16.1664  -49.4034 H         1 UNK         0.0800 
@<TRIPOS>BOND
     1    1    2 1    
     2    1  127 1    
     3    1  128 1    
     4    1  129 1    
     5    2    3 2    
     6    2    4 am   BACKBONE|DICT|INTERRES
     7    4    5 1    
     8    4  130 1    
     9    5    6 1    
    10    5   65 1    
    11    5  131 1    
    12    6    7 1    
    13    6  132 1    
    14    6  133 1    
    15    7    8 1    
    16    8    9 1    
    17    8  134 1    
    18    8  135 1    
    19    9   10 ar   
    20    9   14 ar   
    21   10   11 ar   
    22   10  136 1    
    23   11   12 ar   
    24   11  126 1    
    25   12   13 ar   
    26   12  137 1    
    27   13   14 ar   
    28   13   15 1    
    29   14  138 1    
    30   15   16 1    
    31   15  139 1    
    32   15  140 1    
    33   16   17 1    
    34   17   18 1    
    35   17  141 1    
    36   17  142 1    
    37   18   19 1    
    38   18   67 1    
    39   18  143 1    
    40   19   20 am   BACKBONE|DICT|INTERRES
    41   19  144 1    
    42   20   21 2    
    43   20   22 1    
    44   22   23 1    
    45   22   24 1    
    46   22  145 1    
    47   23  146 1    
    48   23  147 1    
    49   23  148 1    
    50   24   25 am   BACKBONE|DICT|INTERRES
    51   24  149 1    
    52   25   26 2    
    53   25   27 1    
    54   27   28 1    
    55   27   29 1    
    56   27  150 1    
    57   28  151 1    
    58   28  152 1    
    59   28  153 1    
    60   29   30 am   BACKBONE|DICT|INTERRES
    61   29  154 1    
    62   30   31 2    
    63   30   32 1    
    64   32   33 1    
    65   32   34 1    
    66   32  155 1    
    67   33  156 1    
    68   33  157 1    
    69   33  158 1    
    70   34   35 am   BACKBONE|DICT|INTERRES
    71   34  159 1    
    72   35   36 2    
    73   35   37 1    
    74   37   38 1    
    75   37   39 1    
    76   37  160 1    
    77   38  161 1    
    78   38  162 1    
    79   38  163 1    
    80   39   40 am   BACKBONE|DICT|INTERRES
    81   39  164 1    
    82   40   41 2    
    83   40   42 1    
    84   42   43 1    
    85   42   44 1    
    86   42  165 1    
    87   43  166 1    
    88   43  167 1    
    89   43  168 1    
    90   44   45 am   BACKBONE|DICT|INTERRES
    91   44  169 1    
    92   45   46 2    
    93   45   47 1    
    94   47   48 1    
    95   47   49 1    
    96   47  170 1    
    97   48  171 1    
    98   48  172 1    
    99   48  173 1    
   100   49   50 am   BACKBONE|DICT|INTERRES
   101   49  174 1    
   102   50   51 2    
   103   50   52 1    
   104   52   53 1    
   105   52   54 1    
   106   52  175 1    
   107   53  176 1    
   108   53  177 1    
   109   53  178 1    
   110   54   55 am   BACKBONE|DICT|INTERRES
   111   54  179 1    
   112   55   56 2    
   113   55   57 1    
   114   57   58 1    
   115   57   59 1    
   116   57  180 1    
   117   58  181 1    
   118   58  182 1    
   119   58  183 1    
   120   59   60 am   BACKBONE|DICT|INTERRES
   121   59  184 1    
   122   60   61 2    
   123   60   62 1    
   124   62   63 1    
   125   62   64 1    
   126   62  185 1    
   127   63  186 1    
   128   63  187 1    
   129   63  188 1    
   130   64   65 am   BACKBONE|DICT|INTERRES
   131   64  189 1    
   132   65   66 2    
   133   67   68 2    
   134   67   69 am   BACKBONE|DICT|INTERRES
   135   69   70 1    
   136   69  190 1    
   137   70   71 1    
   138   70   72 1    
   139   70  191 1    
   140   71  192 1    
   141   71  193 1    
   142   71  194 1    
   143   72   73 2    
   144   72   74 am   BACKBONE|DICT|INTERRES
   145   74   75 1    
   146   74  195 1    
   147   75   76 1    
   148   75   77 1    
   149   75  196 1    
   150   76  197 1    
   151   76  198 1    
   152   76  199 1    
   153   77   78 2    
   154   77   79 am   BACKBONE|DICT|INTERRES
   155   79   80 1    
   156   79  200 1    
   157   80   81 1    
   158   80   82 1    
   159   80  201 1    
   160   81  202 1    
   161   81  203 1    
   162   81  204 1    
   163   82   83 2    
   164   82   84 am   BACKBONE|DICT|INTERRES
   165   84   85 1    
   166   84  205 1    
   167   85   86 1    
   168   85   87 1    
   169   85  206 1    
   170   86  207 1    
   171   86  208 1    
   172   86  209 1    
   173   87   88 2    
   174   87   89 am   BACKBONE|DICT|INTERRES
   175   89   90 1    
   176   89  210 1    
   177   90   91 1    
   178   90   92 1    
   179   90  211 1    
   180   91  212 1    
   181   91  213 1    
   182   91  214 1    
   183   92   93 2    
   184   92   94 am   BACKBONE|DICT|INTERRES
   185   94   95 1    
   186   94  215 1    
   187   95   96 1    
   188   95   97 1    
   189   95  216 1    
   190   96  217 1    
   191   96  218 1    
   192   96  219 1    
   193   97   98 2    
   194   97   99 am   BACKBONE|DICT|INTERRES
   195   99  100 1    
   196   99  220 1    
   197  100  101 1    
   198  100  102 1    
   199  100  221 1    
   200  101  222 1    
   201  101  223 1    
   202  101  224 1    
   203  102  103 2    
   204  102  104 am   BACKBONE|DICT|INTERRES
   205  104  105 1    
   206  104  225 1    
   207  105  106 1    
   208  105  107 1    
   209  105  226 1    
   210  106  227 1    
   211  106  228 1    
   212  106  229 1    
   213  107  108 2    
   214  107  109 am   BACKBONE|DICT|INTERRES
   215  109  110 1    
   216  109  230 1    
   217  110  111 1    
   218  110  112 1    
   219  110  231 1    
   220  111  232 1    
   221  111  233 1    
   222  111  234 1    
   223  112  113 2    
   224  112  114 am   BACKBONE|DICT|INTERRES
   225  114  115 1    
   226  114  235 1    
   227  115  116 1    
   228  115  117 1    
   229  115  236 1    
   230  116  237 1    
   231  116  238 1    
   232  116  239 1    
   233  117  118 2    
   234  117  119 am   BACKBONE|DICT|INTERRES
   235  119  120 1    
   236  119  240 1    
   237  120  121 1    
   238  120  124 1    
   239  120  241 1    
   240  121  122 am   BACKBONE|DICT|INTERRES
   241  121  123 2    
   242  122  242 1    
   243  122  243 1    
   244  124  125 1    
   245  124  244 1    
   246  124  245 1    
   247  125  126 1    
   248  126  246 1    
   249  126  247 1    
@<TRIPOS>SUBSTRUCTURE
     1 UNK         1 GROUP             0       ****    0 ROOT    
