@<TRIPOS>MOLECULE
3R540
247   249    1
SMALL
USER_CHARGES


@<TRIPOS>ATOM
      1 CA         -4.8461  -16.6583  -44.1358 C.3       0 UNK        -0.1800 
      2 C          -4.3400  -15.5368  -45.0331 C.2       0 UNK         0.5000 
      3 O          -5.0853  -14.6052  -45.3366 O.2       0 UNK        -0.5000 
      4 N          -3.0777  -15.6324  -45.4627 N.am      1 UNK        -0.5000 
      5 CA         -2.3878  -14.6461  -46.2944 C.3       1 UNK         0.1400 
      6 C6         -1.1001  -15.2523  -46.8980 C.3       23 UNK        -0.0398 
      7 S7         -0.5344  -14.3902  -48.4047 S.3       23 UNK        -0.2404 
      8 C8         -1.5769  -15.1143  -49.7144 C.3       23 UNK        -0.0205 
      9 C9         -1.5681  -16.6352  -49.7058 C.ar      23 UNK        -0.0193 
     10 C10        -0.3978  -17.3402  -50.0005 C.ar      23 UNK        -0.1150 
     11 C11        -0.3824  -18.7377  -49.9628 C.ar      23 UNK        -0.0193 
     12 C12        -1.5525  -19.4282  -49.6376 C.ar      23 UNK        -0.1150 
     13 C13        -2.7288  -18.7325  -49.3434 C.ar      23 UNK        -0.0193 
     14 C14        -2.7308  -17.3371  -49.3783 C.ar      23 UNK        -0.1150 
     15 C15        -3.9963  -19.4895  -48.9830 C.3       23 UNK        -0.0205 
     16 S16        -4.4567  -19.3282  -47.2257 S.3       23 UNK        -0.2404 
     17 C17        -2.8925  -19.6806  -46.3545 C.3       23 UNK        -0.0398 
     18 CA         -2.4670  -21.1705  -46.3729 C.3       11 UNK         0.1400 
     19 N          -1.0308  -21.3142  -46.1123 N.am      11 UNK        -0.5000 
     20 C          -0.3396  -22.4631  -46.1133 C.2       10 UNK         0.5000 
     21 O          -0.8290  -23.5602  -46.3734 O.2       10 UNK        -0.5000 
     22 CA          1.1370  -22.3834  -45.6838 C.3       10 UNK         0.1400 
     23 CB          2.0200  -21.8592  -46.8264 C.3       10 UNK        -0.1800 
     24 N           1.3234  -21.5632  -44.4851 N.am      10 UNK        -0.5000 
     25 C           0.7937  -21.8497  -43.2860 C.2       9 UNK         0.5000 
     26 O           0.1496  -22.8712  -43.0505 O.2       9 UNK        -0.5000 
     27 CA          0.9551  -20.7935  -42.1786 C.3       9 UNK         0.1400 
     28 CB          2.3391  -20.8912  -41.5204 C.3       9 UNK        -0.1800 
     29 N           0.7308  -19.4336  -42.6684 N.am      9 UNK        -0.5000 
     30 C          -0.4296  -18.9893  -43.1704 C.2       8 UNK         0.5000 
     31 O          -1.4584  -19.6631  -43.2162 O.2       8 UNK        -0.5000 
     32 CA         -0.4299  -17.5762  -43.7786 C.3       8 UNK         0.1400 
     33 CB         -0.5855  -16.5055  -42.6907 C.3       8 UNK        -0.1800 
     34 N           0.7632  -17.3057  -44.5820 N.am      8 UNK        -0.5000 
     35 C           1.0784  -17.9629  -45.7080 C.2       7 UNK         0.5000 
     36 O           0.3573  -18.8181  -46.2164 O.2       7 UNK        -0.5000 
     37 CA          2.4455  -17.6557  -46.3415 C.3       7 UNK         0.1400 
     38 CB          2.3816  -16.4188  -47.2487 C.3       7 UNK        -0.1800 
     39 N           3.4815  -17.4745  -45.3268 N.am      7 UNK        -0.5000 
     40 C           3.9673  -18.4656  -44.5657 C.2       6 UNK         0.5000 
     41 O           3.6312  -19.6441  -44.6818 O.2       6 UNK        -0.5000 
     42 CA          4.9571  -18.0583  -43.4589 C.3       6 UNK         0.1400 
     43 CB          6.3800  -17.9327  -44.0230 C.3       6 UNK        -0.1800 
     44 N           4.5786  -16.8011  -42.8100 N.am      6 UNK        -0.5000 
     45 C           3.4822  -16.6395  -42.0549 C.2       5 UNK         0.5000 
     46 O           2.7042  -17.5517  -41.7824 O.2       5 UNK        -0.5000 
     47 CA          3.1775  -15.2119  -41.5640 C.3       5 UNK         0.1400 
     48 CB          3.8607  -14.9480  -40.2143 C.3       5 UNK        -0.1800 
     49 N           3.5823  -14.1827  -42.5247 N.am      5 UNK        -0.5000 
     50 C           3.0359  -14.0182  -43.7360 C.2       4 UNK         0.5000 
     51 O           2.1083  -14.7041  -44.1740 O.2       4 UNK        -0.5000 
     52 CA          3.6906  -12.9623  -44.6311 C.3       4 UNK         0.1400 
     53 CB          4.8970  -13.5772  -45.3691 C.3       4 UNK        -0.1800 
     54 N           2.7126  -12.4610  -45.5913 N.am      4 UNK        -0.5000 
     55 C           2.8623  -11.3515  -46.3244 C.2       3 UNK         0.5000 
     56 O           3.8361  -10.6017  -46.2390 O.2       3 UNK        -0.5000 
     57 CA          1.7484  -11.0203  -47.3323 C.3       3 UNK         0.1400 
     58 CB          1.9892  -11.7673  -48.6533 C.3       3 UNK        -0.1800 
     59 N           0.3985  -11.3114  -46.8439 N.am      3 UNK        -0.5000 
     60 C          -0.2347  -10.5969  -45.9001 C.2       2 UNK         0.5000 
     61 O           0.2986   -9.6830  -45.2698 O.2       2 UNK        -0.5000 
     62 CA         -1.7205  -10.9166  -45.6367 C.3       2 UNK         0.1400 
     63 CB         -2.6152   -9.8305  -46.2555 C.3       2 UNK        -0.1800 
     64 N          -2.1227  -12.2147  -46.1800 N.am      2 UNK        -0.5000 
     65 C          -2.0648  -13.3642  -45.4990 C.2       1 UNK         0.5000 
     66 O          -1.7275  -13.4430  -44.3161 O.2       1 UNK        -0.5000 
     67 C          -3.3273  -22.0167  -45.4106 C.2       11 UNK         0.5000 
     68 O          -4.2354  -22.7179  -45.8582 O.2       11 UNK        -0.5000 
     69 N          -3.0022  -21.9565  -44.1118 N.am      12 UNK        -0.5000 
     70 CA         -3.6526  -22.7317  -43.0574 C.3       12 UNK         0.1400 
     71 CB         -3.2035  -22.2002  -41.6877 C.3       12 UNK        -0.1800 
     72 C          -3.3888  -24.2451  -43.1713 C.2       12 UNK         0.5000 
     73 O          -4.3027  -25.0350  -42.9304 O.2       12 UNK        -0.5000 
     74 N          -2.1534  -24.6210  -43.5300 N.am      13 UNK        -0.5000 
     75 CA         -1.7253  -26.0079  -43.7021 C.3       13 UNK         0.1400 
     76 CB         -0.1906  -26.0745  -43.7579 C.3       13 UNK        -0.1800 
     77 C          -2.3514  -26.6767  -44.9385 C.2       13 UNK         0.5000 
     78 O          -2.9506  -27.7453  -44.8078 O.2       13 UNK        -0.5000 
     79 N          -2.2023  -26.0446  -46.1086 N.am      14 UNK        -0.5000 
     80 CA         -2.6637  -26.5453  -47.3993 C.3       14 UNK         0.1400 
     81 CB         -1.8318  -27.7685  -47.8416 C.3       14 UNK        -0.1800 
     82 C          -2.5832  -25.4072  -48.4252 C.2       14 UNK         0.5000 
     83 O          -1.5306  -25.2053  -49.0346 O.2       14 UNK        -0.5000 
     84 N          -3.6909  -24.6715  -48.5819 N.am      15 UNK        -0.5000 
     85 CA         -3.8564  -23.5883  -49.5523 C.3       15 UNK         0.1400 
     86 CB         -5.2614  -22.9884  -49.3851 C.3       15 UNK        -0.1800 
     87 C          -3.6276  -24.0619  -51.0011 C.2       15 UNK         0.5000 
     88 O          -4.2099  -25.0705  -51.4097 O.2       15 UNK        -0.5000 
     89 N          -2.7801  -23.3340  -51.7393 N.am      16 UNK        -0.5000 
     90 CA         -2.3608  -23.6399  -53.1063 C.3       16 UNK         0.1400 
     91 CB         -1.2726  -22.6410  -53.5284 C.3       16 UNK        -0.1800 
     92 C          -3.5529  -23.6189  -54.0766 C.2       16 UNK         0.5000 
     93 O          -4.1353  -22.5575  -54.2987 O.2       16 UNK        -0.5000 
     94 N          -3.9323  -24.8025  -54.5792 N.am      17 UNK        -0.5000 
     95 CA         -5.1239  -25.0602  -55.4003 C.3       17 UNK         0.1400 
     96 CB         -4.9826  -24.3942  -56.7859 C.3       17 UNK        -0.1800 
     97 C          -6.4454  -24.6838  -54.6881 C.2       17 UNK         0.5000 
     98 O          -7.4184  -24.3219  -55.3517 O.2       17 UNK        -0.5000 
     99 N          -6.4412  -24.7593  -53.3464 N.am      18 UNK        -0.5000 
    100 CA        -7.4941  -24.3203  -52.4241 C.3       18 UNK         0.1400 
    101 CB        -8.7742  -25.1645  -52.5979 C.3       18 UNK        -0.1800 
    102 C         -7.7584  -22.7978  -52.4811 C.2       18 UNK         0.5000 
    103 O         -8.8773  -22.3594  -52.2078 O.2       18 UNK        -0.5000 
    104 N         -6.7301  -22.0167  -52.8340 N.am      19 UNK        -0.5000 
    105 CA        -6.7813  -20.5708  -53.0138 C.3       19 UNK         0.1400 
    106 CB        -7.1662  -20.2691  -54.4767 C.3       19 UNK        -0.1800 
    107 C         -5.4288  -19.9461  -52.6266 C.2       19 UNK         0.5000 
    108 O         -4.5691  -20.6186  -52.0536 O.2       19 UNK        -0.5000 
    109 N         -5.2554  -18.6625  -52.9587 N.am      20 UNK        -0.5000 
    110 CA        -4.0157  -17.9060  -52.7865 C.3       20 UNK         0.1400 
    111 CB        -4.3662  -16.4794  -52.3262 C.3       20 UNK        -0.1800 
    112 C         -3.1797  -17.9248  -54.0817 C.2       20 UNK         0.5000 
    113 O         -2.6883  -16.8822  -54.5185 O.2       20 UNK        -0.5000 
    114 N         -3.0293  -19.1121  -54.6883 N.am      21 UNK        -0.5000 
    115 CA        -2.3174  -19.3194  -55.9561 C.3       21 UNK         0.1400 
    116 CB        -2.7207  -20.6763  -56.5535 C.3       21 UNK        -0.1800 
    117 C         -0.7812  -19.1837  -55.8572 C.2       21 UNK         0.5000 
    118 O         -0.1044  -19.2775  -56.8821 O.2       21 UNK        -0.5000 
    119 N         -0.2569  -18.9504  -54.6462 N.am      22 UNK        -0.5000 
    120 CA         1.1525  -18.6277  -54.3685 C.3       22 UNK         0.1400 
    121 C          1.6540  -17.3047  -55.0226 C.2       22 UNK         0.5000 
    122 N          0.7821  -16.3638  -55.3690 N.am      22 UNK        -0.7600 
    123 O          2.8541  -17.1306  -55.2145 O.2       22 UNK        -0.5000 
    124 C124        1.4433  -18.5831  -52.8467 C.3       23 UNK        -0.0398 
    125 S125        0.9786  -20.1080  -51.9597 S.3       23 UNK        -0.2404 
    126 C126        0.8998  -19.5073  -50.2423 C.3       23 UNK        -0.0205 
    127 H127       -4.0569  -17.3686  -43.8872 H         1 UNK         0.0600 
    128 H128       -5.6479  -17.2031  -44.6343 H         1 UNK         0.0600 
    129 H129       -5.2373  -16.2477  -43.2050 H         1 UNK         0.0600 
    130 H130       -2.5162  -16.4082  -45.1535 H         1 UNK         0.3000 
    131 H131       -3.0687  -14.3895  -47.1090 H         1 UNK         0.0600 
    132 H132       -1.2423  -16.3079  -47.1287 H         1 UNK         0.0800 
    133 H133       -0.2873  -15.2320  -46.1702 H         1 UNK         0.0800 
    134 H134       -1.2205  -14.7622  -50.6834 H         1 UNK         0.0800 
    135 H135       -2.5938  -14.7337  -49.6088 H         1 UNK         0.0800 
    136 H136        0.5045  -16.7954  -50.2391 H         1 UNK         0.1150 
    137 H137       -1.5409  -20.5081  -49.6042 H         1 UNK         0.1150 
    138 H138       -3.6384  -16.8009  -49.1393 H         1 UNK         0.1150 
    139 H139       -4.8194  -19.1221  -49.5971 H         1 UNK         0.0800 
    140 H140       -3.8870  -20.5435  -49.2298 H         1 UNK         0.0800 
    141 H141       -2.9910  -19.3176  -45.3312 H         1 UNK         0.0800 
    142 H142       -2.1184  -19.0571  -46.7985 H         1 UNK         0.0800 
    143 H143       -2.6264  -21.5615  -47.3780 H         1 UNK         0.0600 
    144 H144       -0.5213  -20.4517  -45.9361 H         1 UNK         0.3000 
    145 H145        1.4670  -23.3962  -45.4438 H         1 UNK         0.0600 
    146 H146        3.0720  -21.8550  -46.5409 H         1 UNK         0.0600 
    147 H147        1.9245  -22.4895  -47.7114 H         1 UNK         0.0600 
    148 H148        1.7500  -20.8453  -47.1182 H         1 UNK         0.0600 
    149 H149        1.8835  -20.7236  -44.5862 H         1 UNK         0.3000 
    150 H150        0.2026  -20.9981  -41.4142 H         1 UNK         0.0600 
    151 H151        2.5128  -21.8926  -41.1248 H         1 UNK         0.0600 
    152 H152        2.4294  -20.1924  -40.6885 H         1 UNK         0.0600 
    153 H153        3.1398  -20.6739  -42.2270 H         1 UNK         0.0600 
    154 H154        1.5135  -18.7891  -42.5988 H         1 UNK         0.3000 
    155 H155       -1.2908  -17.5114  -44.4439 H         1 UNK         0.0600 
    156 H156        0.2001  -16.5747  -41.9392 H         1 UNK         0.0600 
    157 H157       -1.5407  -16.6118  -42.1752 H         1 UNK         0.0600 
    158 H158       -0.5523  -15.5023  -43.1142 H         1 UNK         0.0600 
    159 H159        1.3811  -16.5697  -44.2556 H         1 UNK         0.3000 
    160 H160        2.7211  -18.5106  -46.9626 H         1 UNK         0.0600 
    161 H161        2.1263  -15.5155  -46.6956 H         1 UNK         0.0600 
    162 H162        1.6297  -16.5504  -48.0265 H         1 UNK         0.0600 
    163 H163        3.3351  -16.2461  -47.7476 H         1 UNK         0.0600 
    164 H164        3.7766  -16.5287  -45.1401 H         1 UNK         0.3000 
    165 H165        4.9561  -18.8466  -42.7032 H         1 UNK         0.0600 
    166 H166        7.0993  -17.7166  -43.2329 H         1 UNK         0.0600 
    167 H167        6.6932  -18.8621  -44.5007 H         1 UNK         0.0600 
    168 H168        6.4515  -17.1397  -44.7687 H         1 UNK         0.0600 
    169 H169        5.1735  -16.0030  -42.9744 H         1 UNK         0.3000 
    170 H170        2.0981  -15.1328  -41.4209 H         1 UNK         0.0600 
    171 H171        3.5588  -15.6894  -39.4732 H         1 UNK         0.0600 
    172 H172        4.9475  -14.9894  -40.2963 H         1 UNK         0.0600 
    173 H173        3.5901  -13.9682  -39.8202 H         1 UNK         0.0600 
    174 H174        4.3449  -13.5826  -42.2443 H         1 UNK         0.3000 
    175 H175        4.0257  -12.1350  -44.0019 H         1 UNK         0.0600 
    176 H176        4.5889  -14.3750  -46.0458 H         1 UNK         0.0600 
    177 H177        5.4288  -12.8303  -45.9583 H         1 UNK         0.0600 
    178 H178        5.6176  -13.9994  -44.6677 H         1 UNK         0.0600 
    179 H179        1.8721  -13.0180  -45.6744 H         1 UNK         0.3000 
    180 H180        1.8020   -9.9497  -47.5419 H         1 UNK         0.0600 
    181 H181        2.0064  -12.8480  -48.5089 H         1 UNK         0.0600 
    182 H182        2.9478  -11.4840  -49.0896 H         1 UNK         0.0600 
    183 H183        1.2175  -11.5367  -49.3880 H         1 UNK         0.0600 
    184 H184       -0.0998  -12.0568  -47.3081 H         1 UNK         0.3000 
    185 H185       -1.8737  -10.9022  -44.5554 H         1 UNK         0.0600 
    186 H186       -2.3704   -8.8459  -45.8545 H         1 UNK         0.0600 
    187 H187       -2.5001   -9.7814  -47.3390 H         1 UNK         0.0600 
    188 H188       -3.6672  -10.0154  -46.0373 H         1 UNK         0.0600 
    189 H189       -2.4155  -12.2261  -47.1468 H         1 UNK         0.3000 
    190 H190       -2.2694  -21.3158  -43.8194 H         1 UNK         0.3000 
    191 H191       -4.7299  -22.5755  -43.1441 H         1 UNK         0.0600 
    192 H192       -2.1271  -22.3046  -41.5484 H         1 UNK         0.0600 
    193 H193       -3.6944  -22.7416  -40.8781 H         1 UNK         0.0600 
    194 H194       -3.4534  -21.1452  -41.5733 H         1 UNK         0.0600 
    195 H195       -1.4417  -23.9077  -43.6536 H         1 UNK         0.3000 
    196 H196       -2.0482  -26.5700  -42.8232 H         1 UNK         0.0600 
    197 H197        0.1521  -27.1016  -43.8890 H         1 UNK         0.0600 
    198 H198        0.2524  -25.6993  -42.8352 H         1 UNK         0.0600 
    199 H199        0.2107  -25.4857  -44.5831 H         1 UNK         0.0600 
    200 H200       -1.7131  -25.1494  -46.1383 H         1 UNK         0.3000 
    201 H201       -3.7077  -26.8522  -47.3076 H         1 UNK         0.0600 
    202 H202       -1.9922  -28.6234  -47.1851 H         1 UNK         0.0600 
    203 H203       -0.7637  -27.5476  -47.8466 H         1 UNK         0.0600 
    204 H204       -2.1075  -28.0829  -48.8490 H         1 UNK         0.0600 
    205 H205       -4.4991  -24.8871  -48.0169 H         1 UNK         0.3000 
    206 H206       -3.1173  -22.8208  -49.3185 H         1 UNK         0.0600 
    207 H207       -6.0367  -23.7488  -49.4762 H         1 UNK         0.0600 
    208 H208       -5.3732  -22.5161  -48.4089 H         1 UNK         0.0600 
    209 H209       -5.4602  -22.2254  -50.1370 H         1 UNK         0.0600 
    210 H210       -2.4039  -22.4831  -51.3496 H         1 UNK         0.3000 
    211 H211       -1.9198  -24.6388  -53.1059 H         1 UNK         0.0600 
    212 H212       -1.6333  -21.6120  -53.4972 H         1 UNK         0.0600 
    213 H213       -0.9274  -22.8423  -54.5429 H         1 UNK         0.0600 
    214 H214       -0.4035  -22.7097  -52.8744 H         1 UNK         0.0600 
    215 H215       -3.4112  -25.6247  -54.3071 H         1 UNK         0.3000 
    216 H216       -5.1621  -26.1393  -55.5551 H         1 UNK         0.0600 
    217 H217       -5.7864  -24.7054  -57.4539 H         1 UNK         0.0600 
    218 H218       -4.0419  -24.6700  -57.2623 H         1 UNK         0.0600 
    219 H219       -5.0178  -23.3063  -56.7187 H         1 UNK         0.0600 
    220 H220       -5.5807  -25.0513  -52.8923 H         1 UNK         0.3000 
    221 H221       -7.1119  -24.5205  -51.4234 H         1 UNK         0.0600 
    222 H222       -9.2710  -24.9604  -53.5465 H         1 UNK         0.0600 
    223 H223       -8.5522  -26.2308  -52.5570 H         1 UNK         0.0600 
    224 H224       -9.4914  -24.9538  -51.8038 H         1 UNK         0.0600 
    225 H225       -5.8243  -22.4263  -53.0389 H         1 UNK         0.3000 
    226 H226       -7.5322  -20.1437  -52.3463 H         1 UNK         0.0600 
    227 H227       -8.0976  -20.7658  -54.7494 H         1 UNK         0.0600 
    228 H228       -7.3158  -19.2026  -54.6449 H         1 UNK         0.0600 
    229 H229       -6.3948  -20.6115  -55.1685 H         1 UNK         0.0600 
    230 H230       -5.9975  -18.1852  -53.4497 H         1 UNK         0.3000 
    231 H231       -3.3999  -18.3658  -52.0131 H         1 UNK         0.0600 
    232 H232       -4.9420  -16.4957  -51.4008 H         1 UNK         0.0600 
    233 H233       -4.9509  -15.9454  -53.0760 H         1 UNK         0.0600 
    234 H234       -3.4643  -15.8969  -52.1344 H         1 UNK         0.0600 
    235 H235       -3.4469  -19.9317  -54.2654 H         1 UNK         0.3000 
    236 H236       -2.6532  -18.5459  -56.6499 H         1 UNK         0.0600 
    237 H237       -2.3268  -21.5055  -55.9693 H         1 UNK         0.0600 
    238 H238       -3.8044  -20.7844  -56.6040 H         1 UNK         0.0600 
    239 H239       -2.3367  -20.7855  -57.5684 H         1 UNK         0.0600 
    240 H240       -0.8820  -18.9129  -53.8561 H         1 UNK         0.3000 
    241 H241        1.7513  -19.4323  -54.7992 H         1 UNK         0.0600 
    242 H242       -0.2061  -16.4918  -55.2065 H         1 UNK         0.3800 
    243 H243        1.1138  -15.5119  -55.7933 H         1 UNK         0.3800 
    244 H244        2.5057  -18.4090  -52.6660 H         1 UNK         0.0800 
    245 H245        0.9160  -17.7395  -52.4016 H         1 UNK         0.0800 
    246 H246        1.7741  -18.8920  -50.0241 H         1 UNK         0.0800 
    247 H247        0.9587  -20.3636  -49.5689 H         1 UNK         0.0800 
@<TRIPOS>BOND
     1    1    2 1    
     2    1  127 1    
     3    1  128 1    
     4    1  129 1    
     5    2    3 2    
     6    2    4 am   BACKBONE|DICT|INTERRES
     7    4    5 1    
     8    4  130 1    
     9    5    6 1    
    10    5   65 1    
    11    5  131 1    
    12    6    7 1    
    13    6  132 1    
    14    6  133 1    
    15    7    8 1    
    16    8    9 1    
    17    8  134 1    
    18    8  135 1    
    19    9   10 ar   
    20    9   14 ar   
    21   10   11 ar   
    22   10  136 1    
    23   11   12 ar   
    24   11  126 1    
    25   12   13 ar   
    26   12  137 1    
    27   13   14 ar   
    28   13   15 1    
    29   14  138 1    
    30   15   16 1    
    31   15  139 1    
    32   15  140 1    
    33   16   17 1    
    34   17   18 1    
    35   17  141 1    
    36   17  142 1    
    37   18   19 1    
    38   18   67 1    
    39   18  143 1    
    40   19   20 am   BACKBONE|DICT|INTERRES
    41   19  144 1    
    42   20   21 2    
    43   20   22 1    
    44   22   23 1    
    45   22   24 1    
    46   22  145 1    
    47   23  146 1    
    48   23  147 1    
    49   23  148 1    
    50   24   25 am   BACKBONE|DICT|INTERRES
    51   24  149 1    
    52   25   26 2    
    53   25   27 1    
    54   27   28 1    
    55   27   29 1    
    56   27  150 1    
    57   28  151 1    
    58   28  152 1    
    59   28  153 1    
    60   29   30 am   BACKBONE|DICT|INTERRES
    61   29  154 1    
    62   30   31 2    
    63   30   32 1    
    64   32   33 1    
    65   32   34 1    
    66   32  155 1    
    67   33  156 1    
    68   33  157 1    
    69   33  158 1    
    70   34   35 am   BACKBONE|DICT|INTERRES
    71   34  159 1    
    72   35   36 2    
    73   35   37 1    
    74   37   38 1    
    75   37   39 1    
    76   37  160 1    
    77   38  161 1    
    78   38  162 1    
    79   38  163 1    
    80   39   40 am   BACKBONE|DICT|INTERRES
    81   39  164 1    
    82   40   41 2    
    83   40   42 1    
    84   42   43 1    
    85   42   44 1    
    86   42  165 1    
    87   43  166 1    
    88   43  167 1    
    89   43  168 1    
    90   44   45 am   BACKBONE|DICT|INTERRES
    91   44  169 1    
    92   45   46 2    
    93   45   47 1    
    94   47   48 1    
    95   47   49 1    
    96   47  170 1    
    97   48  171 1    
    98   48  172 1    
    99   48  173 1    
   100   49   50 am   BACKBONE|DICT|INTERRES
   101   49  174 1    
   102   50   51 2    
   103   50   52 1    
   104   52   53 1    
   105   52   54 1    
   106   52  175 1    
   107   53  176 1    
   108   53  177 1    
   109   53  178 1    
   110   54   55 am   BACKBONE|DICT|INTERRES
   111   54  179 1    
   112   55   56 2    
   113   55   57 1    
   114   57   58 1    
   115   57   59 1    
   116   57  180 1    
   117   58  181 1    
   118   58  182 1    
   119   58  183 1    
   120   59   60 am   BACKBONE|DICT|INTERRES
   121   59  184 1    
   122   60   61 2    
   123   60   62 1    
   124   62   63 1    
   125   62   64 1    
   126   62  185 1    
   127   63  186 1    
   128   63  187 1    
   129   63  188 1    
   130   64   65 am   BACKBONE|DICT|INTERRES
   131   64  189 1    
   132   65   66 2    
   133   67   68 2    
   134   67   69 am   BACKBONE|DICT|INTERRES
   135   69   70 1    
   136   69  190 1    
   137   70   71 1    
   138   70   72 1    
   139   70  191 1    
   140   71  192 1    
   141   71  193 1    
   142   71  194 1    
   143   72   73 2    
   144   72   74 am   BACKBONE|DICT|INTERRES
   145   74   75 1    
   146   74  195 1    
   147   75   76 1    
   148   75   77 1    
   149   75  196 1    
   150   76  197 1    
   151   76  198 1    
   152   76  199 1    
   153   77   78 2    
   154   77   79 am   BACKBONE|DICT|INTERRES
   155   79   80 1    
   156   79  200 1    
   157   80   81 1    
   158   80   82 1    
   159   80  201 1    
   160   81  202 1    
   161   81  203 1    
   162   81  204 1    
   163   82   83 2    
   164   82   84 am   BACKBONE|DICT|INTERRES
   165   84   85 1    
   166   84  205 1    
   167   85   86 1    
   168   85   87 1    
   169   85  206 1    
   170   86  207 1    
   171   86  208 1    
   172   86  209 1    
   173   87   88 2    
   174   87   89 am   BACKBONE|DICT|INTERRES
   175   89   90 1    
   176   89  210 1    
   177   90   91 1    
   178   90   92 1    
   179   90  211 1    
   180   91  212 1    
   181   91  213 1    
   182   91  214 1    
   183   92   93 2    
   184   92   94 am   BACKBONE|DICT|INTERRES
   185   94   95 1    
   186   94  215 1    
   187   95   96 1    
   188   95   97 1    
   189   95  216 1    
   190   96  217 1    
   191   96  218 1    
   192   96  219 1    
   193   97   98 2    
   194   97   99 am   BACKBONE|DICT|INTERRES
   195   99  100 1    
   196   99  220 1    
   197  100  101 1    
   198  100  102 1    
   199  100  221 1    
   200  101  222 1    
   201  101  223 1    
   202  101  224 1    
   203  102  103 2    
   204  102  104 am   BACKBONE|DICT|INTERRES
   205  104  105 1    
   206  104  225 1    
   207  105  106 1    
   208  105  107 1    
   209  105  226 1    
   210  106  227 1    
   211  106  228 1    
   212  106  229 1    
   213  107  108 2    
   214  107  109 am   BACKBONE|DICT|INTERRES
   215  109  110 1    
   216  109  230 1    
   217  110  111 1    
   218  110  112 1    
   219  110  231 1    
   220  111  232 1    
   221  111  233 1    
   222  111  234 1    
   223  112  113 2    
   224  112  114 am   BACKBONE|DICT|INTERRES
   225  114  115 1    
   226  114  235 1    
   227  115  116 1    
   228  115  117 1    
   229  115  236 1    
   230  116  237 1    
   231  116  238 1    
   232  116  239 1    
   233  117  118 2    
   234  117  119 am   BACKBONE|DICT|INTERRES
   235  119  120 1    
   236  119  240 1    
   237  120  121 1    
   238  120  124 1    
   239  120  241 1    
   240  121  122 am   BACKBONE|DICT|INTERRES
   241  121  123 2    
   242  122  242 1    
   243  122  243 1    
   244  124  125 1    
   245  124  244 1    
   246  124  245 1    
   247  125  126 1    
   248  126  246 1    
   249  126  247 1    
@<TRIPOS>SUBSTRUCTURE
     1 UNK         1 GROUP             0       ****    0 ROOT    
