@<TRIPOS>MOLECULE
3R540
247   249    1
SMALL
USER_CHARGES


@<TRIPOS>ATOM
      1 CA          3.2595  -11.8355  -51.8625 C.3       0 UNK        -0.1800 
      2 C           3.5184  -12.0153  -50.3735 C.2       0 UNK         0.5000 
      3 O           3.3315  -11.0752  -49.6010 O.2       0 UNK        -0.5000 
      4 N           3.9544  -13.2158  -49.9713 N.am      1 UNK        -0.5000 
      5 CA          4.2062  -13.6026  -48.5774 C.3       1 UNK         0.1400 
      6 C6          5.0311  -14.9126  -48.4675 C.3       23 UNK        -0.0398 
      7 S7          4.4413  -16.2793  -49.5332 S.3       23 UNK        -0.2404 
      8 C8          3.6641  -17.3952  -48.3265 C.3       23 UNK        -0.0205 
      9 C9          3.1886  -18.6702  -49.0031 C.ar      23 UNK        -0.0193 
     10 C10         1.8831  -18.7688  -49.4898 C.ar      23 UNK        -0.1150 
     11 C11         1.4456  -19.9341  -50.1266 C.ar      23 UNK        -0.0193 
     12 C12         2.3243  -21.0126  -50.2675 C.ar      23 UNK        -0.1150 
     13 C13         3.6330  -20.9269  -49.7807 C.ar      23 UNK        -0.0193 
     14 C14         4.0583  -19.7529  -49.1518 C.ar      23 UNK        -0.1150 
     15 C15         4.6018  -22.0880  -49.9498 C.3       23 UNK        -0.0205 
     16 S16         4.9943  -22.8916  -48.3642 S.3       23 UNK        -0.2404 
     17 C17         3.4633  -23.8311  -48.0562 C.3       23 UNK        -0.0398 
     18 CA          3.5185  -24.6061  -46.7152 C.3       11 UNK         0.1400 
     19 N           3.5787  -23.6835  -45.5768 N.am      11 UNK        -0.5000 
     20 C           4.4054  -23.7871  -44.5289 C.2       10 UNK         0.5000 
     21 O           5.2689  -24.6577  -44.4177 O.2       10 UNK        -0.5000 
     22 CA          4.2142  -22.7579  -43.3950 C.3       10 UNK         0.1400 
     23 CB          5.1637  -21.5666  -43.5896 C.3       10 UNK        -0.1800 
     24 N           2.8360  -22.2667  -43.2890 N.am      10 UNK        -0.5000 
     25 C           1.7848  -23.0288  -42.9467 C.2       9 UNK         0.5000 
     26 O           1.8847  -24.2121  -42.6242 O.2       9 UNK        -0.5000 
     27 CA          0.3782  -22.4042  -43.0387 C.3       9 UNK         0.1400 
     28 CB         -0.1030  -21.9733  -41.6457 C.3       9 UNK        -0.1800 
     29 N           0.2799  -21.2771  -43.9701 N.am      9 UNK        -0.5000 
     30 C           0.5486  -21.3372  -45.2833 C.2       8 UNK         0.5000 
     31 O           0.8593  -22.3787  -45.8645 O.2       8 UNK        -0.5000 
     32 CA          0.5319  -20.0199  -46.0779 C.3       8 UNK         0.1400 
     33 CB         -0.7782  -19.8638  -46.8512 C.3       8 UNK        -0.1800 
     34 N           0.7647  -18.8137  -45.2794 N.am      8 UNK        -0.5000 
     35 C           1.9111  -18.5459  -44.6341 C.2       7 UNK         0.5000 
     36 O           2.8488  -19.3394  -44.5557 O.2       7 UNK        -0.5000 
     37 CA          2.0320  -17.1716  -43.9595 C.3       7 UNK         0.1400 
     38 CB          2.3603  -16.0967  -45.0002 C.3       7 UNK        -0.1800 
     39 N           0.7947  -16.8154  -43.2690 N.am      7 UNK        -0.5000 
     40 C           0.6198  -16.9219  -41.9455 C.2       6 UNK         0.5000 
     41 O           1.5120  -17.2307  -41.1544 O.2       6 UNK        -0.5000 
     42 CA         -0.8022  -16.6697  -41.4096 C.3       6 UNK         0.1400 
     43 CB         -0.9708  -15.2021  -40.9890 C.3       6 UNK        -0.1800 
     44 N          -1.8645  -17.0348  -42.3513 N.am      6 UNK        -0.5000 
     45 C          -2.0717  -18.2738  -42.8225 C.2       5 UNK         0.5000 
     46 O          -1.3458  -19.2310  -42.5624 O.2       5 UNK        -0.5000 
     47 CA         -3.2782  -18.4891  -43.7516 C.3       5 UNK         0.1400 
     48 CB         -4.4859  -18.9757  -42.9354 C.3       5 UNK        -0.1800 
     49 N          -3.6689  -17.3091  -44.5230 N.am      5 UNK        -0.5000 
     50 C          -2.9036  -16.6489  -45.4032 C.2       4 UNK         0.5000 
     51 O          -1.7291  -16.9453  -45.6453 O.2       4 UNK        -0.5000 
     52 CA         -3.5718  -15.4584  -46.1343 C.3       4 UNK         0.1400 
     53 CB         -4.9055  -15.0025  -45.5010 C.3       4 UNK        -0.1800 
     54 N          -2.6924  -14.2976  -46.3083 N.am      4 UNK        -0.5000 
     55 C          -1.9622  -13.6779  -45.3707 C.2       3 UNK         0.5000 
     56 O          -1.9146  -14.0304  -44.1919 O.2       3 UNK        -0.5000 
     57 CA         -1.1825  -12.4250  -45.8207 C.3       3 UNK         0.1400 
     58 CB          0.1318  -12.2104  -45.0409 C.3       3 UNK        -0.1800 
     59 N          -1.0037  -12.2758  -47.2765 N.am      3 UNK        -0.5000 
     60 C          -0.2930  -12.9741  -48.1786 C.2       2 UNK         0.5000 
     61 O          -0.2761  -12.6272  -49.3599 O.2       2 UNK        -0.5000 
     62 CA          0.4905  -14.2429  -47.7908 C.3       2 UNK         0.1400 
     63 CB         -0.1854  -15.5048  -48.3501 C.3       2 UNK        -0.1800 
     64 N           1.8328  -14.1711  -48.3563 N.am      2 UNK        -0.5000 
     65 C           2.9113  -13.6731  -47.7418 C.2       1 UNK         0.5000 
     66 O           2.9175  -13.2690  -46.5799 O.2       1 UNK        -0.5000 
     67 C           2.3069  -25.5582  -46.5931 C.2       11 UNK         0.5000 
     68 O           2.1157  -26.3979  -47.4734 O.2       11 UNK        -0.5000 
     69 N           1.4940  -25.3921  -45.5352 N.am      12 UNK        -0.5000 
     70 CA          0.1817  -26.0088  -45.3012 C.3       12 UNK         0.1400 
     71 CB          0.3250  -27.5231  -45.0465 C.3       12 UNK        -0.1800 
     72 C          -0.8413  -25.6785  -46.4127 C.2       12 UNK         0.5000 
     73 O          -1.7404  -26.4747  -46.6877 O.2       12 UNK        -0.5000 
     74 N          -0.6857  -24.5061  -47.0406 N.am      13 UNK        -0.5000 
     75 CA         -1.3915  -24.0872  -48.2487 C.3       13 UNK         0.1400 
     76 CB         -0.4034  -23.3270  -49.1482 C.3       13 UNK        -0.1800 
     77 C          -2.6713  -23.2911  -47.9287 C.2       13 UNK         0.5000 
     78 O          -2.9020  -22.2247  -48.5032 O.2       13 UNK        -0.5000 
     79 N          -3.4895  -23.8473  -47.0240 N.am      14 UNK        -0.5000 
     80 CA         -4.8292  -23.3971  -46.6369 C.3       14 UNK         0.1400 
     81 CB         -5.8387  -23.8168  -47.7290 C.3       14 UNK        -0.1800 
     82 C          -4.8825  -21.8968  -46.2685 C.2       14 UNK         0.5000 
     83 O          -4.1823  -21.4817  -45.3450 O.2       14 UNK        -0.5000 
     84 N          -5.6991  -21.1230  -46.9944 N.am      15 UNK        -0.5000 
     85 CA         -5.8861  -19.6815  -46.8315 C.3       15 UNK         0.1400 
     86 CB         -7.3914  -19.3889  -46.7007 C.3       15 UNK        -0.1800 
     87 C          -5.2476  -18.8846  -47.9853 C.2       15 UNK         0.5000 
     88 O          -5.6631  -17.7531  -48.2393 O.2       15 UNK        -0.5000 
     89 N          -4.2528  -19.4724  -48.6661 N.am      16 UNK        -0.5000 
     90 CA         -3.5222  -18.8961  -49.7960 C.3       16 UNK         0.1400 
     91 CB         -2.7634  -17.6189  -49.3628 C.3       16 UNK        -0.1800 
     92 C          -4.4353  -18.6892  -51.0187 C.2       16 UNK         0.5000 
     93 O          -5.1669  -19.6099  -51.3887 O.2       16 UNK        -0.5000 
     94 N          -4.3928  -17.4942  -51.6218 N.am      17 UNK        -0.5000 
     95 CA         -5.1808  -17.0942  -52.7883 C.3       17 UNK         0.1400 
     96 CB         -4.7458  -15.6891  -53.2282 C.3       17 UNK        -0.1800 
     97 C          -6.7047  -17.1466  -52.5673 C.2       17 UNK         0.5000 
     98 O          -7.4383  -17.3652  -53.5306 O.2       17 UNK        -0.5000 
     99 N          -7.1570  -17.0119  -51.3108 N.am      18 UNK        -0.5000 
    100 CA        -8.5614  -17.1687  -50.9182 C.3       18 UNK         0.1400 
    101 CB        -8.7514  -16.6507  -49.4850 C.3       18 UNK        -0.1800 
    102 C         -9.0656  -18.6219  -51.0430 C.2       18 UNK         0.5000 
    103 O        -10.2651  -18.8311  -51.2251 O.2       18 UNK        -0.5000 
    104 N         -8.1424  -19.5902  -50.9707 N.am      19 UNK        -0.5000 
    105 CA        -8.3859  -21.0143  -51.2055 C.3       19 UNK         0.1400 
    106 CB        -7.6552  -21.8092  -50.1108 C.3       19 UNK        -0.1800 
    107 C         -7.9094  -21.4580  -52.6052 C.2       19 UNK         0.5000 
    108 O         -8.0400  -22.6368  -52.9362 O.2       19 UNK        -0.5000 
    109 N         -7.3400  -20.5229  -53.3840 N.am      20 UNK        -0.5000 
    110 CA        -6.6587  -20.7105  -54.6707 C.3       20 UNK         0.1400 
    111 CB        -7.6587  -21.1421  -55.7630 C.3       20 UNK        -0.1800 
    112 C         -5.4266  -21.6402  -54.5769 C.2       20 UNK         0.5000 
    113 O         -5.0913  -22.3214  -55.5475 O.2       20 UNK        -0.5000 
    114 N         -4.7766  -21.6594  -53.4051 N.am      21 UNK        -0.5000 
    115 CA        -3.6513  -22.5404  -53.0896 C.3       21 UNK         0.1400 
    116 CB        -3.6239  -22.7648  -51.5731 C.3       21 UNK        -0.1800 
    117 C         -2.2961  -21.9996  -53.5850 C.2       21 UNK         0.5000 
    118 O         -1.3465  -22.7734  -53.7102 O.2       21 UNK        -0.5000 
    119 N         -2.2288  -20.6963  -53.8685 N.am      22 UNK        -0.5000 
    120 CA        -1.0784  -19.9932  -54.4464 C.3       22 UNK         0.1400 
    121 C         -1.5332  -18.6812  -55.1446 C.2       22 UNK         0.5000 
    122 N         -0.6517  -18.0237  -55.8857 N.am      22 UNK        -0.7600 
    123 O         -2.6815  -18.2546  -55.0323 O.2       22 UNK        -0.5000 
    124 C124        0.0944  -19.7889  -53.4426 C.3       23 UNK        -0.0398 
    125 S125       -0.3650  -18.8461  -51.9466 S.3       23 UNK        -0.2404 
    126 C126        0.0095  -20.0322  -50.6163 C.3       23 UNK        -0.0205 
    127 H127        3.4875  -12.7406  -52.4262 H         1 UNK         0.0600 
    128 H128        3.8742  -11.0259  -52.2560 H         1 UNK         0.0600 
    129 H129        2.2124  -11.5842  -52.0321 H         1 UNK         0.0600 
    130 H130        4.0996  -13.9488  -50.6519 H         1 UNK         0.3000 
    131 H131        4.8108  -12.8095  -48.1318 H         1 UNK         0.0600 
    132 H132        6.0584  -14.7024  -48.7679 H         1 UNK         0.0800 
    133 H133        5.1019  -15.2470  -47.4307 H         1 UNK         0.0800 
    134 H134        2.8238  -16.8897  -47.8506 H         1 UNK         0.0800 
    135 H135        4.3743  -17.6383  -47.5345 H         1 UNK         0.0800 
    136 H136        1.2047  -17.9356  -49.3838 H         1 UNK         0.1150 
    137 H137        1.9893  -21.9185  -50.7528 H         1 UNK         0.1150 
    138 H138        5.0713  -19.6820  -48.7808 H         1 UNK         0.1150 
    139 H139        4.2096  -22.8281  -50.6489 H         1 UNK         0.0800 
    140 H140        5.5268  -21.7138  -50.3907 H         1 UNK         0.0800 
    141 H141        2.6153  -23.1438  -48.0681 H         1 UNK         0.0800 
    142 H142        3.3228  -24.5131  -48.8968 H         1 UNK         0.0800 
    143 H143        4.4062  -25.2418  -46.7290 H         1 UNK         0.0600 
    144 H144        2.8883  -22.9420  -45.5820 H         1 UNK         0.3000 
    145 H145        4.4695  -23.2491  -42.4537 H         1 UNK         0.0600 
    146 H146        5.0578  -20.8392  -42.7846 H         1 UNK         0.0600 
    147 H147        4.9751  -21.0532  -44.5333 H         1 UNK         0.0600 
    148 H148        6.2039  -21.8947  -43.5982 H         1 UNK         0.0600 
    149 H149        2.6771  -21.3054  -43.5691 H         1 UNK         0.3000 
    150 H150       -0.2948  -23.1836  -43.4008 H         1 UNK         0.0600 
    151 H151        0.0139  -22.7792  -40.9198 H         1 UNK         0.0600 
    152 H152       -1.1603  -21.7096  -41.6606 H         1 UNK         0.0600 
    153 H153        0.4555  -21.1123  -41.2761 H         1 UNK         0.0600 
    154 H154       -0.0195  -20.3931  -43.5707 H         1 UNK         0.3000 
    155 H155        1.3414  -20.0874  -46.8081 H         1 UNK         0.0600 
    156 H156       -0.9743  -20.7310  -47.4776 H         1 UNK         0.0600 
    157 H157       -0.7200  -18.9970  -47.5045 H         1 UNK         0.0600 
    158 H158       -1.6342  -19.7392  -46.1906 H         1 UNK         0.0600 
    159 H159        0.0263  -18.1203  -45.3002 H         1 UNK         0.3000 
    160 H160        2.8653  -17.2149  -43.2551 H         1 UNK         0.0600 
    161 H161        1.6231  -16.0833  -45.8008 H         1 UNK         0.0600 
    162 H162        3.3357  -16.2773  -45.4525 H         1 UNK         0.0600 
    163 H163        2.3902  -15.1048  -44.5493 H         1 UNK         0.0600 
    164 H164       -0.0025  -16.5642  -43.8384 H         1 UNK         0.3000 
    165 H165       -0.9291  -17.2922  -40.5215 H         1 UNK         0.0600 
    166 H166       -1.9595  -15.0207  -40.5675 H         1 UNK         0.0600 
    167 H167       -0.2384  -14.9294  -40.2282 H         1 UNK         0.0600 
    168 H168       -0.8332  -14.5235  -41.8308 H         1 UNK         0.0600 
    169 H169       -2.4760  -16.2909  -42.6563 H         1 UNK         0.3000 
    170 H170       -3.0078  -19.2727  -44.4588 H         1 UNK         0.0600 
    171 H171       -4.2380  -19.8795  -42.3770 H         1 UNK         0.0600 
    172 H172       -4.8150  -18.2248  -42.2161 H         1 UNK         0.0600 
    173 H173       -5.3320  -19.2200  -43.5767 H         1 UNK         0.0600 
    174 H174       -4.6079  -16.9719  -44.3696 H         1 UNK         0.3000 
    175 H175       -3.7983  -15.8190  -47.1369 H         1 UNK         0.0600 
    176 H176       -4.7756  -14.6830  -44.4661 H         1 UNK         0.0600 
    177 H177       -5.3299  -14.1632  -46.0523 H         1 UNK         0.0600 
    178 H178       -5.6525  -15.7972  -45.5222 H         1 UNK         0.0600 
    179 H179       -2.6670  -13.9107  -47.2403 H         1 UNK         0.3000 
    180 H180       -1.8310  -11.5903  -45.5506 H         1 UNK         0.0600 
    181 H181        0.7433  -11.4275  -45.4896 H         1 UNK         0.0600 
    182 H182        0.7371  -13.1119  -44.9668 H         1 UNK         0.0600 
    183 H183       -0.0833  -11.9027  -44.0170 H         1 UNK         0.0600 
    184 H184       -1.5008  -11.4782  -47.6470 H         1 UNK         0.3000 
    185 H185        0.5405  -14.3450  -46.7120 H         1 UNK         0.0600 
    186 H186       -0.1141  -15.5588  -49.4371 H         1 UNK         0.0600 
    187 H187        0.2676  -16.4045  -47.9352 H         1 UNK         0.0600 
    188 H188       -1.2418  -15.5395  -48.0972 H         1 UNK         0.0600 
    189 H189        1.9144  -14.4105  -49.3335 H         1 UNK         0.3000 
    190 H190        1.7714  -24.7053  -44.8478 H         1 UNK         0.3000 
    191 H191       -0.2082  -25.5575  -44.3881 H         1 UNK         0.0600 
    192 H192       -0.6234  -27.9579  -44.7292 H         1 UNK         0.0600 
    193 H193        1.0512  -27.7223  -44.2585 H         1 UNK         0.0600 
    194 H194        0.6452  -28.0570  -45.9415 H         1 UNK         0.0600 
    195 H195        0.0103  -23.8553  -46.6857 H         1 UNK         0.3000 
    196 H196       -1.7109  -24.9713  -48.8044 H         1 UNK         0.0600 
    197 H197       -0.0202  -22.4288  -48.6658 H         1 UNK         0.0600 
    198 H198       -0.8775  -23.0333  -50.0835 H         1 UNK         0.0600 
    199 H199        0.4507  -23.9531  -49.4065 H         1 UNK         0.0600 
    200 H200       -3.1808  -24.7148  -46.6044 H         1 UNK         0.3000 
    201 H201       -5.0865  -23.9376  -45.7250 H         1 UNK         0.0600 
    202 H202       -5.6050  -23.3654  -48.6935 H         1 UNK         0.0600 
    203 H203       -6.8600  -23.5434  -47.4606 H         1 UNK         0.0600 
    204 H204       -5.8290  -24.8980  -47.8676 H         1 UNK         0.0600 
    205 H205       -6.2071  -21.5532  -47.7527 H         1 UNK         0.3000 
    206 H206       -5.3975  -19.3400  -45.9189 H         1 UNK         0.0600 
    207 H207       -7.8372  -19.9706  -45.8938 H         1 UNK         0.0600 
    208 H208       -7.5691  -18.3370  -46.4734 H         1 UNK         0.0600 
    209 H209       -7.9296  -19.6214  -47.6201 H         1 UNK         0.0600 
    210 H210       -3.9827  -20.4192  -48.4184 H         1 UNK         0.3000 
    211 H211       -2.7988  -19.6520  -50.0921 H         1 UNK         0.0600 
    212 H212       -3.4286  -16.7658  -49.2322 H         1 UNK         0.0600 
    213 H213       -2.0099  -17.3341  -50.0959 H         1 UNK         0.0600 
    214 H214       -2.2531  -17.7659  -48.4150 H         1 UNK         0.0600 
    215 H215       -3.7629  -16.7978  -51.2519 H         1 UNK         0.3000 
    216 H216       -4.9491  -17.7922  -53.5949 H         1 UNK         0.0600 
    217 H217       -4.9171  -14.9501  -52.4445 H         1 UNK         0.0600 
    218 H218       -3.6867  -15.6692  -53.4865 H         1 UNK         0.0600 
    219 H219       -5.2989  -15.3671  -54.1115 H         1 UNK         0.0600 
    220 H220       -6.4913  -16.8623  -50.5642 H         1 UNK         0.3000 
    221 H221       -9.1685  -16.5519  -51.5841 H         1 UNK         0.0600 
    222 H222       -9.8023  -16.6852  -49.1950 H         1 UNK         0.0600 
    223 H223       -8.1954  -17.2481  -48.7633 H         1 UNK         0.0600 
    224 H224       -8.4219  -15.6160  -49.3901 H         1 UNK         0.0600 
    225 H225       -7.1706  -19.3297  -50.8475 H         1 UNK         0.3000 
    226 H226       -9.4523  -21.2382  -51.1384 H         1 UNK         0.0600 
    227 H227       -8.0327  -21.5507  -49.1221 H         1 UNK         0.0600 
    228 H228       -7.7993  -22.8828  -50.2387 H         1 UNK         0.0600 
    229 H229       -6.5817  -21.6169  -50.1269 H         1 UNK         0.0600 
    230 H230       -7.3190  -19.5781  -53.0262 H         1 UNK         0.3000 
    231 H231       -6.2711  -19.7302  -54.9513 H         1 UNK         0.0600 
    232 H232       -7.1898  -21.1358  -56.7476 H         1 UNK         0.0600 
    233 H233       -8.5103  -20.4633  -55.8070 H         1 UNK         0.0600 
    234 H234       -8.0398  -22.1488  -55.5897 H         1 UNK         0.0600 
    235 H235       -5.0886  -21.0399  -52.6620 H         1 UNK         0.3000 
    236 H236       -3.8156  -23.5077  -53.5691 H         1 UNK         0.0600 
    237 H237       -4.5768  -23.1497  -51.2095 H         1 UNK         0.0600 
    238 H238       -2.8568  -23.4890  -51.2997 H         1 UNK         0.0600 
    239 H239       -3.4122  -21.8383  -51.0403 H         1 UNK         0.0600 
    240 H240       -3.0589  -20.1265  -53.7787 H         1 UNK         0.3000 
    241 H241       -0.7097  -20.6255  -55.2563 H         1 UNK         0.0600 
    242 H242       -0.9417  -17.1735  -56.3432 H         1 UNK         0.3800 
    243 H243        0.2931  -18.3524  -56.0101 H         1 UNK         0.3800 
    244 H244        0.9264  -19.2734  -53.9235 H         1 UNK         0.0800 
    245 H245        0.4959  -20.7599  -53.1520 H         1 UNK         0.0800 
    246 H246       -0.6389  -19.8308  -49.7670 H         1 UNK         0.0800 
    247 H247       -0.2318  -21.0398  -50.9520 H         1 UNK         0.0800 
@<TRIPOS>BOND
     1    1    2 1    
     2    1  127 1    
     3    1  128 1    
     4    1  129 1    
     5    2    3 2    
     6    2    4 am   BACKBONE|DICT|INTERRES
     7    4    5 1    
     8    4  130 1    
     9    5    6 1    
    10    5   65 1    
    11    5  131 1    
    12    6    7 1    
    13    6  132 1    
    14    6  133 1    
    15    7    8 1    
    16    8    9 1    
    17    8  134 1    
    18    8  135 1    
    19    9   10 ar   
    20    9   14 ar   
    21   10   11 ar   
    22   10  136 1    
    23   11   12 ar   
    24   11  126 1    
    25   12   13 ar   
    26   12  137 1    
    27   13   14 ar   
    28   13   15 1    
    29   14  138 1    
    30   15   16 1    
    31   15  139 1    
    32   15  140 1    
    33   16   17 1    
    34   17   18 1    
    35   17  141 1    
    36   17  142 1    
    37   18   19 1    
    38   18   67 1    
    39   18  143 1    
    40   19   20 am   BACKBONE|DICT|INTERRES
    41   19  144 1    
    42   20   21 2    
    43   20   22 1    
    44   22   23 1    
    45   22   24 1    
    46   22  145 1    
    47   23  146 1    
    48   23  147 1    
    49   23  148 1    
    50   24   25 am   BACKBONE|DICT|INTERRES
    51   24  149 1    
    52   25   26 2    
    53   25   27 1    
    54   27   28 1    
    55   27   29 1    
    56   27  150 1    
    57   28  151 1    
    58   28  152 1    
    59   28  153 1    
    60   29   30 am   BACKBONE|DICT|INTERRES
    61   29  154 1    
    62   30   31 2    
    63   30   32 1    
    64   32   33 1    
    65   32   34 1    
    66   32  155 1    
    67   33  156 1    
    68   33  157 1    
    69   33  158 1    
    70   34   35 am   BACKBONE|DICT|INTERRES
    71   34  159 1    
    72   35   36 2    
    73   35   37 1    
    74   37   38 1    
    75   37   39 1    
    76   37  160 1    
    77   38  161 1    
    78   38  162 1    
    79   38  163 1    
    80   39   40 am   BACKBONE|DICT|INTERRES
    81   39  164 1    
    82   40   41 2    
    83   40   42 1    
    84   42   43 1    
    85   42   44 1    
    86   42  165 1    
    87   43  166 1    
    88   43  167 1    
    89   43  168 1    
    90   44   45 am   BACKBONE|DICT|INTERRES
    91   44  169 1    
    92   45   46 2    
    93   45   47 1    
    94   47   48 1    
    95   47   49 1    
    96   47  170 1    
    97   48  171 1    
    98   48  172 1    
    99   48  173 1    
   100   49   50 am   BACKBONE|DICT|INTERRES
   101   49  174 1    
   102   50   51 2    
   103   50   52 1    
   104   52   53 1    
   105   52   54 1    
   106   52  175 1    
   107   53  176 1    
   108   53  177 1    
   109   53  178 1    
   110   54   55 am   BACKBONE|DICT|INTERRES
   111   54  179 1    
   112   55   56 2    
   113   55   57 1    
   114   57   58 1    
   115   57   59 1    
   116   57  180 1    
   117   58  181 1    
   118   58  182 1    
   119   58  183 1    
   120   59   60 am   BACKBONE|DICT|INTERRES
   121   59  184 1    
   122   60   61 2    
   123   60   62 1    
   124   62   63 1    
   125   62   64 1    
   126   62  185 1    
   127   63  186 1    
   128   63  187 1    
   129   63  188 1    
   130   64   65 am   BACKBONE|DICT|INTERRES
   131   64  189 1    
   132   65   66 2    
   133   67   68 2    
   134   67   69 am   BACKBONE|DICT|INTERRES
   135   69   70 1    
   136   69  190 1    
   137   70   71 1    
   138   70   72 1    
   139   70  191 1    
   140   71  192 1    
   141   71  193 1    
   142   71  194 1    
   143   72   73 2    
   144   72   74 am   BACKBONE|DICT|INTERRES
   145   74   75 1    
   146   74  195 1    
   147   75   76 1    
   148   75   77 1    
   149   75  196 1    
   150   76  197 1    
   151   76  198 1    
   152   76  199 1    
   153   77   78 2    
   154   77   79 am   BACKBONE|DICT|INTERRES
   155   79   80 1    
   156   79  200 1    
   157   80   81 1    
   158   80   82 1    
   159   80  201 1    
   160   81  202 1    
   161   81  203 1    
   162   81  204 1    
   163   82   83 2    
   164   82   84 am   BACKBONE|DICT|INTERRES
   165   84   85 1    
   166   84  205 1    
   167   85   86 1    
   168   85   87 1    
   169   85  206 1    
   170   86  207 1    
   171   86  208 1    
   172   86  209 1    
   173   87   88 2    
   174   87   89 am   BACKBONE|DICT|INTERRES
   175   89   90 1    
   176   89  210 1    
   177   90   91 1    
   178   90   92 1    
   179   90  211 1    
   180   91  212 1    
   181   91  213 1    
   182   91  214 1    
   183   92   93 2    
   184   92   94 am   BACKBONE|DICT|INTERRES
   185   94   95 1    
   186   94  215 1    
   187   95   96 1    
   188   95   97 1    
   189   95  216 1    
   190   96  217 1    
   191   96  218 1    
   192   96  219 1    
   193   97   98 2    
   194   97   99 am   BACKBONE|DICT|INTERRES
   195   99  100 1    
   196   99  220 1    
   197  100  101 1    
   198  100  102 1    
   199  100  221 1    
   200  101  222 1    
   201  101  223 1    
   202  101  224 1    
   203  102  103 2    
   204  102  104 am   BACKBONE|DICT|INTERRES
   205  104  105 1    
   206  104  225 1    
   207  105  106 1    
   208  105  107 1    
   209  105  226 1    
   210  106  227 1    
   211  106  228 1    
   212  106  229 1    
   213  107  108 2    
   214  107  109 am   BACKBONE|DICT|INTERRES
   215  109  110 1    
   216  109  230 1    
   217  110  111 1    
   218  110  112 1    
   219  110  231 1    
   220  111  232 1    
   221  111  233 1    
   222  111  234 1    
   223  112  113 2    
   224  112  114 am   BACKBONE|DICT|INTERRES
   225  114  115 1    
   226  114  235 1    
   227  115  116 1    
   228  115  117 1    
   229  115  236 1    
   230  116  237 1    
   231  116  238 1    
   232  116  239 1    
   233  117  118 2    
   234  117  119 am   BACKBONE|DICT|INTERRES
   235  119  120 1    
   236  119  240 1    
   237  120  121 1    
   238  120  124 1    
   239  120  241 1    
   240  121  122 am   BACKBONE|DICT|INTERRES
   241  121  123 2    
   242  122  242 1    
   243  122  243 1    
   244  124  125 1    
   245  124  244 1    
   246  124  245 1    
   247  125  126 1    
   248  126  246 1    
   249  126  247 1    
@<TRIPOS>SUBSTRUCTURE
     1 UNK         1 GROUP             0       ****    0 ROOT    
