@<TRIPOS>MOLECULE
3R540
247   249    1
SMALL
USER_CHARGES


@<TRIPOS>ATOM
      1 CA          4.4385  -17.0385  -48.2794 C.3       0 UNK        -0.1800 
      2 C           3.3933  -16.1375  -47.6384 C.2       0 UNK         0.5000 
      3 O           3.7370  -15.2700  -46.8352 O.2       0 UNK        -0.5000 
      4 N           2.1177  -16.3383  -47.9885 N.am      1 UNK        -0.5000 
      5 CA          0.9523  -15.5980  -47.4928 C.3       1 UNK         0.1400 
      6 C6         -0.3421  -16.4497  -47.5851 C.3       23 UNK        -0.0398 
      7 S7         -0.6718  -17.1644  -49.2352 S.3       23 UNK        -0.2404 
      8 C8         -1.4272  -18.7647  -48.8117 C.3       23 UNK        -0.0205 
      9 C9         -2.6604  -18.6228  -47.9303 C.ar      23 UNK        -0.0193 
     10 C10        -3.8202  -18.0248  -48.4262 C.ar      23 UNK        -0.1150 
     11 C11        -4.9528  -17.8893  -47.6212 C.ar      23 UNK        -0.0193 
     12 C12        -4.9184  -18.3682  -46.3081 C.ar      23 UNK        -0.1150 
     13 C13        -3.7707  -18.9806  -45.7936 C.ar      23 UNK        -0.0193 
     14 C14        -2.6420  -19.0975  -46.6168 C.ar      23 UNK        -0.1150 
     15 C15        -3.8108  -19.4879  -44.3500 C.3       23 UNK        -0.0205 
     16 S16        -2.2044  -19.9844  -43.6358 S.3       23 UNK        -0.2404 
     17 C17        -2.2057  -21.7990  -43.8441 C.3       23 UNK        -0.0398 
     18 CA         -1.6316  -22.3156  -45.1897 C.3       11 UNK         0.1400 
     19 N          -0.3068  -21.7764  -45.5191 N.am      11 UNK        -0.5000 
     20 C           0.3291  -21.9654  -46.6865 C.2       10 UNK         0.5000 
     21 O          -0.1759  -22.5328  -47.6567 O.2       10 UNK        -0.5000 
     22 CA          1.7891  -21.4867  -46.7721 C.3       10 UNK         0.1400 
     23 CB          1.8727  -20.0198  -47.2211 C.3       10 UNK        -0.1800 
     24 N           2.4783  -21.6491  -45.4926 N.am      10 UNK        -0.5000 
     25 C           2.9695  -22.8113  -45.0406 C.2       9 UNK         0.5000 
     26 O           2.9248  -23.8623  -45.6778 O.2       9 UNK        -0.5000 
     27 CA          3.5945  -22.8092  -43.6319 C.3       9 UNK         0.1400 
     28 CB          5.0840  -22.4422  -43.7058 C.3       9 UNK        -0.1800 
     29 N           2.9213  -21.9019  -42.7015 N.am      9 UNK        -0.5000 
     30 C           1.6663  -22.0631  -42.2613 C.2       8 UNK         0.5000 
     31 O           0.9487  -23.0119  -42.5742 O.2       8 UNK        -0.5000 
     32 CA          1.0929  -20.9467  -41.3687 C.3       8 UNK         0.1400 
     33 CB          1.4547  -21.1963  -39.8973 C.3       8 UNK        -0.1800 
     34 N           1.4943  -19.5853  -41.7435 N.am      8 UNK        -0.5000 
     35 C           1.3688  -19.0490  -42.9642 C.2       7 UNK         0.5000 
     36 O           1.0256  -19.6800  -43.9644 O.2       7 UNK        -0.5000 
     37 CA          1.6356  -17.5476  -43.0999 C.3       7 UNK         0.1400 
     38 CB          2.6153  -17.2687  -44.2510 C.3       7 UNK        -0.1800 
     39 N           0.3585  -16.8994  -43.3798 N.am      7 UNK        -0.5000 
     40 C          -0.4952  -16.4700  -42.4425 C.2       6 UNK         0.5000 
     41 O          -0.2347  -16.4468  -41.2392 O.2       6 UNK        -0.5000 
     42 CA         -1.8643  -15.9814  -42.9515 C.3       6 UNK         0.1400 
     43 CB         -2.7066  -15.2348  -41.8963 C.3       6 UNK        -0.1800 
     44 N          -1.8095  -15.2521  -44.2250 N.am      6 UNK        -0.5000 
     45 C          -1.2004  -14.1076  -44.5769 C.2       5 UNK         0.5000 
     46 O          -1.3195  -13.6845  -45.7247 O.2       5 UNK        -0.5000 
     47 CA         -0.3212  -13.2970  -43.5944 C.3       5 UNK         0.1400 
     48 CB          1.1775  -13.5558  -43.8281 C.3       5 UNK        -0.1800 
     49 N          -0.5638  -11.8673  -43.7856 N.am      5 UNK        -0.5000 
     50 C          -1.6488  -11.2174  -43.3429 C.2       4 UNK         0.5000 
     51 O          -2.5257  -11.7507  -42.6620 O.2       4 UNK        -0.5000 
     52 CA         -1.7824   -9.7209  -43.6899 C.3       4 UNK         0.1400 
     53 CB         -1.4776   -8.8560  -42.4563 C.3       4 UNK        -0.1800 
     54 N          -0.9165   -9.2880  -44.7875 N.am      4 UNK        -0.5000 
     55 C          -1.1528   -9.5079  -46.0873 C.2       3 UNK         0.5000 
     56 O          -2.1436  -10.1060  -46.5091 O.2       3 UNK        -0.5000 
     57 CA         -0.1221   -8.9550  -47.0970 C.3       3 UNK         0.1400 
     58 CB          0.9276   -8.0041  -46.4761 C.3       3 UNK        -0.1800 
     59 N           0.5456  -10.0198  -47.8521 N.am      3 UNK        -0.5000 
     60 C           1.2407  -11.0479  -47.3468 C.2       2 UNK         0.5000 
     61 O           1.4055  -11.2428  -46.1398 O.2       2 UNK        -0.5000 
     62 CA          1.9203  -11.9734  -48.3709 C.3       2 UNK         0.1400 
     63 CB          3.3926  -11.5754  -48.5561 C.3       2 UNK        -0.1800 
     64 N           1.8641  -13.3643  -47.9333 N.am      2 UNK        -0.5000 
     65 C           0.8353  -14.1936  -48.1385 C.2       1 UNK         0.5000 
     66 O          -0.1461  -13.8894  -48.8185 O.2       1 UNK        -0.5000 
     67 C          -1.6057  -23.8591  -45.1956 C.2       11 UNK         0.5000 
     68 O          -2.4372  -24.4811  -45.8581 O.2       11 UNK        -0.5000 
     69 N          -0.6128  -24.4408  -44.5028 N.am      12 UNK        -0.5000 
     70 CA         -0.3608  -25.8828  -44.4115 C.3       12 UNK         0.1400 
     71 CB          0.7444  -26.1399  -43.3765 C.3       12 UNK        -0.1800 
     72 C           0.0053  -26.5369  -45.7571 C.2       12 UNK         0.5000 
     73 O          -0.2627  -27.7234  -45.9456 O.2       12 UNK        -0.5000 
     74 N           0.5585  -25.7456  -46.6854 N.am      13 UNK        -0.5000 
     75 CA          0.8281  -26.1200  -48.0746 C.3       13 UNK         0.1400 
     76 CB          1.9698  -25.2430  -48.6184 C.3       13 UNK        -0.1800 
     77 C          -0.4229  -26.0441  -48.9784 C.2       13 UNK         0.5000 
     78 O          -0.2737  -26.0231  -50.1995 O.2       13 UNK        -0.5000 
     79 N          -1.6241  -25.9898  -48.3829 N.am      14 UNK        -0.5000 
     80 CA         -2.9385  -25.9155  -49.0245 C.3       14 UNK         0.1400 
     81 CB         -3.2291  -27.1901  -49.8453 C.3       14 UNK        -0.1800 
     82 C          -3.0956  -24.6195  -49.8373 C.2       14 UNK         0.5000 
     83 O          -3.3893  -24.6670  -51.0318 O.2       14 UNK        -0.5000 
     84 N          -2.8532  -23.4845  -49.1664 N.am      15 UNK        -0.5000 
     85 CA         -2.8747  -22.1241  -49.7142 C.3       15 UNK         0.1400 
     86 CB         -4.3023  -21.7276  -50.1360 C.3       15 UNK        -0.1800 
     87 C          -1.8382  -21.9435  -50.8418 C.2       15 UNK         0.5000 
     88 O          -2.1683  -21.4607  -51.9288 O.2       15 UNK        -0.5000 
     89 N          -0.6021  -22.3705  -50.5434 N.am      16 UNK        -0.5000 
     90 CA          0.5641  -22.4002  -51.4295 C.3       16 UNK         0.1400 
     91 CB          1.0513  -20.9634  -51.7138 C.3       16 UNK        -0.1800 
     92 C           0.2985  -23.2175  -52.7121 C.2       16 UNK         0.5000 
     93 O           0.4677  -22.7048  -53.8179 O.2       16 UNK        -0.5000 
     94 N          -0.1579  -24.4663  -52.5344 N.am      17 UNK        -0.5000 
     95 CA         -0.5793  -25.4133  -53.5738 C.3       17 UNK         0.1400 
     96 CB          0.6304  -25.8809  -54.4096 C.3       17 UNK        -0.1800 
     97 C          -1.7424  -24.8729  -54.4337 C.2       17 UNK         0.5000 
     98 O          -1.7442  -25.0367  -55.6552 O.2       17 UNK        -0.5000 
     99 N          -2.7000  -24.2170  -53.7632 N.am      18 UNK        -0.5000 
    100 CA        -3.8851  -23.5440  -54.2994 C.3       18 UNK         0.1400 
    101 CB        -4.8745  -24.5742  -54.8817 C.3       18 UNK        -0.1800 
    102 C         -3.5744  -22.3904  -55.2786 C.2       18 UNK         0.5000 
    103 O         -4.4263  -22.0461  -56.1001 O.2       18 UNK        -0.5000 
    104 N         -2.3724  -21.8034  -55.1825 N.am      19 UNK        -0.5000 
    105 CA        -1.9632  -20.6481  -55.9819 C.3       19 UNK         0.1400 
    106 CB        -0.4317  -20.5410  -55.9914 C.3       19 UNK        -0.1800 
    107 C         -2.5869  -19.3387  -55.4696 C.2       19 UNK         0.5000 
    108 O         -2.8363  -18.4348  -56.2691 O.2       19 UNK        -0.5000 
    109 N         -2.8221  -19.2567  -54.1539 N.am      20 UNK        -0.5000 
    110 CA        -3.4724  -18.1232  -53.5040 C.3       20 UNK         0.1400 
    111 CB        -2.9582  -18.0332  -52.0636 C.3       20 UNK        -0.1800 
    112 C         -5.0059  -18.2618  -53.5348 C.2       20 UNK         0.5000 
    113 O         -5.5318  -19.3369  -53.8345 O.2       20 UNK        -0.5000 
    114 N         -5.6978  -17.1672  -53.1883 N.am      21 UNK        -0.5000 
    115 CA        -7.1590  -17.0192  -53.2268 C.3       21 UNK         0.1400 
    116 CB        -7.5210  -15.5866  -52.8050 C.3       21 UNK        -0.1800 
    117 C         -7.9516  -18.0389  -52.3825 C.2       21 UNK         0.5000 
    118 O         -9.1044  -18.3236  -52.7105 O.2       21 UNK        -0.5000 
    119 N         -7.3230  -18.5778  -51.3309 N.am      22 UNK        -0.5000 
    120 CA        -7.8601  -19.6764  -50.5120 C.3       22 UNK         0.1400 
    121 C         -7.7656  -21.0804  -51.1845 C.2       22 UNK         0.5000 
    122 N         -7.1029  -21.2478  -52.3236 N.am      22 UNK        -0.7600 
    123 O         -8.3234  -22.0430  -50.6651 O.2       22 UNK        -0.5000 
    124 C124       -7.2325  -19.6934  -49.0952 C.3       23 UNK        -0.0398 
    125 S125       -7.6951  -18.2415  -48.0906 S.3       23 UNK        -0.2404 
    126 C126       -6.1983  -17.2029  -48.1709 C.3       23 UNK        -0.0205 
    127 H127        4.9713  -17.5976  -47.5103 H         1 UNK         0.0600 
    128 H128        5.1625  -16.4395  -48.8317 H         1 UNK         0.0600 
    129 H129        3.9894  -17.7533  -48.9694 H         1 UNK         0.0600 
    130 H130        1.9017  -17.0345  -48.6879 H         1 UNK         0.3000 
    131 H131        1.1132  -15.4141  -46.4288 H         1 UNK         0.0600 
    132 H132       -1.2153  -15.8701  -47.2830 H         1 UNK         0.0800 
    133 H133       -0.2699  -17.2660  -46.8659 H         1 UNK         0.0800 
    134 H134       -0.6856  -19.4025  -48.3342 H         1 UNK         0.0800 
    135 H135       -1.7030  -19.2657  -49.7375 H         1 UNK         0.0800 
    136 H136       -3.8332  -17.6458  -49.4355 H         1 UNK         0.1150 
    137 H137       -5.7949  -18.2632  -45.6838 H         1 UNK         0.1150 
    138 H138       -1.7375  -19.5535  -46.2462 H         1 UNK         0.1150 
    139 H139       -4.2133  -18.6939  -43.7196 H         1 UNK         0.0800 
    140 H140       -4.5199  -20.3135  -44.2831 H         1 UNK         0.0800 
    141 H141       -3.2227  -22.1680  -43.7018 H         1 UNK         0.0800 
    142 H142       -1.6308  -22.2045  -43.0104 H         1 UNK         0.0800 
    143 H143       -2.3136  -22.0002  -45.9819 H         1 UNK         0.0600 
    144 H144        0.1552  -21.2282  -44.7995 H         1 UNK         0.3000 
    145 H145        2.3014  -22.0934  -47.5215 H         1 UNK         0.0600 
    146 H146        1.2408  -19.3702  -46.6152 H         1 UNK         0.0600 
    147 H147        2.8942  -19.6443  -47.1598 H         1 UNK         0.0600 
    148 H148        1.5571  -19.9166  -48.2591 H         1 UNK         0.0600 
    149 H149        2.4514  -20.8525  -44.8680 H         1 UNK         0.3000 
    150 H150        3.5125  -23.8226  -43.2332 H         1 UNK         0.0600 
    151 H151        5.6191  -23.1163  -44.3762 H         1 UNK         0.0600 
    152 H152        5.5577  -22.5163  -42.7267 H         1 UNK         0.0600 
    153 H153        5.2311  -21.4265  -44.0752 H         1 UNK         0.0600 
    154 H154        3.4340  -21.0846  -42.4050 H         1 UNK         0.3000 
    155 H155        0.0061  -20.9919  -41.4602 H         1 UNK         0.0600 
    156 H156        1.1500  -22.1957  -39.5835 H         1 UNK         0.0600 
    157 H157        0.9528  -20.4851  -39.2411 H         1 UNK         0.0600 
    158 H158        2.5287  -21.1115  -39.7270 H         1 UNK         0.0600 
    159 H159        1.7719  -18.9829  -40.9820 H         1 UNK         0.3000 
    160 H160        2.0695  -17.1611  -42.1752 H         1 UNK         0.0600 
    161 H161        2.2183  -17.5977  -45.2112 H         1 UNK         0.0600 
    162 H162        2.8415  -16.2062  -44.3318 H         1 UNK         0.0600 
    163 H163        3.5614  -17.7878  -44.0936 H         1 UNK         0.0600 
    164 H164        0.0367  -16.9476  -44.3341 H         1 UNK         0.3000 
    165 H165       -2.4131  -16.8952  -43.1820 H         1 UNK         0.0600 
    166 H166       -3.6639  -14.9184  -42.3107 H         1 UNK         0.0600 
    167 H167       -2.9252  -15.8878  -41.0506 H         1 UNK         0.0600 
    168 H168       -2.2134  -14.3531  -41.4930 H         1 UNK         0.0600 
    169 H169       -2.3591  -15.6896  -44.9500 H         1 UNK         0.3000 
    170 H170       -0.5446  -13.5424  -42.5594 H         1 UNK         0.0600 
    171 H171        1.4349  -13.5540  -44.8871 H         1 UNK         0.0600 
    172 H172        1.7924  -12.8000  -43.3390 H         1 UNK         0.0600 
    173 H173        1.4836  -14.5138  -43.4175 H         1 UNK         0.0600 
    174 H174        0.0698  -11.3900  -44.4165 H         1 UNK         0.3000 
    175 H175       -2.8213   -9.5458  -43.9773 H         1 UNK         0.0600 
    176 H176       -0.4471   -8.9817  -42.1217 H         1 UNK         0.0600 
    177 H177       -1.6370   -7.7982  -42.6663 H         1 UNK         0.0600 
    178 H178       -2.1281   -9.1211  -41.6217 H         1 UNK         0.0600 
    179 H179       -0.0691   -8.8033  -44.5295 H         1 UNK         0.3000 
    180 H180       -0.6953   -8.3760  -47.8225 H         1 UNK         0.0600 
    181 H181        1.5722   -8.5102  -45.7566 H         1 UNK         0.0600 
    182 H182        0.4496   -7.1658  -45.9675 H         1 UNK         0.0600 
    183 H183        1.5703   -7.5811  -47.2483 H         1 UNK         0.0600 
    184 H184        0.4485   -9.9578  -48.8559 H         1 UNK         0.3000 
    185 H185        1.4151  -11.8772  -49.3344 H         1 UNK         0.0600 
    186 H186        3.8813  -12.2068  -49.2984 H         1 UNK         0.0600 
    187 H187        3.4786  -10.5435  -48.8990 H         1 UNK         0.0600 
    188 H188        3.9525  -11.6598  -47.6237 H         1 UNK         0.0600 
    189 H189        2.6391  -13.7001  -47.3702 H         1 UNK         0.3000 
    190 H190        0.0113  -23.8510  -43.9562 H         1 UNK         0.3000 
    191 H191       -1.2783  -26.3570  -44.0572 H         1 UNK         0.0600 
    192 H192        1.6794  -25.6559  -43.6611 H         1 UNK         0.0600 
    193 H193        0.4588  -25.7658  -42.3933 H         1 UNK         0.0600 
    194 H194        0.9443  -27.2071  -43.2718 H         1 UNK         0.0600 
    195 H195        0.7688  -24.7900  -46.4327 H         1 UNK         0.3000 
    196 H196        1.1685  -27.1570  -48.0961 H         1 UNK         0.0600 
    197 H197        2.8600  -25.3244  -47.9948 H         1 UNK         0.0600 
    198 H198        1.6849  -24.1927  -48.6616 H         1 UNK         0.0600 
    199 H199        2.2575  -25.5464  -49.6257 H         1 UNK         0.0600 
    200 H200       -1.6416  -25.9395  -47.3727 H         1 UNK         0.3000 
    201 H201       -3.6736  -25.8679  -48.2198 H         1 UNK         0.0600 
    202 H202       -4.2494  -27.1786  -50.2303 H         1 UNK         0.0600 
    203 H203       -3.1230  -28.0854  -49.2329 H         1 UNK         0.0600 
    204 H204       -2.5611  -27.2884  -50.7015 H         1 UNK         0.0600 
    205 H205       -2.5585  -23.5649  -48.2019 H         1 UNK         0.3000 
    206 H206       -2.5742  -21.4642  -48.9001 H         1 UNK         0.0600 
    207 H207       -5.0074  -21.8790  -49.3193 H         1 UNK         0.0600 
    208 H208       -4.6523  -22.3077  -50.9899 H         1 UNK         0.0600 
    209 H209       -4.3467  -20.6770  -50.4196 H         1 UNK         0.0600 
    210 H210       -0.4476  -22.7120  -49.5991 H         1 UNK         0.3000 
    211 H211        1.3563  -22.9190  -50.8882 H         1 UNK         0.0600 
    212 H212        1.2577  -20.4271  -50.7877 H         1 UNK         0.0600 
    213 H213        1.9724  -20.9723  -52.2973 H         1 UNK         0.0600 
    214 H214        0.3146  -20.3875  -52.2752 H         1 UNK         0.0600 
    215 H215       -0.2577  -24.8218  -51.5853 H         1 UNK         0.3000 
    216 H216       -0.9719  -26.2843  -53.0471 H         1 UNK         0.0600 
    217 H217        0.3455  -26.6790  -55.0959 H         1 UNK         0.0600 
    218 H218        1.0490  -25.0703  -55.0068 H         1 UNK         0.0600 
    219 H219        1.4224  -26.2710  -53.7704 H         1 UNK         0.0600 
    220 H220       -2.6332  -24.1906  -52.7490 H         1 UNK         0.3000 
    221 H221       -4.3680  -23.0759  -53.4405 H         1 UNK         0.0600 
    222 H222       -4.4833  -25.0451  -55.7839 H         1 UNK         0.0600 
    223 H223       -5.0931  -25.3606  -54.1591 H         1 UNK         0.0600 
    224 H224       -5.8233  -24.1042  -55.1426 H         1 UNK         0.0600 
    225 H225       -1.7155  -22.1387  -54.4881 H         1 UNK         0.3000 
    226 H226       -2.2956  -20.7995  -57.0111 H         1 UNK         0.0600 
    227 H227        0.0269  -21.4600  -56.3571 H         1 UNK         0.0600 
    228 H228       -0.1019  -19.7303  -56.6421 H         1 UNK         0.0600 
    229 H229       -0.0369  -20.3412  -54.9945 H         1 UNK         0.0600 
    230 H230       -2.6299  -20.0631  -53.5701 H         1 UNK         0.3000 
    231 H231       -3.1986  -17.2026  -54.0237 H         1 UNK         0.0600 
    232 H232       -3.3015  -17.1171  -51.5831 H         1 UNK         0.0600 
    233 H233       -1.8684  -18.0214  -52.0340 H         1 UNK         0.0600 
    234 H234       -3.2995  -18.8777  -51.4666 H         1 UNK         0.0600 
    235 H235       -5.1829  -16.3348  -52.9402 H         1 UNK         0.3000 
    236 H236       -7.4687  -17.1570  -54.2647 H         1 UNK         0.0600 
    237 H237       -7.0575  -14.8509  -53.4626 H         1 UNK         0.0600 
    238 H238       -8.5990  -15.4252  -52.8502 H         1 UNK         0.0600 
    239 H239       -7.2006  -15.3760  -51.7838 H         1 UNK         0.0600 
    240 H240       -6.3741  -18.2958  -51.1440 H         1 UNK         0.3000 
    241 H241       -8.9296  -19.4977  -50.3840 H         1 UNK         0.0600 
    242 H242       -7.0796  -22.1638  -52.7391 H         1 UNK         0.3800 
    243 H243       -6.6304  -20.4776  -52.7894 H         1 UNK         0.3800 
    244 H244       -7.5629  -20.5718  -48.5381 H         1 UNK         0.0800 
    245 H245       -6.1490  -19.7723  -49.1584 H         1 UNK         0.0800 
    246 H246       -6.3750  -16.2925  -47.5968 H         1 UNK         0.0800 
    247 H247       -6.0461  -16.8854  -49.2033 H         1 UNK         0.0800 
@<TRIPOS>BOND
     1    1    2 1    
     2    1  127 1    
     3    1  128 1    
     4    1  129 1    
     5    2    3 2    
     6    2    4 am   BACKBONE|DICT|INTERRES
     7    4    5 1    
     8    4  130 1    
     9    5    6 1    
    10    5   65 1    
    11    5  131 1    
    12    6    7 1    
    13    6  132 1    
    14    6  133 1    
    15    7    8 1    
    16    8    9 1    
    17    8  134 1    
    18    8  135 1    
    19    9   10 ar   
    20    9   14 ar   
    21   10   11 ar   
    22   10  136 1    
    23   11   12 ar   
    24   11  126 1    
    25   12   13 ar   
    26   12  137 1    
    27   13   14 ar   
    28   13   15 1    
    29   14  138 1    
    30   15   16 1    
    31   15  139 1    
    32   15  140 1    
    33   16   17 1    
    34   17   18 1    
    35   17  141 1    
    36   17  142 1    
    37   18   19 1    
    38   18   67 1    
    39   18  143 1    
    40   19   20 am   BACKBONE|DICT|INTERRES
    41   19  144 1    
    42   20   21 2    
    43   20   22 1    
    44   22   23 1    
    45   22   24 1    
    46   22  145 1    
    47   23  146 1    
    48   23  147 1    
    49   23  148 1    
    50   24   25 am   BACKBONE|DICT|INTERRES
    51   24  149 1    
    52   25   26 2    
    53   25   27 1    
    54   27   28 1    
    55   27   29 1    
    56   27  150 1    
    57   28  151 1    
    58   28  152 1    
    59   28  153 1    
    60   29   30 am   BACKBONE|DICT|INTERRES
    61   29  154 1    
    62   30   31 2    
    63   30   32 1    
    64   32   33 1    
    65   32   34 1    
    66   32  155 1    
    67   33  156 1    
    68   33  157 1    
    69   33  158 1    
    70   34   35 am   BACKBONE|DICT|INTERRES
    71   34  159 1    
    72   35   36 2    
    73   35   37 1    
    74   37   38 1    
    75   37   39 1    
    76   37  160 1    
    77   38  161 1    
    78   38  162 1    
    79   38  163 1    
    80   39   40 am   BACKBONE|DICT|INTERRES
    81   39  164 1    
    82   40   41 2    
    83   40   42 1    
    84   42   43 1    
    85   42   44 1    
    86   42  165 1    
    87   43  166 1    
    88   43  167 1    
    89   43  168 1    
    90   44   45 am   BACKBONE|DICT|INTERRES
    91   44  169 1    
    92   45   46 2    
    93   45   47 1    
    94   47   48 1    
    95   47   49 1    
    96   47  170 1    
    97   48  171 1    
    98   48  172 1    
    99   48  173 1    
   100   49   50 am   BACKBONE|DICT|INTERRES
   101   49  174 1    
   102   50   51 2    
   103   50   52 1    
   104   52   53 1    
   105   52   54 1    
   106   52  175 1    
   107   53  176 1    
   108   53  177 1    
   109   53  178 1    
   110   54   55 am   BACKBONE|DICT|INTERRES
   111   54  179 1    
   112   55   56 2    
   113   55   57 1    
   114   57   58 1    
   115   57   59 1    
   116   57  180 1    
   117   58  181 1    
   118   58  182 1    
   119   58  183 1    
   120   59   60 am   BACKBONE|DICT|INTERRES
   121   59  184 1    
   122   60   61 2    
   123   60   62 1    
   124   62   63 1    
   125   62   64 1    
   126   62  185 1    
   127   63  186 1    
   128   63  187 1    
   129   63  188 1    
   130   64   65 am   BACKBONE|DICT|INTERRES
   131   64  189 1    
   132   65   66 2    
   133   67   68 2    
   134   67   69 am   BACKBONE|DICT|INTERRES
   135   69   70 1    
   136   69  190 1    
   137   70   71 1    
   138   70   72 1    
   139   70  191 1    
   140   71  192 1    
   141   71  193 1    
   142   71  194 1    
   143   72   73 2    
   144   72   74 am   BACKBONE|DICT|INTERRES
   145   74   75 1    
   146   74  195 1    
   147   75   76 1    
   148   75   77 1    
   149   75  196 1    
   150   76  197 1    
   151   76  198 1    
   152   76  199 1    
   153   77   78 2    
   154   77   79 am   BACKBONE|DICT|INTERRES
   155   79   80 1    
   156   79  200 1    
   157   80   81 1    
   158   80   82 1    
   159   80  201 1    
   160   81  202 1    
   161   81  203 1    
   162   81  204 1    
   163   82   83 2    
   164   82   84 am   BACKBONE|DICT|INTERRES
   165   84   85 1    
   166   84  205 1    
   167   85   86 1    
   168   85   87 1    
   169   85  206 1    
   170   86  207 1    
   171   86  208 1    
   172   86  209 1    
   173   87   88 2    
   174   87   89 am   BACKBONE|DICT|INTERRES
   175   89   90 1    
   176   89  210 1    
   177   90   91 1    
   178   90   92 1    
   179   90  211 1    
   180   91  212 1    
   181   91  213 1    
   182   91  214 1    
   183   92   93 2    
   184   92   94 am   BACKBONE|DICT|INTERRES
   185   94   95 1    
   186   94  215 1    
   187   95   96 1    
   188   95   97 1    
   189   95  216 1    
   190   96  217 1    
   191   96  218 1    
   192   96  219 1    
   193   97   98 2    
   194   97   99 am   BACKBONE|DICT|INTERRES
   195   99  100 1    
   196   99  220 1    
   197  100  101 1    
   198  100  102 1    
   199  100  221 1    
   200  101  222 1    
   201  101  223 1    
   202  101  224 1    
   203  102  103 2    
   204  102  104 am   BACKBONE|DICT|INTERRES
   205  104  105 1    
   206  104  225 1    
   207  105  106 1    
   208  105  107 1    
   209  105  226 1    
   210  106  227 1    
   211  106  228 1    
   212  106  229 1    
   213  107  108 2    
   214  107  109 am   BACKBONE|DICT|INTERRES
   215  109  110 1    
   216  109  230 1    
   217  110  111 1    
   218  110  112 1    
   219  110  231 1    
   220  111  232 1    
   221  111  233 1    
   222  111  234 1    
   223  112  113 2    
   224  112  114 am   BACKBONE|DICT|INTERRES
   225  114  115 1    
   226  114  235 1    
   227  115  116 1    
   228  115  117 1    
   229  115  236 1    
   230  116  237 1    
   231  116  238 1    
   232  116  239 1    
   233  117  118 2    
   234  117  119 am   BACKBONE|DICT|INTERRES
   235  119  120 1    
   236  119  240 1    
   237  120  121 1    
   238  120  124 1    
   239  120  241 1    
   240  121  122 am   BACKBONE|DICT|INTERRES
   241  121  123 2    
   242  122  242 1    
   243  122  243 1    
   244  124  125 1    
   245  124  244 1    
   246  124  245 1    
   247  125  126 1    
   248  126  246 1    
   249  126  247 1    
@<TRIPOS>SUBSTRUCTURE
     1 UNK         1 GROUP             0       ****    0 ROOT    
