@<TRIPOS>MOLECULE
3R540
247   249    1
SMALL
USER_CHARGES


@<TRIPOS>ATOM
      1 CA          0.1670  -17.2269  -48.7096 C.3       0 UNK        -0.1800 
      2 C           0.7043  -15.8033  -48.7228 C.2       0 UNK         0.5000 
      3 O           0.0432  -14.8931  -48.2238 O.2       0 UNK        -0.5000 
      4 N           1.9117  -15.6068  -49.2703 N.am      1 UNK        -0.5000 
      5 CA          2.5647  -14.3002  -49.4591 C.3       1 UNK         0.1400 
      6 C6          3.8113  -14.4050  -50.3699 C.3       23 UNK        -0.0398 
      7 S7          3.3549  -14.7796  -52.0952 S.3       23 UNK        -0.2404 
      8 C8          4.2534  -16.3315  -52.4068 C.3       23 UNK        -0.0205 
      9 C9          3.6093  -17.5392  -51.7399 C.ar      23 UNK        -0.0193 
     10 C10         2.2900  -17.8910  -52.0420 C.ar      23 UNK        -0.1150 
     11 C11         1.7169  -19.0449  -51.4993 C.ar      23 UNK        -0.0193 
     12 C12         2.4760  -19.8460  -50.6419 C.ar      23 UNK        -0.1150 
     13 C13         3.7908  -19.4995  -50.3194 C.ar      23 UNK        -0.0193 
     14 C14         4.3507  -18.3422  -50.8682 C.ar      23 UNK        -0.1150 
     15 C15         4.6239  -20.4020  -49.4209 C.3       23 UNK        -0.0205 
     16 S16         4.7615  -19.7744  -47.7167 S.3       23 UNK        -0.2404 
     17 C17         3.0725  -20.0023  -47.0701 C.3       23 UNK        -0.0398 
     18 CA          2.7624  -21.4746  -46.6635 C.3       11 UNK         0.1400 
     19 N           2.3202  -21.5924  -45.2722 N.am      11 UNK        -0.5000 
     20 C           2.1992  -22.7428  -44.5938 C.2       10 UNK         0.5000 
     21 O           2.5004  -23.8454  -45.0509 O.2       10 UNK        -0.5000 
     22 CA          1.6156  -22.6487  -43.1709 C.3       10 UNK         0.1400 
     23 CB          2.7104  -22.3261  -42.1422 C.3       10 UNK        -0.1800 
     24 N           0.5417  -21.6583  -43.0781 N.am      10 UNK        -0.5000 
     25 C          -0.6585  -21.7995  -43.6585 C.2       9 UNK         0.5000 
     26 O          -1.0017  -22.8055  -44.2762 O.2       9 UNK        -0.5000 
     27 CA         -1.6191  -20.6014  -43.5768 C.3       9 UNK         0.1400 
     28 CB         -2.4393  -20.6461  -42.2794 C.3       9 UNK        -0.1800 
     29 N          -0.9169  -19.3225  -43.6685 N.am      9 UNK        -0.5000 
     30 C          -0.3017  -18.8763  -44.7729 C.2       8 UNK         0.5000 
     31 O          -0.2730  -19.4889  -45.8403 O.2       8 UNK        -0.5000 
     32 CA          0.4658  -17.5510  -44.6398 C.3       8 UNK         0.1400 
     33 CB         -0.4921  -16.3614  -44.7866 C.3       8 UNK        -0.1800 
     34 N           1.1887  -17.4452  -43.3700 N.am      8 UNK        -0.5000 
     35 C           2.1773  -18.2712  -42.9905 C.2       7 UNK         0.5000 
     36 O           2.5942  -19.1876  -43.6959 O.2       7 UNK        -0.5000 
     37 CA          2.7863  -18.0829  -41.5867 C.3       7 UNK         0.1400 
     38 CB          4.1101  -17.3101  -41.6810 C.3       7 UNK        -0.1800 
     39 N           1.9052  -17.3978  -40.6428 N.am      7 UNK        -0.5000 
     40 C           0.6895  -17.8126  -40.2601 C.2       6 UNK         0.5000 
     41 O           0.1975  -18.8896  -40.5993 O.2       6 UNK        -0.5000 
     42 CA         -0.1361  -16.8303  -39.4038 C.3       6 UNK         0.1400 
     43 CB         -0.0789  -17.2330  -37.9227 C.3       6 UNK        -0.1800 
     44 N           0.2698  -15.4231  -39.5345 N.am      6 UNK        -0.5000 
     45 C           0.2584  -14.7141  -40.6726 C.2       5 UNK         0.5000 
     46 O          -0.0444  -15.1885  -41.7694 O.2       5 UNK        -0.5000 
     47 CA          0.7343  -13.2543  -40.5742 C.3       5 UNK         0.1400 
     48 CB          2.2397  -13.1606  -40.8588 C.3       5 UNK        -0.1800 
     49 N           0.0163  -12.3953  -41.5138 N.am      5 UNK        -0.5000 
     50 C          -1.2523  -11.9990  -41.3426 C.2       4 UNK         0.5000 
     51 O          -1.9195  -12.2714  -40.3430 O.2       4 UNK        -0.5000 
     52 CA         -1.8876  -11.1383  -42.4512 C.3       4 UNK         0.1400 
     53 CB         -1.8825   -9.6554  -42.0481 C.3       4 UNK        -0.1800 
     54 N          -1.2363  -11.2721  -43.7541 N.am      4 UNK        -0.5000 
     55 C          -1.3336  -12.3399  -44.5565 C.2       3 UNK         0.5000 
     56 O          -1.9718  -13.3527  -44.2704 O.2       3 UNK        -0.5000 
     57 CA         -0.6367  -12.2495  -45.9286 C.3       3 UNK         0.1400 
     58 CB         -0.4017  -10.8016  -46.4146 C.3       3 UNK        -0.1800 
     59 N           0.6117  -13.0095  -45.9964 N.am      3 UNK        -0.5000 
     60 C           1.7107  -12.8680  -45.2368 C.2       2 UNK         0.5000 
     61 O           1.7696  -12.1327  -44.2499 O.2       2 UNK        -0.5000 
     62 CA          2.9739  -13.6545  -45.6655 C.3       2 UNK         0.1400 
     63 CB          3.3175  -14.7611  -44.6603 C.3       2 UNK        -0.1800 
     64 N           2.8658  -14.2483  -47.0018 N.am      2 UNK        -0.5000 
     65 C           2.9051  -13.5537  -48.1479 C.2       1 UNK         0.5000 
     66 O           3.1652  -12.3507  -48.1960 O.2       1 UNK        -0.5000 
     67 C           1.7448  -22.1118  -47.6316 C.2       11 UNK         0.5000 
     68 O           2.1234  -22.9415  -48.4590 O.2       11 UNK        -0.5000 
     69 N           0.4773  -21.6896  -47.5252 N.am      12 UNK        -0.5000 
     70 CA         -0.5936  -22.0833  -48.4385 C.3       12 UNK         0.1400 
     71 CB         -1.7174  -21.0400  -48.3713 C.3       12 UNK        -0.1800 
     72 C          -1.1522  -23.4927  -48.1801 C.2       12 UNK         0.5000 
     73 O          -1.6656  -24.1022  -49.1181 O.2       12 UNK        -0.5000 
     74 N          -1.0782  -23.9793  -46.9327 N.am      13 UNK        -0.5000 
     75 CA         -1.6449  -25.2454  -46.4568 C.3       13 UNK         0.1400 
     76 CB         -0.8777  -26.4467  -47.0541 C.3       13 UNK        -0.1800 
     77 C          -3.1711  -25.2820  -46.6876 C.2       13 UNK         0.5000 
     78 O          -3.8853  -24.4604  -46.1096 O.2       13 UNK        -0.5000 
     79 N          -3.6487  -26.1787  -47.5608 N.am      14 UNK        -0.5000 
     80 CA         -5.0442  -26.3000  -47.9941 C.3       14 UNK         0.1400 
     81 CB         -5.2652  -27.7223  -48.5403 C.3       14 UNK        -0.1800 
     82 C          -5.4410  -25.2081  -49.0150 C.2       14 UNK         0.5000 
     83 O          -5.9385  -25.5230  -50.0984 O.2       14 UNK        -0.5000 
     84 N          -5.1793  -23.9406  -48.6654 N.am      15 UNK        -0.5000 
     85 CA         -5.4484  -22.7225  -49.4385 C.3       15 UNK         0.1400 
     86 CB         -6.9621  -22.4280  -49.4600 C.3       15 UNK        -0.1800 
     87 C          -4.8298  -22.7410  -50.8526 C.2       15 UNK         0.5000 
     88 O          -5.4611  -22.2748  -51.8032 O.2       15 UNK        -0.5000 
     89 N          -3.6077  -23.2807  -50.9645 N.am      16 UNK        -0.5000 
     90 CA         -2.8433  -23.5020  -52.1963 C.3       16 UNK         0.1400 
     91 CB         -2.4832  -22.1636  -52.8671 C.3       16 UNK        -0.1800 
     92 C          -3.5336  -24.5031  -53.1450 C.2       16 UNK         0.5000 
     93 O          -3.5433  -24.3014  -54.3592 O.2       16 UNK        -0.5000 
     94 N          -4.1066  -25.5608  -52.5506 N.am      17 UNK        -0.5000 
     95 CA         -4.9453  -26.5897  -53.1729 C.3       17 UNK         0.1400 
     96 CB         -4.1592  -27.4064  -54.2207 C.3       17 UNK        -0.1800 
     97 C          -6.2586  -25.9883  -53.7110 C.2       17 UNK         0.5000 
     98 O          -6.6144  -26.2003  -54.8719 O.2       17 UNK        -0.5000 
     99 N          -6.9411  -25.2368  -52.8336 N.am      18 UNK        -0.5000 
    100 CA        -8.1953  -24.5138  -53.0656 C.3       18 UNK         0.1400 
    101 CB        -9.3636  -25.5028  -53.2592 C.3       18 UNK        -0.1800 
    102 C         -8.0886  -23.4669  -54.1962 C.2       18 UNK         0.5000 
    103 O         -8.9582  -23.4002  -55.0673 O.2       18 UNK        -0.5000 
    104 N         -7.0234  -22.6584  -54.1478 N.am      19 UNK        -0.5000 
    105 CA        -6.7357  -21.5661  -55.0799 C.3       19 UNK         0.1400 
    106 CB        -5.4373  -21.8764  -55.8437 C.3       19 UNK        -0.1800 
    107 C         -6.6730  -20.2192  -54.3338 C.2       19 UNK         0.5000 
    108 O         -5.9246  -19.3244  -54.7333 O.2       19 UNK        -0.5000 
    109 N         -7.4544  -20.1067  -53.2481 N.am      20 UNK        -0.5000 
    110 CA        -7.6414  -18.9242  -52.3983 C.3       20 UNK         0.1400 
    111 CB        -8.4093  -17.8316  -53.1715 C.3       20 UNK        -0.1800 
    112 C         -6.3365  -18.3979  -51.7621 C.2       20 UNK         0.5000 
    113 O         -6.1976  -17.1899  -51.5650 O.2       20 UNK        -0.5000 
    114 N         -5.4091  -19.3198  -51.4582 N.am      21 UNK        -0.5000 
    115 CA        -4.0587  -19.0704  -50.9447 C.3       21 UNK         0.1400 
    116 CB        -4.0981  -18.4687  -49.5238 C.3       21 UNK        -0.1800 
    117 C         -3.2081  -18.2574  -51.9404 C.2       21 UNK         0.5000 
    118 O         -2.6690  -17.2066  -51.5905 O.2       21 UNK        -0.5000 
    119 N         -3.1066  -18.7875  -53.1664 N.am      22 UNK        -0.5000 
    120 CA        -2.3639  -18.2197  -54.3047 C.3       22 UNK         0.1400 
    121 C         -3.0359  -16.9383  -54.8802 C.2       22 UNK         0.5000 
    122 N         -4.3569  -16.9177  -55.0105 N.am      22 UNK        -0.7600 
    123 O         -2.3715  -15.9642  -55.2252 O.2       22 UNK        -0.5000 
    124 C124       -0.8353  -18.0603  -54.0441 C.3       23 UNK        -0.0398 
    125 S125       -0.0231  -19.6379  -53.6019 S.3       23 UNK        -0.2404 
    126 C126        0.2772  -19.4254  -51.8161 C.3       23 UNK        -0.0205 
    127 H127        0.9342  -17.9512  -48.9784 H         1 UNK         0.0600 
    128 H128       -0.6588  -17.3184  -49.4144 H         1 UNK         0.0600 
    129 H129       -0.2049  -17.4853  -47.7199 H         1 UNK         0.0600 
    130 H130        2.3997  -16.3926  -49.6774 H         1 UNK         0.3000 
    131 H131        1.8384  -13.6616  -49.9670 H         1 UNK         0.0600 
    132 H132        4.3613  -13.4621  -50.3926 H         1 UNK         0.0800 
    133 H133        4.5078  -15.1521  -49.9858 H         1 UNK         0.0800 
    134 H134        4.2760  -16.5068  -53.4831 H         1 UNK         0.0800 
    135 H135        5.2933  -16.2157  -52.0972 H         1 UNK         0.0800 
    136 H136        1.7156  -17.2722  -52.7163 H         1 UNK         0.1150 
    137 H137        2.0447  -20.7465  -50.2293 H         1 UNK         0.1150 
    138 H138        5.3747  -18.0848  -50.6356 H         1 UNK         0.1150 
    139 H139        4.2201  -21.4149  -49.4085 H         1 UNK         0.0800 
    140 H140        5.6280  -20.4891  -49.8385 H         1 UNK         0.0800 
    141 H141        2.3572  -19.5951  -47.7862 H         1 UNK         0.0800 
    142 H142        2.9921  -19.3410  -46.2087 H         1 UNK         0.0800 
    143 H143        3.6796  -22.0628  -46.7397 H         1 UNK         0.0600 
    144 H144        2.1271  -20.7244  -44.7820 H         1 UNK         0.3000 
    145 H145        1.1960  -23.6250  -42.9187 H         1 UNK         0.0600 
    146 H146        3.4821  -23.0969  -42.1446 H         1 UNK         0.0600 
    147 H147        3.2007  -21.3760  -42.3520 H         1 UNK         0.0600 
    148 H148        2.3024  -22.2781  -41.1324 H         1 UNK         0.0600 
    149 H149        0.7501  -20.7941  -42.5993 H         1 UNK         0.3000 
    150 H150       -2.3098  -20.6707  -44.4201 H         1 UNK         0.0600 
    151 H151       -3.1557  -19.8256  -42.2368 H         1 UNK         0.0600 
    152 H152       -1.8030  -20.5826  -41.3961 H         1 UNK         0.0600 
    153 H153       -3.0054  -21.5758  -42.2093 H         1 UNK         0.0600 
    154 H154       -0.8403  -18.7832  -42.8169 H         1 UNK         0.3000 
    155 H155        1.1977  -17.5049  -45.4486 H         1 UNK         0.0600 
    156 H156       -1.0002  -16.3745  -45.7510 H         1 UNK         0.0600 
    157 H157        0.0403  -15.4150  -44.7129 H         1 UNK         0.0600 
    158 H158       -1.2606  -16.3637  -44.0126 H         1 UNK         0.0600 
    159 H159        0.8781  -16.7160  -42.7350 H         1 UNK         0.3000 
    160 H160        2.9938  -19.0768  -41.1857 H         1 UNK         0.0600 
    161 H161        4.8006  -17.7982  -42.3703 H         1 UNK         0.0600 
    162 H162        4.6056  -17.2561  -40.7115 H         1 UNK         0.0600 
    163 H163        3.9562  -16.2909  -42.0371 H         1 UNK         0.0600 
    164 H164        2.2177  -16.4984  -40.3098 H         1 UNK         0.3000 
    165 H165       -1.1723  -16.9059  -39.7397 H         1 UNK         0.0600 
    166 H166       -0.7353  -16.6076  -37.3174 H         1 UNK         0.0600 
    167 H167       -0.4010  -18.2663  -37.7855 H         1 UNK         0.0600 
    168 H168        0.9318  -17.1483  -37.5217 H         1 UNK         0.0600 
    169 H169        0.5514  -14.9637  -38.6802 H         1 UNK         0.3000 
    170 H170        0.5527  -12.8905  -39.5605 H         1 UNK         0.0600 
    171 H171        2.5960  -12.1346  -40.7660 H         1 UNK         0.0600 
    172 H172        2.8130  -13.7693  -40.1586 H         1 UNK         0.0600 
    173 H173        2.4749  -13.5053  -41.8644 H         1 UNK         0.0600 
    174 H174        0.4828  -12.1808  -42.3870 H         1 UNK         0.3000 
    175 H175       -2.9267  -11.4581  -42.5553 H         1 UNK         0.0600 
    176 H176       -0.8671   -9.2709  -41.9430 H         1 UNK         0.0600 
    177 H177       -2.3996   -9.0432  -42.7872 H         1 UNK         0.0600 
    178 H178       -2.3899   -9.5072  -41.0938 H         1 UNK         0.0600 
    179 H179       -0.6690  -10.4947  -44.0592 H         1 UNK         0.3000 
    180 H180       -1.3146  -12.7222  -46.6409 H         1 UNK         0.0600 
    181 H181       -0.0386  -10.7943  -47.4426 H         1 UNK         0.0600 
    182 H182        0.3323  -10.2723  -45.8063 H         1 UNK         0.0600 
    183 H183       -1.3277  -10.2252  -46.3983 H         1 UNK         0.0600 
    184 H184        0.6419  -13.6844  -46.7544 H         1 UNK         0.3000 
    185 H185        3.8042  -12.9452  -45.6754 H         1 UNK         0.0600 
    186 H186        2.4937  -15.4603  -44.5453 H         1 UNK         0.0600 
    187 H187        4.1967  -15.3249  -44.9727 H         1 UNK         0.0600 
    188 H188        3.5387  -14.3424  -43.6798 H         1 UNK         0.0600 
    189 H189        2.6476  -15.2322  -47.0493 H         1 UNK         0.3000 
    190 H190        0.2419  -20.9849  -46.8289 H         1 UNK         0.3000 
    191 H191       -0.1966  -22.0772  -49.4559 H         1 UNK         0.0600 
    192 H192       -2.1601  -20.9888  -47.3756 H         1 UNK         0.0600 
    193 H193       -2.5140  -21.2778  -49.0750 H         1 UNK         0.0600 
    194 H194       -1.3447  -20.0471  -48.6233 H         1 UNK         0.0600 
    195 H195       -0.7196  -23.3780  -46.1987 H         1 UNK         0.3000 
    196 H196       -1.4990  -25.2667  -45.3762 H         1 UNK         0.0600 
    197 H197       -1.2537  -27.3901  -46.6561 H         1 UNK         0.0600 
    198 H198        0.1807  -26.3920  -46.7985 H         1 UNK         0.0600 
    199 H199       -0.9484  -26.4908  -48.1412 H         1 UNK         0.0600 
    200 H200       -2.9847  -26.7774  -48.0299 H         1 UNK         0.3000 
    201 H201       -5.6928  -26.1739  -47.1249 H         1 UNK         0.0600 
    202 H202       -5.0247  -28.4750  -47.7893 H         1 UNK         0.0600 
    203 H203       -4.6498  -27.9166  -49.4197 H         1 UNK         0.0600 
    204 H204       -6.3065  -27.8750  -48.8272 H         1 UNK         0.0600 
    205 H205       -4.7504  -23.8055  -47.7545 H         1 UNK         0.3000 
    206 H206       -4.9615  -21.9046  -48.9061 H         1 UNK         0.0600 
    207 H207       -7.1730  -21.4719  -49.9405 H         1 UNK         0.0600 
    208 H208       -7.5151  -23.1971  -49.9991 H         1 UNK         0.0600 
    209 H209       -7.3655  -22.3750  -48.4489 H         1 UNK         0.0600 
    210 H210       -3.1500  -23.6350  -50.1274 H         1 UNK         0.3000 
    211 H211       -1.9074  -23.9739  -51.8940 H         1 UNK         0.0600 
    212 H212       -3.3644  -21.6451  -53.2394 H         1 UNK         0.0600 
    213 H213       -1.8116  -22.3160  -53.7125 H         1 UNK         0.0600 
    214 H214       -1.9765  -21.5036  -52.1650 H         1 UNK         0.0600 
    215 H215       -4.0837  -25.5890  -51.5406 H         1 UNK         0.3000 
    216 H216       -5.2293  -27.2759  -52.3735 H         1 UNK         0.0600 
    217 H217       -4.7526  -28.2483  -54.5789 H         1 UNK         0.0600 
    218 H218       -3.2419  -27.8133  -53.7956 H         1 UNK         0.0600 
    219 H219       -3.8895  -26.8074  -55.0908 H         1 UNK         0.0600 
    220 H220       -6.5608  -25.1626  -51.8933 H         1 UNK         0.3000 
    221 H221       -8.3941  -23.9514  -52.1528 H         1 UNK         0.0600 
    222 H222       -9.2585  -26.0814  -54.1774 H         1 UNK         0.0600 
    223 H223       -9.4277  -26.2036  -52.4268 H         1 UNK         0.0600 
    224 H224      -10.3170  -24.9758  -53.3122 H         1 UNK         0.0600 
    225 H225       -6.3791  -22.7425  -53.3640 H         1 UNK         0.3000 
    226 H226       -7.5382  -21.4693  -55.8133 H         1 UNK         0.0600 
    227 H227       -5.4953  -22.8450  -56.3406 H         1 UNK         0.0600 
    228 H228       -5.2435  -21.1274  -56.6123 H         1 UNK         0.0600 
    229 H229       -4.5750  -21.8959  -55.1793 H         1 UNK         0.0600 
    230 H230       -7.9982  -20.9176  -52.9910 H         1 UNK         0.3000 
    231 H231       -8.2713  -19.2431  -51.5667 H         1 UNK         0.0600 
    232 H232       -7.8137  -17.4208  -53.9875 H         1 UNK         0.0600 
    233 H233       -9.3335  -18.2240  -53.5956 H         1 UNK         0.0600 
    234 H234       -8.6822  -17.0036  -52.5161 H         1 UNK         0.0600 
    235 H235       -5.6179  -20.2854  -51.6917 H         1 UNK         0.3000 
    236 H236       -3.5741  -20.0430  -50.8661 H         1 UNK         0.0600 
    237 H237       -4.5540  -17.4788  -49.5101 H         1 UNK         0.0600 
    238 H238       -4.6596  -19.1067  -48.8416 H         1 UNK         0.0600 
    239 H239       -3.0921  -18.3640  -49.1168 H         1 UNK         0.0600 
    240 H240       -3.6439  -19.6151  -53.3757 H         1 UNK         0.3000 
    241 H241       -2.4618  -18.9540  -55.1052 H         1 UNK         0.0600 
    242 H242       -4.9148  -17.7401  -54.7912 H         1 UNK         0.3800 
    243 H243       -4.8055  -16.0962  -55.3819 H         1 UNK         0.3800 
    244 H244       -0.3414  -17.6943  -54.9455 H         1 UNK         0.0800 
    245 H245       -0.6466  -17.3058  -53.2800 H         1 UNK         0.0800 
    246 H246        0.0162  -20.3600  -51.3190 H         1 UNK         0.0800 
    247 H247       -0.3873  -18.6702  -51.4007 H         1 UNK         0.0800 
@<TRIPOS>BOND
     1    1    2 1    
     2    1  127 1    
     3    1  128 1    
     4    1  129 1    
     5    2    3 2    
     6    2    4 am   BACKBONE|DICT|INTERRES
     7    4    5 1    
     8    4  130 1    
     9    5    6 1    
    10    5   65 1    
    11    5  131 1    
    12    6    7 1    
    13    6  132 1    
    14    6  133 1    
    15    7    8 1    
    16    8    9 1    
    17    8  134 1    
    18    8  135 1    
    19    9   10 ar   
    20    9   14 ar   
    21   10   11 ar   
    22   10  136 1    
    23   11   12 ar   
    24   11  126 1    
    25   12   13 ar   
    26   12  137 1    
    27   13   14 ar   
    28   13   15 1    
    29   14  138 1    
    30   15   16 1    
    31   15  139 1    
    32   15  140 1    
    33   16   17 1    
    34   17   18 1    
    35   17  141 1    
    36   17  142 1    
    37   18   19 1    
    38   18   67 1    
    39   18  143 1    
    40   19   20 am   BACKBONE|DICT|INTERRES
    41   19  144 1    
    42   20   21 2    
    43   20   22 1    
    44   22   23 1    
    45   22   24 1    
    46   22  145 1    
    47   23  146 1    
    48   23  147 1    
    49   23  148 1    
    50   24   25 am   BACKBONE|DICT|INTERRES
    51   24  149 1    
    52   25   26 2    
    53   25   27 1    
    54   27   28 1    
    55   27   29 1    
    56   27  150 1    
    57   28  151 1    
    58   28  152 1    
    59   28  153 1    
    60   29   30 am   BACKBONE|DICT|INTERRES
    61   29  154 1    
    62   30   31 2    
    63   30   32 1    
    64   32   33 1    
    65   32   34 1    
    66   32  155 1    
    67   33  156 1    
    68   33  157 1    
    69   33  158 1    
    70   34   35 am   BACKBONE|DICT|INTERRES
    71   34  159 1    
    72   35   36 2    
    73   35   37 1    
    74   37   38 1    
    75   37   39 1    
    76   37  160 1    
    77   38  161 1    
    78   38  162 1    
    79   38  163 1    
    80   39   40 am   BACKBONE|DICT|INTERRES
    81   39  164 1    
    82   40   41 2    
    83   40   42 1    
    84   42   43 1    
    85   42   44 1    
    86   42  165 1    
    87   43  166 1    
    88   43  167 1    
    89   43  168 1    
    90   44   45 am   BACKBONE|DICT|INTERRES
    91   44  169 1    
    92   45   46 2    
    93   45   47 1    
    94   47   48 1    
    95   47   49 1    
    96   47  170 1    
    97   48  171 1    
    98   48  172 1    
    99   48  173 1    
   100   49   50 am   BACKBONE|DICT|INTERRES
   101   49  174 1    
   102   50   51 2    
   103   50   52 1    
   104   52   53 1    
   105   52   54 1    
   106   52  175 1    
   107   53  176 1    
   108   53  177 1    
   109   53  178 1    
   110   54   55 am   BACKBONE|DICT|INTERRES
   111   54  179 1    
   112   55   56 2    
   113   55   57 1    
   114   57   58 1    
   115   57   59 1    
   116   57  180 1    
   117   58  181 1    
   118   58  182 1    
   119   58  183 1    
   120   59   60 am   BACKBONE|DICT|INTERRES
   121   59  184 1    
   122   60   61 2    
   123   60   62 1    
   124   62   63 1    
   125   62   64 1    
   126   62  185 1    
   127   63  186 1    
   128   63  187 1    
   129   63  188 1    
   130   64   65 am   BACKBONE|DICT|INTERRES
   131   64  189 1    
   132   65   66 2    
   133   67   68 2    
   134   67   69 am   BACKBONE|DICT|INTERRES
   135   69   70 1    
   136   69  190 1    
   137   70   71 1    
   138   70   72 1    
   139   70  191 1    
   140   71  192 1    
   141   71  193 1    
   142   71  194 1    
   143   72   73 2    
   144   72   74 am   BACKBONE|DICT|INTERRES
   145   74   75 1    
   146   74  195 1    
   147   75   76 1    
   148   75   77 1    
   149   75  196 1    
   150   76  197 1    
   151   76  198 1    
   152   76  199 1    
   153   77   78 2    
   154   77   79 am   BACKBONE|DICT|INTERRES
   155   79   80 1    
   156   79  200 1    
   157   80   81 1    
   158   80   82 1    
   159   80  201 1    
   160   81  202 1    
   161   81  203 1    
   162   81  204 1    
   163   82   83 2    
   164   82   84 am   BACKBONE|DICT|INTERRES
   165   84   85 1    
   166   84  205 1    
   167   85   86 1    
   168   85   87 1    
   169   85  206 1    
   170   86  207 1    
   171   86  208 1    
   172   86  209 1    
   173   87   88 2    
   174   87   89 am   BACKBONE|DICT|INTERRES
   175   89   90 1    
   176   89  210 1    
   177   90   91 1    
   178   90   92 1    
   179   90  211 1    
   180   91  212 1    
   181   91  213 1    
   182   91  214 1    
   183   92   93 2    
   184   92   94 am   BACKBONE|DICT|INTERRES
   185   94   95 1    
   186   94  215 1    
   187   95   96 1    
   188   95   97 1    
   189   95  216 1    
   190   96  217 1    
   191   96  218 1    
   192   96  219 1    
   193   97   98 2    
   194   97   99 am   BACKBONE|DICT|INTERRES
   195   99  100 1    
   196   99  220 1    
   197  100  101 1    
   198  100  102 1    
   199  100  221 1    
   200  101  222 1    
   201  101  223 1    
   202  101  224 1    
   203  102  103 2    
   204  102  104 am   BACKBONE|DICT|INTERRES
   205  104  105 1    
   206  104  225 1    
   207  105  106 1    
   208  105  107 1    
   209  105  226 1    
   210  106  227 1    
   211  106  228 1    
   212  106  229 1    
   213  107  108 2    
   214  107  109 am   BACKBONE|DICT|INTERRES
   215  109  110 1    
   216  109  230 1    
   217  110  111 1    
   218  110  112 1    
   219  110  231 1    
   220  111  232 1    
   221  111  233 1    
   222  111  234 1    
   223  112  113 2    
   224  112  114 am   BACKBONE|DICT|INTERRES
   225  114  115 1    
   226  114  235 1    
   227  115  116 1    
   228  115  117 1    
   229  115  236 1    
   230  116  237 1    
   231  116  238 1    
   232  116  239 1    
   233  117  118 2    
   234  117  119 am   BACKBONE|DICT|INTERRES
   235  119  120 1    
   236  119  240 1    
   237  120  121 1    
   238  120  124 1    
   239  120  241 1    
   240  121  122 am   BACKBONE|DICT|INTERRES
   241  121  123 2    
   242  122  242 1    
   243  122  243 1    
   244  124  125 1    
   245  124  244 1    
   246  124  245 1    
   247  125  126 1    
   248  126  246 1    
   249  126  247 1    
@<TRIPOS>SUBSTRUCTURE
     1 UNK         1 GROUP             0       ****    0 ROOT    
