@<TRIPOS>MOLECULE
3R540
247   249    1
SMALL
USER_CHARGES


@<TRIPOS>ATOM
      1 CA         -3.4350   -9.6650  -44.6322 C.3       0 UNK        -0.1800 
      2 C          -2.5019  -10.8090  -44.9996 C.2       0 UNK         0.5000 
      3 O          -1.2858  -10.6239  -45.0257 O.2       0 UNK        -0.5000 
      4 N          -3.0607  -11.9976  -45.2643 N.am      1 UNK        -0.5000 
      5 CA         -2.3380  -13.2081  -45.6895 C.3       1 UNK         0.1400 
      6 C6         -3.3007  -14.3472  -46.1085 C.3       23 UNK        -0.0398 
      7 S7         -4.4768  -13.8075  -47.3967 S.3       23 UNK        -0.2404 
      8 C8         -5.2846  -15.3776  -47.8558 C.3       23 UNK        -0.0205 
      9 C9         -4.3810  -16.3416  -48.6191 C.ar      23 UNK        -0.0193 
     10 C10        -3.5363  -15.8872  -49.6372 C.ar      23 UNK        -0.1150 
     11 C11        -2.7126  -16.7775  -50.3273 C.ar      23 UNK        -0.0193 
     12 C12        -2.7605  -18.1380  -50.0165 C.ar      23 UNK        -0.1150 
     13 C13        -3.6140  -18.6193  -49.0187 C.ar      23 UNK        -0.0193 
     14 C14        -4.4166  -17.7072  -48.3196 C.ar      23 UNK        -0.1150 
     15 C15        -3.6043  -20.1224  -48.7323 C.3       23 UNK        -0.0205 
     16 S16        -4.9339  -20.7583  -47.6548 S.3       23 UNK        -0.2404 
     17 C17        -4.2079  -20.5214  -45.9984 C.3       23 UNK        -0.0398 
     18 CA         -3.2040  -21.6291  -45.5906 C.3       11 UNK         0.1400 
     19 N          -2.3685  -21.1984  -44.4614 N.am      11 UNK        -0.5000 
     20 C          -1.3230  -21.8777  -43.9687 C.2       10 UNK         0.5000 
     21 O          -0.9671  -22.9757  -44.3996 O.2       10 UNK        -0.5000 
     22 CA         -0.5731  -21.2200  -42.7961 C.3       10 UNK         0.1400 
     23 CB          0.6366  -22.0447  -42.3224 C.3       10 UNK        -0.1800 
     24 N          -0.1171  -19.8896  -43.1868 N.am      10 UNK        -0.5000 
     25 C          -0.7182  -18.7387  -42.8627 C.2       9 UNK         0.5000 
     26 O          -1.7247  -18.6672  -42.1572 O.2       9 UNK        -0.5000 
     27 CA         -0.1231  -17.4578  -43.4720 C.3       9 UNK         0.1400 
     28 CB          1.1713  -17.0455  -42.7547 C.3       9 UNK        -0.1800 
     29 N           0.1394  -17.6022  -44.9005 N.am      9 UNK        -0.5000 
     30 C          -0.8082  -17.7329  -45.8377 C.2       8 UNK         0.5000 
     31 O          -2.0144  -17.6971  -45.5982 O.2       8 UNK        -0.5000 
     32 CA         -0.3251  -17.9704  -47.2766 C.3       8 UNK         0.1400 
     33 CB         -0.0084  -16.6429  -47.9815 C.3       8 UNK        -0.1800 
     34 N           0.8516  -18.8379  -47.3025 N.am      8 UNK        -0.5000 
     35 C           0.7969  -20.1773  -47.2828 C.2       7 UNK         0.5000 
     36 O          -0.2515  -20.8154  -47.3467 O.2       7 UNK        -0.5000 
     37 CA          2.1302  -20.9434  -47.1742 C.3       7 UNK         0.1400 
     38 CB          2.5768  -21.4407  -48.5568 C.3       7 UNK        -0.1800 
     39 N           3.2111  -20.1553  -46.5782 N.am      7 UNK        -0.5000 
     40 C           3.2773  -19.8213  -45.2822 C.2       6 UNK         0.5000 
     41 O           2.4378  -20.1545  -44.4478 O.2       6 UNK        -0.5000 
     42 CA          4.4437  -18.9060  -44.8614 C.3       6 UNK         0.1400 
     43 CB          5.7004  -19.7362  -44.5612 C.3       6 UNK        -0.1800 
     44 N           4.7674  -17.8683  -45.8477 N.am      6 UNK        -0.5000 
     45 C           3.9015  -16.9505  -46.2974 C.2       5 UNK         0.5000 
     46 O           2.7143  -16.9235  -45.9692 O.2       5 UNK        -0.5000 
     47 CA          4.4346  -15.9439  -47.3343 C.3       5 UNK         0.1400 
     48 CB          4.4216  -16.5783  -48.7343 C.3       5 UNK        -0.1800 
     49 N           3.6457  -14.7107  -47.3782 N.am      5 UNK        -0.5000 
     50 C           3.5300  -13.8281  -46.3768 C.2       4 UNK         0.5000 
     51 O           4.1500  -13.9286  -45.3146 O.2       4 UNK        -0.5000 
     52 CA          2.5972  -12.6199  -46.6191 C.3       4 UNK         0.1400 
     53 CB          1.4497  -12.9099  -47.6078 C.3       4 UNK        -0.1800 
     54 N           2.0227  -12.1463  -45.3613 N.am      4 UNK        -0.5000 
     55 C           2.5690  -11.2165  -44.5650 C.2       3 UNK         0.5000 
     56 O           3.6055  -10.6100  -44.8424 O.2       3 UNK        -0.5000 
     57 CA          1.8436  -10.8867  -43.2440 C.3       3 UNK         0.1400 
     58 CB          1.4082   -9.4118  -43.2113 C.3       3 UNK        -0.1800 
     59 N           0.6654  -11.7275  -43.0247 N.am      3 UNK        -0.5000 
     60 C           0.6554  -12.8564  -42.3018 C.2       2 UNK         0.5000 
     61 O           1.6396  -13.2915  -41.7038 O.2       2 UNK        -0.5000 
     62 CA         -0.6716  -13.6409  -42.2290 C.3       2 UNK         0.1400 
     63 CB         -1.4129  -13.3213  -40.9223 C.3       2 UNK        -0.1800 
     64 N          -1.5744  -13.3959  -43.3557 N.am      2 UNK        -0.5000 
     65 C          -1.3210  -13.7025  -44.6366 C.2       1 UNK         0.5000 
     66 O          -0.3044  -14.2890  -45.0023 O.2       1 UNK        -0.5000 
     67 C          -3.8921  -22.9939  -45.3510 C.2       11 UNK         0.5000 
     68 O          -4.0461  -23.7727  -46.2932 O.2       11 UNK        -0.5000 
     69 N          -4.2361  -23.2857  -44.0877 N.am      12 UNK        -0.5000 
     70 CA         -4.7817  -24.5716  -43.6517 C.3       12 UNK         0.1400 
     71 CB         -5.2998  -24.4408  -42.2118 C.3       12 UNK        -0.1800 
     72 C          -3.7646  -25.7246  -43.7593 C.2       12 UNK         0.5000 
     73 O          -4.1453  -26.8287  -44.1479 O.2       12 UNK        -0.5000 
     74 N          -2.4877  -25.4473  -43.4544 N.am      13 UNK        -0.5000 
     75 CA         -1.3819  -26.4025  -43.5835 C.3       13 UNK         0.1400 
     76 CB         -0.1726  -25.9142  -42.7725 C.3       13 UNK        -0.1800 
     77 C          -0.9947  -26.6343  -45.0551 C.2       13 UNK         0.5000 
     78 O          -0.6328  -27.7520  -45.4226 O.2       13 UNK        -0.5000 
     79 N          -1.1354  -25.5865  -45.8791 N.am      14 UNK        -0.5000 
     80 CA         -1.0139  -25.6342  -47.3377 C.3       14 UNK         0.1400 
     81 CB         -0.7785  -24.2076  -47.8622 C.3       14 UNK        -0.1800 
     82 C          -2.2348  -26.2767  -48.0343 C.2       14 UNK         0.5000 
     83 O          -2.2282  -26.3939  -49.2598 O.2       14 UNK        -0.5000 
     84 N          -3.2712  -26.6464  -47.2633 N.am      15 UNK        -0.5000 
     85 CA         -4.5342  -27.2656  -47.6849 C.3       15 UNK         0.1400 
     86 CB         -4.2834  -28.7074  -48.1718 C.3       15 UNK        -0.1800 
     87 C          -5.3193  -26.4185  -48.7096 C.2       15 UNK         0.5000 
     88 O          -6.0165  -26.9701  -49.5624 O.2       15 UNK        -0.5000 
     89 N          -5.1555  -25.0901  -48.6231 N.am      16 UNK        -0.5000 
     90 CA         -5.6625  -24.0574  -49.5302 C.3       16 UNK         0.1400 
     91 CB         -7.2016  -23.9845  -49.4781 C.3       16 UNK        -0.1800 
     92 C          -5.1241  -24.1372  -50.9765 C.2       16 UNK         0.5000 
     93 O          -5.6303  -23.4223  -51.8417 O.2       16 UNK        -0.5000 
     94 N          -4.0943  -24.9602  -51.2303 N.am      17 UNK        -0.5000 
     95 CA         -3.4996  -25.1416  -52.5575 C.3       17 UNK         0.1400 
     96 CB         -2.6189  -26.3994  -52.5592 C.3       17 UNK        -0.1800 
     97 C          -2.6923  -23.9151  -53.0166 C.2       17 UNK         0.5000 
     98 O          -2.6484  -23.6269  -54.2125 O.2       17 UNK        -0.5000 
     99 N          -2.0951  -23.1962  -52.0550 N.am      18 UNK        -0.5000 
    100 CA        -1.3164  -21.9784  -52.2848 C.3       18 UNK         0.1400 
    101 CB        -0.6006  -21.5835  -50.9838 C.3       18 UNK        -0.1800 
    102 C         -2.1585  -20.8051  -52.8189 C.2       18 UNK         0.5000 
    103 O         -1.6302  -19.9773  -53.5605 O.2       18 UNK        -0.5000 
    104 N         -3.4530  -20.7713  -52.4657 N.am      19 UNK        -0.5000 
    105 CA        -4.4083  -19.7258  -52.8490 C.3       19 UNK         0.1400 
    106 CB        -5.7064  -19.9022  -52.0453 C.3       19 UNK        -0.1800 
    107 C         -4.7158  -19.6819  -54.3581 C.2       19 UNK         0.5000 
    108 O         -5.2042  -18.6636  -54.8483 O.2       19 UNK        -0.5000 
    109 N         -4.4209  -20.7772  -55.0708 N.am      20 UNK        -0.5000 
    110 CA        -4.5776  -20.8980  -56.5184 C.3       20 UNK         0.1400 
    111 CB        -4.5864  -22.3899  -56.8875 C.3       20 UNK        -0.1800 
    112 C         -3.4933  -20.1494  -57.3210 C.2       20 UNK         0.5000 
    113 O         -3.6626  -19.9914  -58.5312 O.2       20 UNK        -0.5000 
    114 N         -2.4049  -19.7224  -56.6636 N.am      21 UNK        -0.5000 
    115 CA        -1.2656  -19.0634  -57.3008 C.3       21 UNK         0.1400 
    116 CB        -0.1072  -20.0661  -57.4384 C.3       21 UNK        -0.1800 
    117 C         -0.8220  -17.8080  -56.5366 C.2       21 UNK         0.5000 
    118 O         -0.6916  -16.7480  -57.1511 O.2       21 UNK        -0.5000 
    119 N         -0.5884  -17.9465  -55.2244 N.am      22 UNK        -0.5000 
    120 CA         0.0118  -16.9334  -54.3387 C.3       22 UNK         0.1400 
    121 C          1.4343  -16.4667  -54.7934 C.2       22 UNK         0.5000 
    122 N          1.9166  -15.3087  -54.3594 N.am      22 UNK        -0.7600 
    123 O          2.1473  -17.1802  -55.4966 O.2       22 UNK        -0.5000 
    124 C124       -0.9728  -15.7746  -54.0036 C.3       23 UNK        -0.0398 
    125 S125       -2.4195  -16.3550  -53.0558 S.3       23 UNK        -0.2404 
    126 C126       -1.7364  -16.2643  -51.3723 C.3       23 UNK        -0.0205 
    127 H127       -3.1954   -9.2911  -43.6368 H         1 UNK         0.0600 
    128 H128       -4.4799   -9.9763  -44.6375 H         1 UNK         0.0600 
    129 H129       -3.3200   -8.8460  -45.3421 H         1 UNK         0.0600 
    130 H130       -4.0671  -12.0839  -45.2409 H         1 UNK         0.3000 
    131 H131       -1.7546  -12.9312  -46.5706 H         1 UNK         0.0600 
    132 H132       -2.7353  -15.1972  -46.4941 H         1 UNK         0.0800 
    133 H133       -3.8664  -14.7148  -45.2505 H         1 UNK         0.0800 
    134 H134       -6.1488  -15.1527  -48.4819 H         1 UNK         0.0800 
    135 H135       -5.6736  -15.8465  -46.9505 H         1 UNK         0.0800 
    136 H136       -3.5058  -14.8352  -49.8831 H         1 UNK         0.1150 
    137 H137       -2.1187  -18.8244  -50.5498 H         1 UNK         0.1150 
    138 H138       -5.0764  -18.0495  -47.5368 H         1 UNK         0.1150 
    139 H139       -2.6374  -20.3917  -48.3104 H         1 UNK         0.0800 
    140 H140       -3.6762  -20.6572  -49.6782 H         1 UNK         0.0800 
    141 H141       -5.0164  -20.4448  -45.2696 H         1 UNK         0.0800 
    142 H142       -3.7151  -19.5504  -45.9958 H         1 UNK         0.0800 
    143 H143       -2.5173  -21.7788  -46.4237 H         1 UNK         0.0600 
    144 H144       -2.5816  -20.2955  -44.0606 H         1 UNK         0.3000 
    145 H145       -1.2716  -21.1523  -41.9598 H         1 UNK         0.0600 
    146 H146        1.1876  -21.5227  -41.5400 H         1 UNK         0.0600 
    147 H147        0.3161  -23.0003  -41.9077 H         1 UNK         0.0600 
    148 H148        1.3311  -22.2530  -43.1372 H         1 UNK         0.0600 
    149 H149        0.7159  -19.8659  -43.7715 H         1 UNK         0.3000 
    150 H150       -0.8575  -16.6604  -43.3488 H         1 UNK         0.0600 
    151 H151        1.9463  -17.8061  -42.8517 H         1 UNK         0.0600 
    152 H152        0.9954  -16.8874  -41.6901 H         1 UNK         0.0600 
    153 H153        1.5660  -16.1142  -43.1629 H         1 UNK         0.0600 
    154 H154        1.1093  -17.5466  -45.1979 H         1 UNK         0.3000 
    155 H155       -1.1344  -18.4552  -47.8199 H         1 UNK         0.0600 
    156 H156        0.7810  -16.0932  -47.4715 H         1 UNK         0.0600 
    157 H157       -0.8876  -15.9986  -48.0095 H         1 UNK         0.0600 
    158 H158        0.3088  -16.8088  -49.0106 H         1 UNK         0.0600 
    159 H159        1.7453  -18.3816  -47.1767 H         1 UNK         0.3000 
    160 H160        1.9530  -21.8150  -46.5399 H         1 UNK         0.0600 
    161 H161        2.7491  -20.6139  -49.2470 H         1 UNK         0.0600 
    162 H162        1.8184  -22.0872  -48.9990 H         1 UNK         0.0600 
    163 H163        3.4962  -22.0224  -48.4899 H         1 UNK         0.0600 
    164 H164        3.9380  -19.8315  -47.1990 H         1 UNK         0.3000 
    165 H165        4.1445  -18.3995  -43.9416 H         1 UNK         0.0600 
    166 H166        6.5008  -19.1113  -44.1646 H         1 UNK         0.0600 
    167 H167        6.0759  -20.2375  -45.4541 H         1 UNK         0.0600 
    168 H168        5.4914  -20.5051  -43.8161 H         1 UNK         0.0600 
    169 H169        5.7225  -17.8430  -46.1749 H         1 UNK         0.3000 
    170 H170        5.4612  -15.6827  -47.0698 H         1 UNK         0.0600 
    171 H171        5.0297  -17.4833  -48.7637 H         1 UNK         0.0600 
    172 H172        3.4114  -16.8519  -49.0428 H         1 UNK         0.0600 
    173 H173        4.8267  -15.8951  -49.4810 H         1 UNK         0.0600 
    174 H174        3.0907  -14.5673  -48.2081 H         1 UNK         0.3000 
    175 H175        3.2113  -11.8300  -47.0560 H         1 UNK         0.0600 
    176 H176        0.8530  -13.7658  -47.2960 H         1 UNK         0.0600 
    177 H177        0.7787  -12.0543  -47.6886 H         1 UNK         0.0600 
    178 H178        1.8252  -13.1117  -48.6113 H         1 UNK         0.0600 
    179 H179        1.2075  -12.6475  -45.0322 H         1 UNK         0.3000 
    180 H180        2.5626  -11.0382  -42.4364 H         1 UNK         0.0600 
    181 H181        0.7334   -9.1712  -44.0331 H         1 UNK         0.0600 
    182 H182        2.2695   -8.7475  -43.2914 H         1 UNK         0.0600 
    183 H183        0.8998   -9.1708  -42.2777 H         1 UNK         0.0600 
    184 H184       -0.1717  -11.4481  -43.5260 H         1 UNK         0.3000 
    185 H185       -0.4195  -14.7007  -42.2219 H         1 UNK         0.0600 
    186 H186       -2.3083  -13.9340  -40.8160 H         1 UNK         0.0600 
    187 H187       -0.7811  -13.5195  -40.0555 H         1 UNK         0.0600 
    188 H188       -1.7136  -12.2737  -40.8767 H         1 UNK         0.0600 
    189 H189       -2.4250  -12.8924  -43.1495 H         1 UNK         0.3000 
    190 H190       -4.0738  -22.5934  -43.3714 H         1 UNK         0.3000 
    191 H191       -5.6281  -24.8155  -44.2975 H         1 UNK         0.0600 
    192 H192       -5.7323  -25.3807  -41.8660 H         1 UNK         0.0600 
    193 H193       -6.0784  -23.6811  -42.1405 H         1 UNK         0.0600 
    194 H194       -4.5024  -24.1715  -41.5181 H         1 UNK         0.0600 
    195 H195       -2.2360  -24.4987  -43.2156 H         1 UNK         0.3000 
    196 H196       -1.7044  -27.3586  -43.1657 H         1 UNK         0.0600 
    197 H197        0.2591  -25.0080  -43.1967 H         1 UNK         0.0600 
    198 H198       -0.4440  -25.7086  -41.7370 H         1 UNK         0.0600 
    199 H199        0.6133  -26.6702  -42.7592 H         1 UNK         0.0600 
    200 H200       -1.3685  -24.6866  -45.4722 H         1 UNK         0.3000 
    201 H201       -0.1404  -26.2379  -47.5917 H         1 UNK         0.0600 
    202 H202       -1.6497  -23.5720  -47.7066 H         1 UNK         0.0600 
    203 H203       -0.5659  -24.2131  -48.9317 H         1 UNK         0.0600 
    204 H204        0.0703  -23.7363  -47.3662 H         1 UNK         0.0600 
    205 H205       -3.1956  -26.4685  -46.2712 H         1 UNK         0.3000 
    206 H206       -5.1606  -27.3195  -46.7936 H         1 UNK         0.0600 
    207 H207       -3.7361  -29.2846  -47.4264 H         1 UNK         0.0600 
    208 H208       -5.2232  -29.2287  -48.3574 H         1 UNK         0.0600 
    209 H209       -3.7093  -28.7264  -49.0988 H         1 UNK         0.0600 
    210 H210       -4.5936  -24.7379  -47.8506 H         1 UNK         0.3000 
    211 H211       -5.2789  -23.1185  -49.1378 H         1 UNK         0.0600 
    212 H212       -7.5715  -23.1168  -50.0255 H         1 UNK         0.0600 
    213 H213       -7.5558  -23.8915  -48.4515 H         1 UNK         0.0600 
    214 H214       -7.6651  -24.8685  -49.9164 H         1 UNK         0.0600 
    215 H215       -3.6972  -25.5096  -50.4756 H         1 UNK         0.3000 
    216 H216       -4.3088  -25.2947  -53.2748 H         1 UNK         0.0600 
    217 H217       -1.7580  -26.2904  -51.8988 H         1 UNK         0.0600 
    218 H218       -2.2382  -26.6060  -53.5602 H         1 UNK         0.0600 
    219 H219       -3.1806  -27.2763  -52.2362 H         1 UNK         0.0600 
    220 H220       -2.1786  -23.5159  -51.1016 H         1 UNK         0.3000 
    221 H221       -0.5569  -22.2016  -53.0371 H         1 UNK         0.0600 
    222 H222        0.0891  -22.3652  -50.6668 H         1 UNK         0.0600 
    223 H223       -1.3024  -21.4090  -50.1685 H         1 UNK         0.0600 
    224 H224       -0.0170  -20.6712  -51.1155 H         1 UNK         0.0600 
    225 H225       -3.8228  -21.5349  -51.9187 H         1 UNK         0.3000 
    226 H226       -3.9743  -18.7629  -52.5796 H         1 UNK         0.0600 
    227 H227       -6.1965  -20.8485  -52.2744 H         1 UNK         0.0600 
    228 H228       -5.5237  -19.8679  -50.9723 H         1 UNK         0.0600 
    229 H229       -6.4151  -19.1050  -52.2728 H         1 UNK         0.0600 
    230 H230       -4.0150  -21.5707  -54.5930 H         1 UNK         0.3000 
    231 H231       -5.5440  -20.4734  -56.7984 H         1 UNK         0.0600 
    232 H232       -3.6312  -22.8649  -56.6609 H         1 UNK         0.0600 
    233 H233       -4.7761  -22.5286  -57.9527 H         1 UNK         0.0600 
    234 H234       -5.3657  -22.9275  -56.3469 H         1 UNK         0.0600 
    235 H235       -2.3555  -19.8531  -55.6609 H         1 UNK         0.3000 
    236 H236       -1.5352  -18.7299  -58.3051 H         1 UNK         0.0600 
    237 H237       -0.3857  -20.9013  -58.0810 H         1 UNK         0.0600 
    238 H238        0.7699  -19.5923  -57.8813 H         1 UNK         0.0600 
    239 H239        0.1913  -20.4734  -56.4717 H         1 UNK         0.0600 
    240 H240       -0.7799  -18.8358  -54.7730 H         1 UNK         0.3000 
    241 H241        0.2107  -17.4691  -53.4105 H         1 UNK         0.0600 
    242 H242        2.8443  -15.0355  -54.6450 H         1 UNK         0.3800 
    243 H243        1.3887  -14.6969  -53.7584 H         1 UNK         0.3800 
    244 H244       -1.3219  -15.2923  -54.9174 H         1 UNK         0.0800 
    245 H245       -0.4940  -14.9906  -53.4173 H         1 UNK         0.0800 
    246 H246       -1.4595  -15.2330  -51.1479 H         1 UNK         0.0800 
    247 H247       -0.8155  -16.8464  -51.3214 H         1 UNK         0.0800 
@<TRIPOS>BOND
     1    1    2 1    
     2    1  127 1    
     3    1  128 1    
     4    1  129 1    
     5    2    3 2    
     6    2    4 am   BACKBONE|DICT|INTERRES
     7    4    5 1    
     8    4  130 1    
     9    5    6 1    
    10    5   65 1    
    11    5  131 1    
    12    6    7 1    
    13    6  132 1    
    14    6  133 1    
    15    7    8 1    
    16    8    9 1    
    17    8  134 1    
    18    8  135 1    
    19    9   10 ar   
    20    9   14 ar   
    21   10   11 ar   
    22   10  136 1    
    23   11   12 ar   
    24   11  126 1    
    25   12   13 ar   
    26   12  137 1    
    27   13   14 ar   
    28   13   15 1    
    29   14  138 1    
    30   15   16 1    
    31   15  139 1    
    32   15  140 1    
    33   16   17 1    
    34   17   18 1    
    35   17  141 1    
    36   17  142 1    
    37   18   19 1    
    38   18   67 1    
    39   18  143 1    
    40   19   20 am   BACKBONE|DICT|INTERRES
    41   19  144 1    
    42   20   21 2    
    43   20   22 1    
    44   22   23 1    
    45   22   24 1    
    46   22  145 1    
    47   23  146 1    
    48   23  147 1    
    49   23  148 1    
    50   24   25 am   BACKBONE|DICT|INTERRES
    51   24  149 1    
    52   25   26 2    
    53   25   27 1    
    54   27   28 1    
    55   27   29 1    
    56   27  150 1    
    57   28  151 1    
    58   28  152 1    
    59   28  153 1    
    60   29   30 am   BACKBONE|DICT|INTERRES
    61   29  154 1    
    62   30   31 2    
    63   30   32 1    
    64   32   33 1    
    65   32   34 1    
    66   32  155 1    
    67   33  156 1    
    68   33  157 1    
    69   33  158 1    
    70   34   35 am   BACKBONE|DICT|INTERRES
    71   34  159 1    
    72   35   36 2    
    73   35   37 1    
    74   37   38 1    
    75   37   39 1    
    76   37  160 1    
    77   38  161 1    
    78   38  162 1    
    79   38  163 1    
    80   39   40 am   BACKBONE|DICT|INTERRES
    81   39  164 1    
    82   40   41 2    
    83   40   42 1    
    84   42   43 1    
    85   42   44 1    
    86   42  165 1    
    87   43  166 1    
    88   43  167 1    
    89   43  168 1    
    90   44   45 am   BACKBONE|DICT|INTERRES
    91   44  169 1    
    92   45   46 2    
    93   45   47 1    
    94   47   48 1    
    95   47   49 1    
    96   47  170 1    
    97   48  171 1    
    98   48  172 1    
    99   48  173 1    
   100   49   50 am   BACKBONE|DICT|INTERRES
   101   49  174 1    
   102   50   51 2    
   103   50   52 1    
   104   52   53 1    
   105   52   54 1    
   106   52  175 1    
   107   53  176 1    
   108   53  177 1    
   109   53  178 1    
   110   54   55 am   BACKBONE|DICT|INTERRES
   111   54  179 1    
   112   55   56 2    
   113   55   57 1    
   114   57   58 1    
   115   57   59 1    
   116   57  180 1    
   117   58  181 1    
   118   58  182 1    
   119   58  183 1    
   120   59   60 am   BACKBONE|DICT|INTERRES
   121   59  184 1    
   122   60   61 2    
   123   60   62 1    
   124   62   63 1    
   125   62   64 1    
   126   62  185 1    
   127   63  186 1    
   128   63  187 1    
   129   63  188 1    
   130   64   65 am   BACKBONE|DICT|INTERRES
   131   64  189 1    
   132   65   66 2    
   133   67   68 2    
   134   67   69 am   BACKBONE|DICT|INTERRES
   135   69   70 1    
   136   69  190 1    
   137   70   71 1    
   138   70   72 1    
   139   70  191 1    
   140   71  192 1    
   141   71  193 1    
   142   71  194 1    
   143   72   73 2    
   144   72   74 am   BACKBONE|DICT|INTERRES
   145   74   75 1    
   146   74  195 1    
   147   75   76 1    
   148   75   77 1    
   149   75  196 1    
   150   76  197 1    
   151   76  198 1    
   152   76  199 1    
   153   77   78 2    
   154   77   79 am   BACKBONE|DICT|INTERRES
   155   79   80 1    
   156   79  200 1    
   157   80   81 1    
   158   80   82 1    
   159   80  201 1    
   160   81  202 1    
   161   81  203 1    
   162   81  204 1    
   163   82   83 2    
   164   82   84 am   BACKBONE|DICT|INTERRES
   165   84   85 1    
   166   84  205 1    
   167   85   86 1    
   168   85   87 1    
   169   85  206 1    
   170   86  207 1    
   171   86  208 1    
   172   86  209 1    
   173   87   88 2    
   174   87   89 am   BACKBONE|DICT|INTERRES
   175   89   90 1    
   176   89  210 1    
   177   90   91 1    
   178   90   92 1    
   179   90  211 1    
   180   91  212 1    
   181   91  213 1    
   182   91  214 1    
   183   92   93 2    
   184   92   94 am   BACKBONE|DICT|INTERRES
   185   94   95 1    
   186   94  215 1    
   187   95   96 1    
   188   95   97 1    
   189   95  216 1    
   190   96  217 1    
   191   96  218 1    
   192   96  219 1    
   193   97   98 2    
   194   97   99 am   BACKBONE|DICT|INTERRES
   195   99  100 1    
   196   99  220 1    
   197  100  101 1    
   198  100  102 1    
   199  100  221 1    
   200  101  222 1    
   201  101  223 1    
   202  101  224 1    
   203  102  103 2    
   204  102  104 am   BACKBONE|DICT|INTERRES
   205  104  105 1    
   206  104  225 1    
   207  105  106 1    
   208  105  107 1    
   209  105  226 1    
   210  106  227 1    
   211  106  228 1    
   212  106  229 1    
   213  107  108 2    
   214  107  109 am   BACKBONE|DICT|INTERRES
   215  109  110 1    
   216  109  230 1    
   217  110  111 1    
   218  110  112 1    
   219  110  231 1    
   220  111  232 1    
   221  111  233 1    
   222  111  234 1    
   223  112  113 2    
   224  112  114 am   BACKBONE|DICT|INTERRES
   225  114  115 1    
   226  114  235 1    
   227  115  116 1    
   228  115  117 1    
   229  115  236 1    
   230  116  237 1    
   231  116  238 1    
   232  116  239 1    
   233  117  118 2    
   234  117  119 am   BACKBONE|DICT|INTERRES
   235  119  120 1    
   236  119  240 1    
   237  120  121 1    
   238  120  124 1    
   239  120  241 1    
   240  121  122 am   BACKBONE|DICT|INTERRES
   241  121  123 2    
   242  122  242 1    
   243  122  243 1    
   244  124  125 1    
   245  124  244 1    
   246  124  245 1    
   247  125  126 1    
   248  126  246 1    
   249  126  247 1    
@<TRIPOS>SUBSTRUCTURE
     1 UNK         1 GROUP             0       ****    0 ROOT    
