@<TRIPOS>MOLECULE
3R540
247   249    1
SMALL
USER_CHARGES


@<TRIPOS>ATOM
      1 CA         -5.0876  -12.8500  -46.5598 C.3       0 UNK        -0.1800 
      2 C          -3.8408  -13.7174  -46.4863 C.2       0 UNK         0.5000 
      3 O          -2.8245  -13.2897  -45.9418 O.2       0 UNK        -0.5000 
      4 N          -3.9107  -14.9477  -47.0071 N.am      1 UNK        -0.5000 
      5 CA         -2.7868  -15.8937  -47.0937 C.3       1 UNK         0.1400 
      6 C6         -3.0668  -17.0374  -48.0993 C.3       23 UNK        -0.0398 
      7 S7         -3.6188  -16.4355  -49.7358 S.3       23 UNK        -0.2404 
      8 C8         -2.0920  -15.7326  -50.4379 C.3       23 UNK        -0.0205 
      9 C9         -1.0485  -16.7926  -50.7558 C.ar      23 UNK        -0.0193 
     10 C10        -1.1383  -17.5319  -51.9383 C.ar      23 UNK        -0.1150 
     11 C11        -0.1655  -18.4816  -52.2632 C.ar      23 UNK        -0.0193 
     12 C12         0.9048  -18.6893  -51.3895 C.ar      23 UNK        -0.1150 
     13 C13         1.0022  -17.9623  -50.1990 C.ar      23 UNK        -0.0193 
     14 C14         0.0233  -17.0150  -49.8867 C.ar      23 UNK        -0.1150 
     15 C15         2.1785  -18.1910  -49.2636 C.3       23 UNK        -0.0205 
     16 S16         2.1038  -19.8263  -48.4773 S.3       23 UNK        -0.2404 
     17 C17         0.7576  -19.5923  -47.2718 C.3       23 UNK        -0.0398 
     18 CA          0.4957  -20.8888  -46.4625 C.3       11 UNK         0.1400 
     19 N          -0.1534  -20.6328  -45.1853 N.am      11 UNK        -0.5000 
     20 C           0.4156  -20.2027  -44.0614 C.2       10 UNK         0.5000 
     21 O           1.5993  -19.8641  -43.9673 O.2       10 UNK        -0.5000 
     22 CA         -0.5037  -20.1935  -42.8337 C.3       10 UNK         0.1400 
     23 CB         -0.7804  -21.6282  -42.3434 C.3       10 UNK        -0.1800 
     24 N           0.0840  -19.4008  -41.7577 N.am      10 UNK        -0.5000 
     25 C          -0.6182  -18.8397  -40.7645 C.2       9 UNK         0.5000 
     26 O          -1.8407  -18.9533  -40.6607 O.2       9 UNK        -0.5000 
     27 CA          0.1743  -18.0565  -39.7005 C.3       9 UNK         0.1400 
     28 CB         -0.6465  -17.8032  -38.4170 C.3       9 UNK        -0.1800 
     29 N           1.4243  -18.7481  -39.3816 N.am      9 UNK        -0.5000 
     30 C           2.4830  -18.1900  -38.7792 C.2       8 UNK         0.5000 
     31 O           2.5359  -17.0086  -38.4356 O.2       8 UNK        -0.5000 
     32 CA          3.6959  -19.1074  -38.5254 C.3       8 UNK         0.1400 
     33 CB          3.5096  -19.9031  -37.2241 C.3       8 UNK        -0.1800 
     34 N           3.9516  -20.0364  -39.6293 N.am      8 UNK        -0.5000 
     35 C           4.3611  -19.6599  -40.8481 C.2       7 UNK         0.5000 
     36 O           4.6084  -18.4868  -41.1376 O.2       7 UNK        -0.5000 
     37 CA          4.5077  -20.7693  -41.9128 C.3       7 UNK         0.1400 
     38 CB          3.4447  -21.8759  -41.7682 C.3       7 UNK        -0.1800 
     39 N           4.3911  -20.1949  -43.2503 N.am      7 UNK        -0.5000 
     40 C           5.4033  -19.6974  -43.9754 C.2       6 UNK         0.5000 
     41 O           6.5898  -19.8018  -43.6607 O.2       6 UNK        -0.5000 
     42 CA          5.0253  -18.9356  -45.2584 C.3       6 UNK         0.1400 
     43 CB          4.9862  -19.8946  -46.4557 C.3       6 UNK        -0.1800 
     44 N           3.7226  -18.2854  -45.1023 N.am      6 UNK        -0.5000 
     45 C           3.5476  -16.9870  -44.8366 C.2       5 UNK         0.5000 
     46 O           4.4388  -16.1361  -44.8994 O.2       5 UNK        -0.5000 
     47 CA          2.1463  -16.6016  -44.3343 C.3       5 UNK         0.1400 
     48 CB          2.0710  -16.7671  -42.8094 C.3       5 UNK        -0.1800 
     49 N           1.7811  -15.2279  -44.6506 N.am      5 UNK        -0.5000 
     50 C           1.4398  -14.7641  -45.8561 C.2       4 UNK         0.5000 
     51 O           1.4672  -15.4420  -46.8837 O.2       4 UNK        -0.5000 
     52 CA          0.9272  -13.3075  -45.8883 C.3       4 UNK         0.1400 
     53 CB          0.4497  -12.8752  -47.2866 C.3       4 UNK        -0.1800 
     54 N          -0.1731  -13.1233  -44.9385 N.am      4 UNK        -0.5000 
     55 C          -0.0490  -12.9381  -43.6167 C.2       3 UNK         0.5000 
     56 O           1.0347  -12.8071  -43.0468 O.2       3 UNK        -0.5000 
     57 CA         -1.3435  -12.9974  -42.7912 C.3       3 UNK         0.1400 
     58 CB         -2.1716  -11.7130  -42.9555 C.3       3 UNK        -0.1800 
     59 N          -2.1383  -14.1599  -43.1905 N.am      3 UNK        -0.5000 
     60 C          -2.0103  -15.3835  -42.6550 C.2       2 UNK         0.5000 
     61 O          -1.2816  -15.6287  -41.6949 O.2       2 UNK        -0.5000 
     62 CA         -2.8236  -16.5308  -43.2893 C.3       2 UNK         0.1400 
     63 CB         -4.1133  -16.7833  -42.4952 C.3       2 UNK        -0.1800 
     64 N          -3.1687  -16.2653  -44.6856 N.am      2 UNK        -0.5000 
     65 C          -2.3386  -16.4490  -45.7218 C.2       1 UNK         0.5000 
     66 O          -1.2516  -17.0167  -45.6245 O.2       1 UNK        -0.5000 
     67 C          -0.4013  -21.8942  -47.2128 C.2       11 UNK         0.5000 
     68 O          -1.5035  -22.1974  -46.7427 O.2       11 UNK        -0.5000 
     69 N           0.0572  -22.3789  -48.3734 N.am      12 UNK        -0.5000 
     70 CA         -0.6281  -23.3737  -49.2053 C.3       12 UNK         0.1400 
     71 CB          0.2168  -23.6621  -50.4543 C.3       12 UNK        -0.1800 
     72 C          -2.0599  -22.9790  -49.6107 C.2       12 UNK         0.5000 
     73 O          -2.9348  -23.8416  -49.6597 O.2       12 UNK        -0.5000 
     74 N          -2.2876  -21.6851  -49.8646 N.am      13 UNK        -0.5000 
     75 CA         -3.6048  -21.1417  -50.1945 C.3       13 UNK         0.1400 
     76 CB         -3.4275  -19.8048  -50.9153 C.3       13 UNK        -0.1800 
     77 C          -4.5395  -21.0043  -48.9788 C.2       13 UNK         0.5000 
     78 O          -5.7549  -21.0877  -49.1511 O.2       13 UNK        -0.5000 
     79 N          -3.9742  -20.8411  -47.7731 N.am      14 UNK        -0.5000 
     80 CA         -4.7265  -20.8590  -46.5136 C.3       14 UNK         0.1400 
     81 CB         -3.9100  -20.1778  -45.4028 C.3       14 UNK        -0.1800 
     82 C          -5.1058  -22.2978  -46.1146 C.2       14 UNK         0.5000 
     83 O          -6.2012  -22.5233  -45.6008 O.2       14 UNK        -0.5000 
     84 N          -4.2042  -23.2474  -46.4020 N.am      15 UNK        -0.5000 
     85 CA         -4.4016  -24.6890  -46.2374 C.3       15 UNK         0.1400 
     86 CB         -3.0244  -25.3710  -46.2668 C.3       15 UNK        -0.1800 
     87 C          -5.3316  -25.3118  -47.3021 C.2       15 UNK         0.5000 
     88 O          -5.7462  -26.4593  -47.1367 O.2       15 UNK        -0.5000 
     89 N          -5.6226  -24.5571  -48.3728 N.am      16 UNK        -0.5000 
     90 CA         -6.4215  -24.9210  -49.5493 C.3       16 UNK         0.1400 
     91 CB         -7.8775  -25.2505  -49.1594 C.3       16 UNK        -0.1800 
     92 C          -5.7681  -26.0096  -50.4296 C.2       16 UNK         0.5000 
     93 O          -6.4644  -26.7041  -51.1722 O.2       16 UNK        -0.5000 
     94 N          -4.4355  -26.1173  -50.3562 N.am      17 UNK        -0.5000 
     95 CA         -3.6032  -26.9137  -51.2577 C.3       17 UNK         0.1400 
     96 CB         -2.2948  -27.2734  -50.5368 C.3       17 UNK        -0.1800 
     97 C          -3.3104  -26.1513  -52.5652 C.2       17 UNK         0.5000 
     98 O          -3.1249  -26.7776  -53.6091 O.2       17 UNK        -0.5000 
     99 N          -3.2949  -24.8167  -52.4781 N.am      18 UNK        -0.5000 
    100 CA        -3.2038  -23.8720  -53.5865 C.3       18 UNK         0.1400 
    101 CB        -1.8385  -23.1576  -53.5234 C.3       18 UNK        -0.1800 
    102 C         -4.3854  -22.8867  -53.4981 C.2       18 UNK         0.5000 
    103 O         -5.3525  -23.1406  -52.7747 O.2       18 UNK        -0.5000 
    104 N         -4.2819  -21.7677  -54.2181 N.am      19 UNK        -0.5000 
    105 CA        -5.2200  -20.6516  -54.2062 C.3       19 UNK         0.1400 
    106 CB        -6.3552  -20.9175  -55.2110 C.3       19 UNK        -0.1800 
    107 C         -4.4467  -19.3761  -54.5676 C.2       19 UNK         0.5000 
    108 O         -3.3233  -19.4667  -55.0678 O.2       19 UNK        -0.5000 
    109 N         -5.0724  -18.2103  -54.3568 N.am      20 UNK        -0.5000 
    110 CA        -4.5158  -16.8764  -54.6325 C.3       20 UNK         0.1400 
    111 CB        -5.5019  -15.8143  -54.1230 C.3       20 UNK        -0.1800 
    112 C         -4.1416  -16.6127  -56.1091 C.2       20 UNK         0.5000 
    113 O         -3.4109  -15.6630  -56.3926 O.2       20 UNK        -0.5000 
    114 N         -4.6150  -17.4761  -57.0169 N.am      21 UNK        -0.5000 
    115 CA        -4.2541  -17.5308  -58.4334 C.3       21 UNK         0.1400 
    116 CB        -5.2581  -18.4496  -59.1492 C.3       21 UNK        -0.1800 
    117 C         -2.8024  -17.9917  -58.7050 C.2       21 UNK         0.5000 
    118 O         -2.3848  -17.9695  -59.8637 O.2       21 UNK        -0.5000 
    119 N         -2.0613  -18.4048  -57.6644 N.am      22 UNK        -0.5000 
    120 CA        -0.6488  -18.8223  -57.7265 C.3       22 UNK         0.1400 
    121 C          0.3606  -17.7601  -58.2651 C.2       22 UNK         0.5000 
    122 N          0.0352  -16.4725  -58.2660 N.am      22 UNK        -0.7600 
    123 O          1.4543  -18.1159  -58.6961 O.2       22 UNK        -0.5000 
    124 C124       -0.1701  -19.4216  -56.3758 C.3       23 UNK        -0.0398 
    125 S125       -0.0893  -18.2056  -55.0111 S.3       23 UNK        -0.2404 
    126 C126       -0.2734  -19.2796  -53.5546 C.3       23 UNK        -0.0205 
    127 H127       -5.9129  -13.3674  -47.0493 H         1 UNK         0.0600 
    128 H128       -4.8758  -11.9392  -47.1197 H         1 UNK         0.0600 
    129 H129       -5.4074  -12.5682  -45.5567 H         1 UNK         0.0600 
    130 H130       -4.7657  -15.2481  -47.4541 H         1 UNK         0.3000 
    131 H131       -1.9280  -15.3354  -47.4692 H         1 UNK         0.0600 
    132 H132       -2.1846  -17.6655  -48.2295 H         1 UNK         0.0800 
    133 H133       -3.8483  -17.6949  -47.7151 H         1 UNK         0.0800 
    134 H134       -1.6838  -14.9792  -49.7635 H         1 UNK         0.0800 
    135 H135       -2.3492  -15.2002  -51.3548 H         1 UNK         0.0800 
    136 H136       -1.9655  -17.3675  -52.6118 H         1 UNK         0.1150 
    137 H137        1.6651  -19.4188  -51.6313 H         1 UNK         0.1150 
    138 H138        0.1012  -16.4447  -48.9714 H         1 UNK         0.1150 
    139 H139        3.1055  -18.1165  -49.8335 H         1 UNK         0.0800 
    140 H140        2.2302  -17.4192  -48.4946 H         1 UNK         0.0800 
    141 H141       -0.1449  -19.2426  -47.7759 H         1 UNK         0.0800 
    142 H142        1.0578  -18.7820  -46.6074 H         1 UNK         0.0800 
    143 H143        1.4427  -21.3908  -46.2513 H         1 UNK         0.0600 
    144 H144       -1.1079  -20.9692  -45.1680 H         1 UNK         0.3000 
    145 H145       -1.4457  -19.7333  -43.1392 H         1 UNK         0.0600 
    146 H146       -1.4730  -21.6337  -41.5018 H         1 UNK         0.0600 
    147 H147       -1.2303  -22.2371  -43.1285 H         1 UNK         0.0600 
    148 H148        0.1341  -22.1286  -42.0246 H         1 UNK         0.0600 
    149 H149        1.0764  -19.2319  -41.8448 H         1 UNK         0.3000 
    150 H150        0.4188  -17.0900  -40.1443 H         1 UNK         0.0600 
    151 H151       -1.5679  -17.2643  -38.6416 H         1 UNK         0.0600 
    152 H152       -0.0947  -17.1981  -37.6981 H         1 UNK         0.0600 
    153 H153       -0.9202  -18.7384  -37.9276 H         1 UNK         0.0600 
    154 H154        1.4600  -19.7292  -39.6195 H         1 UNK         0.3000 
    155 H155        4.5748  -18.4695  -38.4085 H         1 UNK         0.0600 
    156 H156        2.6595  -20.5838  -37.2841 H         1 UNK         0.0600 
    157 H157        3.3352  -19.2344  -36.3800 H         1 UNK         0.0600 
    158 H158        4.3967  -20.4925  -36.9918 H         1 UNK         0.0600 
    159 H159        3.7816  -21.0151  -39.4489 H         1 UNK         0.3000 
    160 H160        5.4940  -21.2208  -41.7897 H         1 UNK         0.0600 
    161 H161        2.4357  -21.4642  -41.7510 H         1 UNK         0.0600 
    162 H162        3.5867  -22.4515  -40.8532 H         1 UNK         0.0600 
    163 H163        3.4990  -22.5823  -42.5968 H         1 UNK         0.0600 
    164 H164        3.4411  -20.0485  -43.5744 H         1 UNK         0.3000 
    165 H165        5.8042  -18.1934  -45.4449 H         1 UNK         0.0600 
    166 H166        4.8162  -19.3498  -47.3839 H         1 UNK         0.0600 
    167 H167        5.9326  -20.4260  -46.5633 H         1 UNK         0.0600 
    168 H168        4.1990  -20.6420  -46.3494 H         1 UNK         0.0600 
    169 H169        2.9288  -18.9037  -44.9698 H         1 UNK         0.3000 
    170 H170        1.4095  -17.2607  -44.7962 H         1 UNK         0.0600 
    171 H171        2.3585  -17.7719  -42.5041 H         1 UNK         0.0600 
    172 H172        2.7361  -16.0727  -42.2942 H         1 UNK         0.0600 
    173 H173        1.0590  -16.5928  -42.4491 H         1 UNK         0.0600 
    174 H174        1.7479  -14.5784  -43.8740 H         1 UNK         0.3000 
    175 H175        1.7597  -12.6610  -45.6036 H         1 UNK         0.0600 
    176 H176       -0.3839  -13.4852  -47.6350 H         1 UNK         0.0600 
    177 H177        0.1236  -11.8350  -47.2864 H         1 UNK         0.0600 
    178 H178        1.2524  -12.9638  -48.0197 H         1 UNK         0.0600 
    179 H179       -1.1109  -13.2214  -45.3220 H         1 UNK         0.3000 
    180 H180       -1.0701  -13.0825  -41.7372 H         1 UNK         0.0600 
    181 H181       -2.4649  -11.5412  -43.9912 H         1 UNK         0.0600 
    182 H182       -1.6029  -10.8415  -42.6292 H         1 UNK         0.0600 
    183 H183       -3.0796  -11.7522  -42.3538 H         1 UNK         0.0600 
    184 H184       -2.7088  -14.0417  -44.0180 H         1 UNK         0.3000 
    185 H185       -2.2129  -17.4340  -43.2382 H         1 UNK         0.0600 
    186 H186       -3.8889  -17.0113  -41.4522 H         1 UNK         0.0600 
    187 H187       -4.7729  -15.9149  -42.5082 H         1 UNK         0.0600 
    188 H188       -4.6642  -17.6325  -42.9000 H         1 UNK         0.0600 
    189 H189       -4.0553  -15.8144  -44.8588 H         1 UNK         0.3000 
    190 H190        0.9557  -22.0561  -48.7071 H         1 UNK         0.3000 
    191 H191       -0.6988  -24.2938  -48.6223 H         1 UNK         0.0600 
    192 H192       -0.2595  -24.4146  -51.0844 H         1 UNK         0.0600 
    193 H193        1.2015  -24.0440  -50.1847 H         1 UNK         0.0600 
    194 H194        0.3589  -22.7665  -51.0608 H         1 UNK         0.0600 
    195 H195       -1.5163  -21.0356  -49.8185 H         1 UNK         0.3000 
    196 H196       -4.0979  -21.8258  -50.8832 H         1 UNK         0.0600 
    197 H197       -2.8183  -19.1254  -50.3226 H         1 UNK         0.0600 
    198 H198       -2.9366  -19.9433  -51.8775 H         1 UNK         0.0600 
    199 H199       -4.3855  -19.3187  -51.1043 H         1 UNK         0.0600 
    200 H200       -2.9671  -20.8674  -47.6997 H         1 UNK         0.3000 
    201 H201       -5.6487  -20.2895  -46.6487 H         1 UNK         0.0600 
    202 H202       -3.0262  -20.7543  -45.1353 H         1 UNK         0.0600 
    203 H203       -4.5081  -20.0675  -44.4974 H         1 UNK         0.0600 
    204 H204       -3.5863  -19.1815  -45.6995 H         1 UNK         0.0600 
    205 H205       -3.2974  -22.9562  -46.7538 H         1 UNK         0.3000 
    206 H206       -4.8539  -24.8668  -45.2597 H         1 UNK         0.0600 
    207 H207       -2.3637  -24.9614  -45.5024 H         1 UNK         0.0600 
    208 H208       -3.1131  -26.4420  -46.0805 H         1 UNK         0.0600 
    209 H209       -2.5358  -25.2463  -47.2334 H         1 UNK         0.0600 
    210 H210       -5.1950  -23.6431  -48.4114 H         1 UNK         0.3000 
    211 H211       -6.4493  -24.0240  -50.1699 H         1 UNK         0.0600 
    212 H212       -8.5066  -25.3450  -50.0451 H         1 UNK         0.0600 
    213 H213       -8.3074  -24.4627  -48.5408 H         1 UNK         0.0600 
    214 H214       -7.9492  -26.1885  -48.6087 H         1 UNK         0.0600 
    215 H215       -3.9425  -25.4553  -49.7643 H         1 UNK         0.3000 
    216 H216       -4.1241  -27.8393  -51.5114 H         1 UNK         0.0600 
    217 H217       -1.7310  -26.3836  -50.2549 H         1 UNK         0.0600 
    218 H218       -1.6524  -27.8820  -51.1743 H         1 UNK         0.0600 
    219 H219       -2.4905  -27.8459  -49.6299 H         1 UNK         0.0600 
    220 H220       -3.4953  -24.4045  -51.5745 H         1 UNK         0.3000 
    221 H221       -3.2885  -24.3958  -54.5406 H         1 UNK         0.0600 
    222 H222       -1.7628  -22.5060  -52.6526 H         1 UNK         0.0600 
    223 H223       -1.6661  -22.5450  -54.4088 H         1 UNK         0.0600 
    224 H224       -1.0214  -23.8774  -53.4739 H         1 UNK         0.0600 
    225 H225       -3.4411  -21.5798  -54.7502 H         1 UNK         0.3000 
    226 H226       -5.6322  -20.5279  -53.2024 H         1 UNK         0.0600 
    227 H227       -5.9736  -21.0306  -56.2266 H         1 UNK         0.0600 
    228 H228       -6.9007  -21.8266  -54.9571 H         1 UNK         0.0600 
    229 H229       -7.0779  -20.1009  -55.2185 H         1 UNK         0.0600 
    230 H230       -6.0021  -18.2241  -53.9625 H         1 UNK         0.3000 
    231 H231       -3.5935  -16.7815  -54.0588 H         1 UNK         0.0600 
    232 H232       -6.4619  -15.8786  -54.6365 H         1 UNK         0.0600 
    233 H233       -5.1115  -14.8080  -54.2807 H         1 UNK         0.0600 
    234 H234       -5.6823  -15.9250  -53.0534 H         1 UNK         0.0600 
    235 H235       -5.2006  -18.2251  -56.6803 H         1 UNK         0.3000 
    236 H236       -4.3542  -16.5253  -58.8468 H         1 UNK         0.0600 
    237 H237       -6.2808  -18.0950  -59.0192 H         1 UNK         0.0600 
    238 H238       -5.0642  -18.4850  -60.2221 H         1 UNK         0.0600 
    239 H239       -5.2056  -19.4718  -58.7722 H         1 UNK         0.0600 
    240 H240       -2.4866  -18.4406  -56.7453 H         1 UNK         0.3000 
    241 H241       -0.6196  -19.6353  -58.4542 H         1 UNK         0.0600 
    242 H242        0.6897  -15.7924  -58.6187 H         1 UNK         0.3800 
    243 H243       -0.8536  -16.1727  -57.8959 H         1 UNK         0.3800 
    244 H244        0.8164  -19.8738  -56.4905 H         1 UNK         0.0800 
    245 H245       -0.8355  -20.2358  -56.0852 H         1 UNK         0.0800 
    246 H246        0.4870  -20.0612  -53.5895 H         1 UNK         0.0800 
    247 H247       -1.2373  -19.7857  -53.5862 H         1 UNK         0.0800 
@<TRIPOS>BOND
     1    1    2 1    
     2    1  127 1    
     3    1  128 1    
     4    1  129 1    
     5    2    3 2    
     6    2    4 am   BACKBONE|DICT|INTERRES
     7    4    5 1    
     8    4  130 1    
     9    5    6 1    
    10    5   65 1    
    11    5  131 1    
    12    6    7 1    
    13    6  132 1    
    14    6  133 1    
    15    7    8 1    
    16    8    9 1    
    17    8  134 1    
    18    8  135 1    
    19    9   10 ar   
    20    9   14 ar   
    21   10   11 ar   
    22   10  136 1    
    23   11   12 ar   
    24   11  126 1    
    25   12   13 ar   
    26   12  137 1    
    27   13   14 ar   
    28   13   15 1    
    29   14  138 1    
    30   15   16 1    
    31   15  139 1    
    32   15  140 1    
    33   16   17 1    
    34   17   18 1    
    35   17  141 1    
    36   17  142 1    
    37   18   19 1    
    38   18   67 1    
    39   18  143 1    
    40   19   20 am   BACKBONE|DICT|INTERRES
    41   19  144 1    
    42   20   21 2    
    43   20   22 1    
    44   22   23 1    
    45   22   24 1    
    46   22  145 1    
    47   23  146 1    
    48   23  147 1    
    49   23  148 1    
    50   24   25 am   BACKBONE|DICT|INTERRES
    51   24  149 1    
    52   25   26 2    
    53   25   27 1    
    54   27   28 1    
    55   27   29 1    
    56   27  150 1    
    57   28  151 1    
    58   28  152 1    
    59   28  153 1    
    60   29   30 am   BACKBONE|DICT|INTERRES
    61   29  154 1    
    62   30   31 2    
    63   30   32 1    
    64   32   33 1    
    65   32   34 1    
    66   32  155 1    
    67   33  156 1    
    68   33  157 1    
    69   33  158 1    
    70   34   35 am   BACKBONE|DICT|INTERRES
    71   34  159 1    
    72   35   36 2    
    73   35   37 1    
    74   37   38 1    
    75   37   39 1    
    76   37  160 1    
    77   38  161 1    
    78   38  162 1    
    79   38  163 1    
    80   39   40 am   BACKBONE|DICT|INTERRES
    81   39  164 1    
    82   40   41 2    
    83   40   42 1    
    84   42   43 1    
    85   42   44 1    
    86   42  165 1    
    87   43  166 1    
    88   43  167 1    
    89   43  168 1    
    90   44   45 am   BACKBONE|DICT|INTERRES
    91   44  169 1    
    92   45   46 2    
    93   45   47 1    
    94   47   48 1    
    95   47   49 1    
    96   47  170 1    
    97   48  171 1    
    98   48  172 1    
    99   48  173 1    
   100   49   50 am   BACKBONE|DICT|INTERRES
   101   49  174 1    
   102   50   51 2    
   103   50   52 1    
   104   52   53 1    
   105   52   54 1    
   106   52  175 1    
   107   53  176 1    
   108   53  177 1    
   109   53  178 1    
   110   54   55 am   BACKBONE|DICT|INTERRES
   111   54  179 1    
   112   55   56 2    
   113   55   57 1    
   114   57   58 1    
   115   57   59 1    
   116   57  180 1    
   117   58  181 1    
   118   58  182 1    
   119   58  183 1    
   120   59   60 am   BACKBONE|DICT|INTERRES
   121   59  184 1    
   122   60   61 2    
   123   60   62 1    
   124   62   63 1    
   125   62   64 1    
   126   62  185 1    
   127   63  186 1    
   128   63  187 1    
   129   63  188 1    
   130   64   65 am   BACKBONE|DICT|INTERRES
   131   64  189 1    
   132   65   66 2    
   133   67   68 2    
   134   67   69 am   BACKBONE|DICT|INTERRES
   135   69   70 1    
   136   69  190 1    
   137   70   71 1    
   138   70   72 1    
   139   70  191 1    
   140   71  192 1    
   141   71  193 1    
   142   71  194 1    
   143   72   73 2    
   144   72   74 am   BACKBONE|DICT|INTERRES
   145   74   75 1    
   146   74  195 1    
   147   75   76 1    
   148   75   77 1    
   149   75  196 1    
   150   76  197 1    
   151   76  198 1    
   152   76  199 1    
   153   77   78 2    
   154   77   79 am   BACKBONE|DICT|INTERRES
   155   79   80 1    
   156   79  200 1    
   157   80   81 1    
   158   80   82 1    
   159   80  201 1    
   160   81  202 1    
   161   81  203 1    
   162   81  204 1    
   163   82   83 2    
   164   82   84 am   BACKBONE|DICT|INTERRES
   165   84   85 1    
   166   84  205 1    
   167   85   86 1    
   168   85   87 1    
   169   85  206 1    
   170   86  207 1    
   171   86  208 1    
   172   86  209 1    
   173   87   88 2    
   174   87   89 am   BACKBONE|DICT|INTERRES
   175   89   90 1    
   176   89  210 1    
   177   90   91 1    
   178   90   92 1    
   179   90  211 1    
   180   91  212 1    
   181   91  213 1    
   182   91  214 1    
   183   92   93 2    
   184   92   94 am   BACKBONE|DICT|INTERRES
   185   94   95 1    
   186   94  215 1    
   187   95   96 1    
   188   95   97 1    
   189   95  216 1    
   190   96  217 1    
   191   96  218 1    
   192   96  219 1    
   193   97   98 2    
   194   97   99 am   BACKBONE|DICT|INTERRES
   195   99  100 1    
   196   99  220 1    
   197  100  101 1    
   198  100  102 1    
   199  100  221 1    
   200  101  222 1    
   201  101  223 1    
   202  101  224 1    
   203  102  103 2    
   204  102  104 am   BACKBONE|DICT|INTERRES
   205  104  105 1    
   206  104  225 1    
   207  105  106 1    
   208  105  107 1    
   209  105  226 1    
   210  106  227 1    
   211  106  228 1    
   212  106  229 1    
   213  107  108 2    
   214  107  109 am   BACKBONE|DICT|INTERRES
   215  109  110 1    
   216  109  230 1    
   217  110  111 1    
   218  110  112 1    
   219  110  231 1    
   220  111  232 1    
   221  111  233 1    
   222  111  234 1    
   223  112  113 2    
   224  112  114 am   BACKBONE|DICT|INTERRES
   225  114  115 1    
   226  114  235 1    
   227  115  116 1    
   228  115  117 1    
   229  115  236 1    
   230  116  237 1    
   231  116  238 1    
   232  116  239 1    
   233  117  118 2    
   234  117  119 am   BACKBONE|DICT|INTERRES
   235  119  120 1    
   236  119  240 1    
   237  120  121 1    
   238  120  124 1    
   239  120  241 1    
   240  121  122 am   BACKBONE|DICT|INTERRES
   241  121  123 2    
   242  122  242 1    
   243  122  243 1    
   244  124  125 1    
   245  124  244 1    
   246  124  245 1    
   247  125  126 1    
   248  126  246 1    
   249  126  247 1    
@<TRIPOS>SUBSTRUCTURE
     1 UNK         1 GROUP             0       ****    0 ROOT    
