@<TRIPOS>MOLECULE
3R540
247   249    1
SMALL
USER_CHARGES


@<TRIPOS>ATOM
      1 CA          8.1256  -11.0242  -48.4601 C.3       0 UNK        -0.1800 
      2 C           6.8990  -11.7213  -49.0305 C.2       0 UNK         0.5000 
      3 O           6.2202  -11.1596  -49.8902 O.2       0 UNK        -0.5000 
      4 N           6.6025  -12.9344  -48.5448 N.am      1 UNK        -0.5000 
      5 CA          5.4948  -13.8220  -48.9335 C.3       1 UNK         0.1400 
      6 C6          5.4856  -14.1701  -50.4475 C.3       23 UNK        -0.0398 
      7 S7          4.6986  -15.7779  -50.8054 S.3       23 UNK        -0.2404 
      8 C8          3.0664  -15.2379  -51.4012 C.3       23 UNK        -0.0205 
      9 C9          2.1594  -16.4253  -51.6801 C.ar      23 UNK        -0.0193 
     10 C10         2.0640  -16.9524  -52.9724 C.ar      23 UNK        -0.1150 
     11 C11         1.2183  -18.0343  -53.2340 C.ar      23 UNK        -0.0193 
     12 C12         0.4689  -18.5868  -52.1937 C.ar      23 UNK        -0.1150 
     13 C13         0.5646  -18.0794  -50.8963 C.ar      23 UNK        -0.0193 
     14 C14         1.4095  -16.9943  -50.6446 C.ar      23 UNK        -0.1150 
     15 C15        -0.2328  -18.7302  -49.7780 C.3       23 UNK        -0.0205 
     16 S16         0.5938  -20.2505  -49.2231 S.3       23 UNK        -0.2404 
     17 C17        -0.8069  -21.1905  -48.5365 C.3       23 UNK        -0.0398 
     18 CA         -0.3131  -22.3028  -47.5849 C.3       11 UNK         0.1400 
     19 N           0.1951  -21.7717  -46.3189 N.am      11 UNK        -0.5000 
     20 C           0.8902  -22.4772  -45.4173 C.2       10 UNK         0.5000 
     21 O           1.1778  -23.6666  -45.5549 O.2       10 UNK        -0.5000 
     22 CA          1.2893  -21.7398  -44.1270 C.3       10 UNK         0.1400 
     23 CB          2.4800  -20.8003  -44.3713 C.3       10 UNK        -0.1800 
     24 N           0.1681  -20.9877  -43.5626 N.am      10 UNK        -0.5000 
     25 C          -0.9192  -21.5587  -43.0251 C.2       9 UNK         0.5000 
     26 O          -1.0448  -22.7741  -42.8748 O.2       9 UNK        -0.5000 
     27 CA         -2.0706  -20.6263  -42.6049 C.3       9 UNK         0.1400 
     28 CB         -1.8347  -20.0850  -41.1873 C.3       9 UNK        -0.1800 
     29 N          -2.2807  -19.5091  -43.5276 N.am      9 UNK        -0.5000 
     30 C          -2.6664  -19.6364  -44.8058 C.2       8 UNK         0.5000 
     31 O          -2.9082  -20.7135  -45.3468 O.2       8 UNK        -0.5000 
     32 CA         -2.7428  -18.3471  -45.6416 C.3       8 UNK         0.1400 
     33 CB         -4.0226  -17.5647  -45.3209 C.3       8 UNK        -0.1800 
     34 N          -1.5777  -17.4842  -45.4536 N.am      8 UNK        -0.5000 
     35 C          -0.3130  -17.8493  -45.7060 C.2       7 UNK         0.5000 
     36 O           0.0064  -18.9449  -46.1609 O.2       7 UNK        -0.5000 
     37 CA          0.7814  -16.8439  -45.3259 C.3       7 UNK         0.1400 
     38 CB          0.8786  -15.7245  -46.3711 C.3       7 UNK        -0.1800 
     39 N           0.5448  -16.2836  -43.9953 N.am      7 UNK        -0.5000 
     40 C           0.6627  -16.9846  -42.8576 C.2       6 UNK         0.5000 
     41 O           1.0462  -18.1533  -42.8121 O.2       6 UNK        -0.5000 
     42 CA          0.2357  -16.2809  -41.5574 C.3       6 UNK         0.1400 
     43 CB          1.4101  -15.5136  -40.9349 C.3       6 UNK        -0.1800 
     44 N          -0.8941  -15.3741  -41.7631 N.am      6 UNK        -0.5000 
     45 C          -2.1454  -15.7921  -42.0033 C.2       5 UNK         0.5000 
     46 O          -2.4692  -16.9784  -42.0492 O.2       5 UNK        -0.5000 
     47 CA         -3.2050  -14.7113  -42.2864 C.3       5 UNK         0.1400 
     48 CB         -3.8395  -14.2223  -40.9763 C.3       5 UNK        -0.1800 
     49 N          -2.6847  -13.5627  -43.0301 N.am      5 UNK        -0.5000 
     50 C          -2.1420  -13.6210  -44.2536 C.2       4 UNK         0.5000 
     51 O          -2.0167  -14.6684  -44.8892 O.2       4 UNK        -0.5000 
     52 CA         -1.6322  -12.3039  -44.8723 C.3       4 UNK         0.1400 
     53 CB         -2.0813  -11.0347  -44.1135 C.3       4 UNK        -0.1800 
     54 N          -0.1760  -12.3005  -45.0454 N.am      4 UNK        -0.5000 
     55 C           0.7633  -12.4616  -44.1001 C.2       3 UNK         0.5000 
     56 O           0.5042  -12.7299  -42.9258 O.2       3 UNK        -0.5000 
     57 CA          2.2388  -12.2997  -44.5326 C.3       3 UNK         0.1400 
     58 CB          3.1337  -13.4078  -43.9509 C.3       3 UNK        -0.1800 
     59 N           2.4134  -12.2616  -45.9883 N.am      3 UNK        -0.5000 
     60 C           2.3693  -11.1642  -46.7527 C.2       2 UNK         0.5000 
     61 O           2.1820  -10.0335  -46.3008 O.2       2 UNK        -0.5000 
     62 CA          2.5556  -11.3787  -48.2719 C.3       2 UNK         0.1400 
     63 CB          2.4651  -10.0672  -49.0724 C.3       2 UNK        -0.1800 
     64 N           3.8185  -12.0385  -48.6079 N.am      2 UNK        -0.5000 
     65 C           4.1107  -13.3345  -48.4486 C.2       1 UNK         0.5000 
     66 O           3.3352  -14.1374  -47.9300 O.2       1 UNK        -0.5000 
     67 C          -1.3864  -23.3898  -47.3877 C.2       11 UNK         0.5000 
     68 O          -1.4273  -24.3187  -48.1906 O.2       11 UNK        -0.5000 
     69 N          -2.1875  -23.3073  -46.3141 N.am      12 UNK        -0.5000 
     70 CA         -3.2085  -24.2953  -45.9424 C.3       12 UNK         0.1400 
     71 CB         -3.9565  -23.8195  -44.6876 C.3       12 UNK        -0.1800 
     72 C          -2.6568  -25.7173  -45.7178 C.2       12 UNK         0.5000 
     73 O          -3.3769  -26.6901  -45.9447 O.2       12 UNK        -0.5000 
     74 N          -1.3906  -25.8154  -45.2896 N.am      13 UNK        -0.5000 
     75 CA         -0.6723  -27.0790  -45.1307 C.3       13 UNK         0.1400 
     76 CB          0.4887  -26.8731  -44.1458 C.3       13 UNK        -0.1800 
     77 C          -0.1537  -27.6421  -46.4691 C.2       13 UNK         0.5000 
     78 O           0.0725  -28.8493  -46.5626 O.2       13 UNK        -0.5000 
     79 N           0.0362  -26.7732  -47.4716 N.am      14 UNK        -0.5000 
     80 CA          0.5142  -27.1336  -48.8050 C.3       14 UNK         0.1400 
     81 CB          1.3399  -25.9733  -49.3845 C.3       14 UNK        -0.1800 
     82 C          -0.6460  -27.5020  -49.7446 C.2       14 UNK         0.5000 
     83 O          -0.5266  -28.4714  -50.4954 O.2       14 UNK        -0.5000 
     84 N          -1.7445  -26.7391  -49.6870 N.am      15 UNK        -0.5000 
     85 CA         -2.9425  -26.9378  -50.4942 C.3       15 UNK         0.1400 
     86 CB         -2.7897  -26.2076  -51.8402 C.3       15 UNK        -0.1800 
     87 C          -4.1661  -26.4146  -49.7343 C.2       15 UNK         0.5000 
     88 O          -4.0895  -25.3650  -49.0943 O.2       15 UNK        -0.5000 
     89 N          -5.2981  -27.1167  -49.8744 N.am      16 UNK        -0.5000 
     90 CA         -6.5769  -26.8132  -49.2180 C.3       16 UNK         0.1400 
     91 CB         -7.5630  -27.9553  -49.5097 C.3       16 UNK        -0.1800 
     92 C          -7.1989  -25.4518  -49.5987 C.2       16 UNK         0.5000 
     93 O          -8.1004  -24.9846  -48.9019 O.2       16 UNK        -0.5000 
     94 N          -6.7033  -24.8363  -50.6815 N.am      17 UNK        -0.5000 
     95 CA         -7.0483  -23.4874  -51.1274 C.3       17 UNK         0.1400 
     96 CB         -6.3960  -23.2397  -52.4963 C.3       17 UNK        -0.1800 
     97 C          -6.6385  -22.3855  -50.1291 C.2       17 UNK         0.5000 
     98 O          -7.2998  -21.3474  -50.0882 O.2       17 UNK        -0.5000 
     99 N          -5.5755  -22.6265  -49.3424 N.am      18 UNK        -0.5000 
    100 CA        -5.0383  -21.7468  -48.2989 C.3       18 UNK         0.1400 
    101 CB        -5.9760  -21.7496  -47.0719 C.3       18 UNK        -0.1800 
    102 C         -4.7170  -20.3369  -48.8361 C.2       18 UNK         0.5000 
    103 O         -3.7736  -20.1913  -49.6116 O.2       18 UNK        -0.5000 
    104 N         -5.5230  -19.3351  -48.4587 N.am      19 UNK        -0.5000 
    105 CA        -5.4361  -17.9528  -48.9357 C.3       19 UNK         0.1400 
    106 CB        -6.4511  -17.0967  -48.1610 C.3       19 UNK        -0.1800 
    107 C         -5.6766  -17.7933  -50.4516 C.2       19 UNK         0.5000 
    108 O         -5.1868  -16.8275  -51.0369 O.2       19 UNK        -0.5000 
    109 N         -6.4279  -18.7243  -51.0570 N.am      20 UNK        -0.5000 
    110 CA        -6.7624  -18.7242  -52.4815 C.3       20 UNK         0.1400 
    111 CB        -8.1528  -19.3537  -52.6710 C.3       20 UNK        -0.1800 
    112 C         -5.7097  -19.4347  -53.3551 C.2       20 UNK         0.5000 
    113 O         -5.8662  -19.4441  -54.5785 O.2       20 UNK        -0.5000 
    114 N         -4.6642  -20.0193  -52.7460 N.am      21 UNK        -0.5000 
    115 CA        -3.5419  -20.6465  -53.4502 C.3       21 UNK         0.1400 
    116 CB        -2.5750  -21.2689  -52.4319 C.3       21 UNK        -0.1800 
    117 C         -2.8222  -19.6365  -54.3678 C.2       21 UNK         0.5000 
    118 O         -2.5532  -18.5170  -53.9324 O.2       21 UNK        -0.5000 
    119 N         -2.5989  -20.0459  -55.6238 N.am      22 UNK        -0.5000 
    120 CA        -2.1633  -19.2342  -56.7789 C.3       22 UNK         0.1400 
    121 C         -3.0735  -18.0229  -57.1627 C.2       22 UNK         0.5000 
    122 N         -4.2952  -17.9124  -56.6529 N.am      22 UNK        -0.7600 
    123 O         -2.6908  -17.1921  -57.9826 O.2       22 UNK        -0.5000 
    124 C124       -0.6335  -18.9362  -56.8274 C.3       23 UNK        -0.0398 
    125 S125       -0.0183  -17.6580  -55.6738 S.3       23 UNK        -0.2404 
    126 C126        1.1159  -18.6243  -54.6307 C.3       23 UNK        -0.0205 
    127 H127        8.8402  -10.8132  -49.2556 H         1 UNK         0.0600 
    128 H128        8.6255  -11.6335  -47.7067 H         1 UNK         0.0600 
    129 H129        7.8390  -10.0794  -47.9983 H         1 UNK         0.0600 
    130 H130        7.1954  -13.3091  -47.8167 H         1 UNK         0.3000 
    131 H131        5.6959  -14.7452  -48.3870 H         1 UNK         0.0600 
    132 H132        5.0239  -13.3781  -51.0400 H         1 UNK         0.0800 
    133 H133        6.5116  -14.2445  -50.8102 H         1 UNK         0.0800 
    134 H134        2.5972  -14.5891  -50.6606 H         1 UNK         0.0800 
    135 H135        3.1898  -14.6371  -52.3037 H         1 UNK         0.0800 
    136 H136        2.6446  -16.5206  -53.7756 H         1 UNK         0.1150 
    137 H137       -0.1824  -19.4254  -52.3917 H         1 UNK         0.1150 
    138 H138        1.4940  -16.5973  -49.6432 H         1 UNK         0.1150 
    139 H139       -0.3484  -18.0508  -48.9323 H         1 UNK         0.0800 
    140 H140       -1.2389  -18.9585  -50.1334 H         1 UNK         0.0800 
    141 H141       -1.3599  -21.6079  -49.3806 H         1 UNK         0.0800 
    142 H142       -1.4902  -20.5152  -48.0188 H         1 UNK         0.0800 
    143 H143        0.5247  -22.8066  -48.0727 H         1 UNK         0.0600 
    144 H144        0.0405  -20.7782  -46.1558 H         1 UNK         0.3000 
    145 H145        1.5983  -22.4900  -43.3960 H         1 UNK         0.0600 
    146 H146        2.8069  -20.3311  -43.4432 H         1 UNK         0.0600 
    147 H147        2.2338  -20.0066  -45.0767 H         1 UNK         0.0600 
    148 H148        3.3314  -21.3477  -44.7772 H         1 UNK         0.0600 
    149 H149        0.2234  -19.9771  -43.6130 H         1 UNK         0.3000 
    150 H150       -2.9864  -21.2210  -42.5931 H         1 UNK         0.0600 
    151 H151       -1.6874  -20.8991  -40.4765 H         1 UNK         0.0600 
    152 H152       -2.6882  -19.5021  -40.8409 H         1 UNK         0.0600 
    153 H153       -0.9523  -19.4457  -41.1436 H         1 UNK         0.0600 
    154 H154       -2.1508  -18.5772  -43.1450 H         1 UNK         0.3000 
    155 H155       -2.7742  -18.6349  -46.6945 H         1 UNK         0.0600 
    156 H156       -4.9044  -18.1887  -45.4697 H         1 UNK         0.0600 
    157 H157       -4.1214  -16.6906  -45.9648 H         1 UNK         0.0600 
    158 H158       -4.0377  -17.2209  -44.2871 H         1 UNK         0.0600 
    159 H159       -1.7524  -16.5425  -45.1125 H         1 UNK         0.3000 
    160 H160        1.7365  -17.3733  -45.3094 H         1 UNK         0.0600 
    161 H161       -0.0515  -15.1676  -46.4749 H         1 UNK         0.0600 
    162 H162        1.1233  -16.1336  -47.3513 H         1 UNK         0.0600 
    163 H163        1.6640  -15.0190  -46.1148 H         1 UNK         0.0600 
    164 H164        0.1525  -15.3543  -43.9514 H         1 UNK         0.3000 
    165 H165       -0.0701  -17.0539  -40.8492 H         1 UNK         0.0600 
    166 H166        1.1308  -15.0760  -39.9764 H         1 UNK         0.0600 
    167 H167        2.2582  -16.1757  -40.7560 H         1 UNK         0.0600 
    168 H168        1.7533  -14.7085  -41.5825 H         1 UNK         0.0600 
    169 H169       -0.6891  -14.3829  -41.7948 H         1 UNK         0.3000 
    170 H170       -3.9881  -15.1698  -42.8933 H         1 UNK         0.0600 
    171 H171       -3.1104  -13.7220  -40.3377 H         1 UNK         0.0600 
    172 H172       -4.6540  -13.5236  -41.1687 H         1 UNK         0.0600 
    173 H173       -4.2556  -15.0562  -40.4092 H         1 UNK         0.0600 
    174 H174       -2.7269  -12.6666  -42.5672 H         1 UNK         0.3000 
    175 H175       -2.0631  -12.2572  -45.8733 H         1 UNK         0.0600 
    176 H176       -1.6614  -10.9814  -43.1085 H         1 UNK         0.0600 
    177 H177       -1.7680  -10.1362  -44.6454 H         1 UNK         0.0600 
    178 H178       -3.1678  -10.9896  -44.0266 H         1 UNK         0.0600 
    179 H179        0.1476  -12.1254  -45.9847 H         1 UNK         0.3000 
    180 H180        2.5830  -11.3523  -44.1130 H         1 UNK         0.0600 
    181 H181        4.1582  -13.3181  -44.3125 H         1 UNK         0.0600 
    182 H182        2.7755  -14.4045  -44.2050 H         1 UNK         0.0600 
    183 H183        3.1743  -13.3410  -42.8636 H         1 UNK         0.0600 
    184 H184        2.6029  -13.1445  -46.4551 H         1 UNK         0.3000 
    185 H185        1.7372  -12.0217  -48.6028 H         1 UNK         0.0600 
    186 H186        2.5310  -10.2549  -50.1443 H         1 UNK         0.0600 
    187 H187        1.5165   -9.5599  -48.8918 H         1 UNK         0.0600 
    188 H188        3.2659   -9.3768  -48.8041 H         1 UNK         0.0600 
    189 H189        4.5339  -11.4580  -49.0363 H         1 UNK         0.3000 
    190 H190       -2.1443  -22.4698  -45.7410 H         1 UNK         0.3000 
    191 H191       -3.9281  -24.3461  -46.7593 H         1 UNK         0.0600 
    192 H192       -4.4001  -22.8359  -44.8320 H         1 UNK         0.0600 
    193 H193       -3.2966  -23.7647  -43.8225 H         1 UNK         0.0600 
    194 H194       -4.7674  -24.5041  -44.4360 H         1 UNK         0.0600 
    195 H195       -0.8633  -24.9671  -45.1277 H         1 UNK         0.3000 
    196 H196       -1.3513  -27.8184  -44.7006 H         1 UNK         0.0600 
    197 H197        0.1316  -26.4983  -43.1863 H         1 UNK         0.0600 
    198 H198        1.2232  -26.1650  -44.5304 H         1 UNK         0.0600 
    199 H199        1.0090  -27.8125  -43.9550 H         1 UNK         0.0600 
    200 H200       -0.2442  -25.8092  -47.3420 H         1 UNK         0.3000 
    201 H201        1.1736  -28.0010  -48.7297 H         1 UNK         0.0600 
    202 H202        2.1736  -25.7179  -48.7302 H         1 UNK         0.0600 
    203 H203        0.7395  -25.0748  -49.5272 H         1 UNK         0.0600 
    204 H204        1.7582  -26.2425  -50.3550 H         1 UNK         0.0600 
    205 H205       -1.7757  -25.9394  -49.0554 H         1 UNK         0.3000 
    206 H206       -3.0827  -28.0053  -50.6775 H         1 UNK         0.0600 
    207 H207       -2.6339  -25.1370  -51.6988 H         1 UNK         0.0600 
    208 H208       -1.9435  -26.5961  -52.4070 H         1 UNK         0.0600 
    209 H209       -3.6791  -26.3330  -52.4589 H         1 UNK         0.0600 
    210 H210       -5.2840  -27.9502  -50.4445 H         1 UNK         0.3000 
    211 H211       -6.3933  -26.7867  -48.1418 H         1 UNK         0.0600 
    212 H212       -7.7657  -28.0476  -50.5774 H         1 UNK         0.0600 
    213 H213       -8.5171  -27.7884  -49.0078 H         1 UNK         0.0600 
    214 H214       -7.1766  -28.9114  -49.1559 H         1 UNK         0.0600 
    215 H215       -5.9714  -25.3068  -51.1915 H         1 UNK         0.3000 
    216 H216       -8.1326  -23.4393  -51.2470 H         1 UNK         0.0600 
    217 H217       -6.6765  -22.2645  -52.8932 H         1 UNK         0.0600 
    218 H218       -6.7120  -23.9854  -53.2258 H         1 UNK         0.0600 
    219 H219       -5.3074  -23.2690  -52.4353 H         1 UNK         0.0600 
    220 H220       -5.0947  -23.5137  -49.4480 H         1 UNK         0.3000 
    221 H221       -4.0856  -22.1753  -47.9917 H         1 UNK         0.0600 
    222 H222       -6.9737  -21.3798  -47.3100 H         1 UNK         0.0600 
    223 H223       -6.0917  -22.7594  -46.6783 H         1 UNK         0.0600 
    224 H224       -5.5728  -21.1341  -46.2666 H         1 UNK         0.0600 
    225 H225       -6.3019  -19.5540  -47.8550 H         1 UNK         0.3000 
    226 H226       -4.4310  -17.5862  -48.7170 H         1 UNK         0.0600 
    227 H227       -6.2944  -17.1559  -47.0854 H         1 UNK         0.0600 
    228 H228       -6.3687  -16.0457  -48.4413 H         1 UNK         0.0600 
    229 H229       -7.4761  -17.4098  -48.3641 H         1 UNK         0.0600 
    230 H230       -6.7734  -19.5133  -50.5170 H         1 UNK         0.3000 
    231 H231       -6.8208  -17.6923  -52.8340 H         1 UNK         0.0600 
    232 H232       -8.4738  -19.2870  -53.7112 H         1 UNK         0.0600 
    233 H233       -8.9030  -18.8413  -52.0685 H         1 UNK         0.0600 
    234 H234       -8.1647  -20.4074  -52.3947 H         1 UNK         0.0600 
    235 H235       -4.5730  -19.9314  -51.7420 H         1 UNK         0.3000 
    236 H236       -3.9522  -21.4520  -54.0629 H         1 UNK         0.0600 
    237 H237       -2.1637  -20.5154  -51.7610 H         1 UNK         0.0600 
    238 H238       -3.0737  -22.0209  -51.8198 H         1 UNK         0.0600 
    239 H239       -1.7377  -21.7567  -52.9322 H         1 UNK         0.0600 
    240 H240       -2.8784  -20.9864  -55.8635 H         1 UNK         0.3000 
    241 H241       -2.3331  -19.9127  -57.6156 H         1 UNK         0.0600 
    242 H242       -4.6544  -18.5786  -55.9783 H         1 UNK         0.3800 
    243 H243       -4.8713  -17.1340  -56.9309 H         1 UNK         0.3800 
    244 H244       -0.3623  -18.6114  -57.8332 H         1 UNK         0.0800 
    245 H245       -0.0821  -19.8649  -56.6793 H         1 UNK         0.0800 
    246 H246        0.7712  -19.6572  -54.5622 H         1 UNK         0.0800 
    247 H247        2.1006  -18.6577  -55.0990 H         1 UNK         0.0800 
@<TRIPOS>BOND
     1    1    2 1    
     2    1  127 1    
     3    1  128 1    
     4    1  129 1    
     5    2    3 2    
     6    2    4 am   BACKBONE|DICT|INTERRES
     7    4    5 1    
     8    4  130 1    
     9    5    6 1    
    10    5   65 1    
    11    5  131 1    
    12    6    7 1    
    13    6  132 1    
    14    6  133 1    
    15    7    8 1    
    16    8    9 1    
    17    8  134 1    
    18    8  135 1    
    19    9   10 ar   
    20    9   14 ar   
    21   10   11 ar   
    22   10  136 1    
    23   11   12 ar   
    24   11  126 1    
    25   12   13 ar   
    26   12  137 1    
    27   13   14 ar   
    28   13   15 1    
    29   14  138 1    
    30   15   16 1    
    31   15  139 1    
    32   15  140 1    
    33   16   17 1    
    34   17   18 1    
    35   17  141 1    
    36   17  142 1    
    37   18   19 1    
    38   18   67 1    
    39   18  143 1    
    40   19   20 am   BACKBONE|DICT|INTERRES
    41   19  144 1    
    42   20   21 2    
    43   20   22 1    
    44   22   23 1    
    45   22   24 1    
    46   22  145 1    
    47   23  146 1    
    48   23  147 1    
    49   23  148 1    
    50   24   25 am   BACKBONE|DICT|INTERRES
    51   24  149 1    
    52   25   26 2    
    53   25   27 1    
    54   27   28 1    
    55   27   29 1    
    56   27  150 1    
    57   28  151 1    
    58   28  152 1    
    59   28  153 1    
    60   29   30 am   BACKBONE|DICT|INTERRES
    61   29  154 1    
    62   30   31 2    
    63   30   32 1    
    64   32   33 1    
    65   32   34 1    
    66   32  155 1    
    67   33  156 1    
    68   33  157 1    
    69   33  158 1    
    70   34   35 am   BACKBONE|DICT|INTERRES
    71   34  159 1    
    72   35   36 2    
    73   35   37 1    
    74   37   38 1    
    75   37   39 1    
    76   37  160 1    
    77   38  161 1    
    78   38  162 1    
    79   38  163 1    
    80   39   40 am   BACKBONE|DICT|INTERRES
    81   39  164 1    
    82   40   41 2    
    83   40   42 1    
    84   42   43 1    
    85   42   44 1    
    86   42  165 1    
    87   43  166 1    
    88   43  167 1    
    89   43  168 1    
    90   44   45 am   BACKBONE|DICT|INTERRES
    91   44  169 1    
    92   45   46 2    
    93   45   47 1    
    94   47   48 1    
    95   47   49 1    
    96   47  170 1    
    97   48  171 1    
    98   48  172 1    
    99   48  173 1    
   100   49   50 am   BACKBONE|DICT|INTERRES
   101   49  174 1    
   102   50   51 2    
   103   50   52 1    
   104   52   53 1    
   105   52   54 1    
   106   52  175 1    
   107   53  176 1    
   108   53  177 1    
   109   53  178 1    
   110   54   55 am   BACKBONE|DICT|INTERRES
   111   54  179 1    
   112   55   56 2    
   113   55   57 1    
   114   57   58 1    
   115   57   59 1    
   116   57  180 1    
   117   58  181 1    
   118   58  182 1    
   119   58  183 1    
   120   59   60 am   BACKBONE|DICT|INTERRES
   121   59  184 1    
   122   60   61 2    
   123   60   62 1    
   124   62   63 1    
   125   62   64 1    
   126   62  185 1    
   127   63  186 1    
   128   63  187 1    
   129   63  188 1    
   130   64   65 am   BACKBONE|DICT|INTERRES
   131   64  189 1    
   132   65   66 2    
   133   67   68 2    
   134   67   69 am   BACKBONE|DICT|INTERRES
   135   69   70 1    
   136   69  190 1    
   137   70   71 1    
   138   70   72 1    
   139   70  191 1    
   140   71  192 1    
   141   71  193 1    
   142   71  194 1    
   143   72   73 2    
   144   72   74 am   BACKBONE|DICT|INTERRES
   145   74   75 1    
   146   74  195 1    
   147   75   76 1    
   148   75   77 1    
   149   75  196 1    
   150   76  197 1    
   151   76  198 1    
   152   76  199 1    
   153   77   78 2    
   154   77   79 am   BACKBONE|DICT|INTERRES
   155   79   80 1    
   156   79  200 1    
   157   80   81 1    
   158   80   82 1    
   159   80  201 1    
   160   81  202 1    
   161   81  203 1    
   162   81  204 1    
   163   82   83 2    
   164   82   84 am   BACKBONE|DICT|INTERRES
   165   84   85 1    
   166   84  205 1    
   167   85   86 1    
   168   85   87 1    
   169   85  206 1    
   170   86  207 1    
   171   86  208 1    
   172   86  209 1    
   173   87   88 2    
   174   87   89 am   BACKBONE|DICT|INTERRES
   175   89   90 1    
   176   89  210 1    
   177   90   91 1    
   178   90   92 1    
   179   90  211 1    
   180   91  212 1    
   181   91  213 1    
   182   91  214 1    
   183   92   93 2    
   184   92   94 am   BACKBONE|DICT|INTERRES
   185   94   95 1    
   186   94  215 1    
   187   95   96 1    
   188   95   97 1    
   189   95  216 1    
   190   96  217 1    
   191   96  218 1    
   192   96  219 1    
   193   97   98 2    
   194   97   99 am   BACKBONE|DICT|INTERRES
   195   99  100 1    
   196   99  220 1    
   197  100  101 1    
   198  100  102 1    
   199  100  221 1    
   200  101  222 1    
   201  101  223 1    
   202  101  224 1    
   203  102  103 2    
   204  102  104 am   BACKBONE|DICT|INTERRES
   205  104  105 1    
   206  104  225 1    
   207  105  106 1    
   208  105  107 1    
   209  105  226 1    
   210  106  227 1    
   211  106  228 1    
   212  106  229 1    
   213  107  108 2    
   214  107  109 am   BACKBONE|DICT|INTERRES
   215  109  110 1    
   216  109  230 1    
   217  110  111 1    
   218  110  112 1    
   219  110  231 1    
   220  111  232 1    
   221  111  233 1    
   222  111  234 1    
   223  112  113 2    
   224  112  114 am   BACKBONE|DICT|INTERRES
   225  114  115 1    
   226  114  235 1    
   227  115  116 1    
   228  115  117 1    
   229  115  236 1    
   230  116  237 1    
   231  116  238 1    
   232  116  239 1    
   233  117  118 2    
   234  117  119 am   BACKBONE|DICT|INTERRES
   235  119  120 1    
   236  119  240 1    
   237  120  121 1    
   238  120  124 1    
   239  120  241 1    
   240  121  122 am   BACKBONE|DICT|INTERRES
   241  121  123 2    
   242  122  242 1    
   243  122  243 1    
   244  124  125 1    
   245  124  244 1    
   246  124  245 1    
   247  125  126 1    
   248  126  246 1    
   249  126  247 1    
@<TRIPOS>SUBSTRUCTURE
     1 UNK         1 GROUP             0       ****    0 ROOT    
