@<TRIPOS>MOLECULE
3R540
247   249    1
SMALL
USER_CHARGES


@<TRIPOS>ATOM
      1 CA         -4.7279  -18.0866  -49.1190 C.3       0 UNK        -0.1800 
      2 C          -3.7173  -16.9576  -48.9689 C.2       0 UNK         0.5000 
      3 O          -3.6546  -16.0796  -49.8291 O.2       0 UNK        -0.5000 
      4 N          -2.9229  -16.9816  -47.8912 N.am      1 UNK        -0.5000 
      5 CA         -1.9197  -15.9639  -47.5554 C.3       1 UNK         0.1400 
      6 C6         -1.0510  -16.3764  -46.3402 C.3       23 UNK        -0.0398 
      7 S7         -0.1754  -17.9563  -46.5909 S.3       23 UNK        -0.2404 
      8 C8          1.3650  -17.4122  -47.3957 C.3       23 UNK        -0.0205 
      9 C9          1.5577  -18.1188  -48.7269 C.ar      23 UNK        -0.0193 
     10 C10         1.2661  -17.4712  -49.9295 C.ar      23 UNK        -0.1150 
     11 C11         1.4256  -18.1346  -51.1510 C.ar      23 UNK        -0.0193 
     12 C12         1.8424  -19.4705  -51.1581 C.ar      23 UNK        -0.1150 
     13 C13         2.1202  -20.1333  -49.9593 C.ar      23 UNK        -0.0193 
     14 C14         2.0183  -19.4352  -48.7531 C.ar      23 UNK        -0.1150 
     15 C15         2.5132  -21.6042  -49.9623 C.3       23 UNK        -0.0205 
     16 S16         1.0825  -22.6900  -49.6317 S.3       23 UNK        -0.2404 
     17 C17         0.7983  -22.3366  -47.8674 C.3       23 UNK        -0.0398 
     18 CA         -0.2224  -23.2596  -47.1660 C.3       11 UNK         0.1400 
     19 N           0.0830  -23.3488  -45.7363 N.am      11 UNK        -0.5000 
     20 C          -0.4789  -24.1989  -44.8661 C.2       10 UNK         0.5000 
     21 O          -1.3072  -25.0497  -45.1838 O.2       10 UNK        -0.5000 
     22 CA         -0.0910  -24.0325  -43.3819 C.3       10 UNK         0.1400 
     23 CB          1.1127  -24.9221  -43.0397 C.3       10 UNK        -0.1800 
     24 N           0.2170  -22.6468  -43.0206 N.am      10 UNK        -0.5000 
     25 C          -0.6343  -21.6167  -43.1307 C.2       9 UNK         0.5000 
     26 O          -1.8159  -21.7502  -43.4487 O.2       9 UNK        -0.5000 
     27 CA         -0.0619  -20.2007  -42.9200 C.3       9 UNK         0.1400 
     28 CB         -0.4354  -19.6646  -41.5306 C.3       9 UNK        -0.1800 
     29 N           1.3912  -20.1041  -43.0941 N.am      9 UNK        -0.5000 
     30 C           2.0726  -20.3587  -44.2194 C.2       8 UNK         0.5000 
     31 O           1.5362  -20.7816  -45.2437 O.2       8 UNK        -0.5000 
     32 CA          3.6021  -20.1357  -44.1800 C.3       8 UNK         0.1400 
     33 CB          4.2380  -20.1464  -45.5817 C.3       8 UNK        -0.1800 
     34 N           3.9960  -18.8984  -43.5012 N.am      8 UNK        -0.5000 
     35 C           4.0047  -18.6768  -42.1824 C.2       7 UNK         0.5000 
     36 O           3.6336  -19.5135  -41.3584 O.2       7 UNK        -0.5000 
     37 CA          4.4634  -17.2911  -41.6909 C.3       7 UNK         0.1400 
     38 CB          5.9851  -17.2611  -41.4552 C.3       7 UNK        -0.1800 
     39 N           4.0260  -16.1576  -42.5168 N.am      7 UNK        -0.5000 
     40 C           4.4026  -15.8040  -43.7567 C.2       6 UNK         0.5000 
     41 O           5.1580  -16.4781  -44.4574 O.2       6 UNK        -0.5000 
     42 CA          3.8308  -14.4870  -44.3275 C.3       6 UNK         0.1400 
     43 CB          2.7929  -14.7850  -45.4191 C.3       6 UNK        -0.1800 
     44 N           3.2148  -13.6292  -43.3132 N.am      6 UNK        -0.5000 
     45 C           3.8846  -12.9749  -42.3512 C.2       5 UNK         0.5000 
     46 O           5.1136  -12.9241  -42.2957 O.2       5 UNK        -0.5000 
     47 CA          3.0535  -12.2916  -41.2435 C.3       5 UNK         0.1400 
     48 CB          3.0346  -10.7690  -41.4497 C.3       5 UNK        -0.1800 
     49 N           1.6706  -12.7668  -41.1461 N.am      5 UNK        -0.5000 
     50 C           1.2732  -14.0219  -40.8867 C.2       4 UNK         0.5000 
     51 O           2.0484  -14.9445  -40.6340 O.2       4 UNK        -0.5000 
     52 CA         -0.2404  -14.3037  -40.9897 C.3       4 UNK         0.1400 
     53 CB         -0.8764  -14.3465  -39.5925 C.3       4 UNK        -0.1800 
     54 N          -0.9595  -13.3264  -41.8169 N.am      4 UNK        -0.5000 
     55 C          -0.7752  -13.1581  -43.1331 C.2       3 UNK         0.5000 
     56 O          -0.0003  -13.8399  -43.8109 O.2       3 UNK        -0.5000 
     57 CA         -1.5297  -11.9914  -43.7815 C.3       3 UNK         0.1400 
     58 CB         -0.8172  -10.6569  -43.4903 C.3       3 UNK        -0.1800 
     59 N          -1.5861  -12.2246  -45.2179 N.am      3 UNK        -0.5000 
     60 C          -2.4456  -11.6623  -46.0739 C.2       2 UNK         0.5000 
     61 O          -3.2819  -10.8179  -45.7501 O.2       2 UNK        -0.5000 
     62 CA         -2.3688  -12.1313  -47.5405 C.3       2 UNK         0.1400 
     63 CB         -1.4552  -11.2009  -48.3533 C.3       2 UNK        -0.1800 
     64 N          -1.9024  -13.5132  -47.6963 N.am      2 UNK        -0.5000 
     65 C          -2.5793  -14.5945  -47.2853 C.2       1 UNK         0.5000 
     66 O          -3.6613  -14.5418  -46.6945 O.2       1 UNK        -0.5000 
     67 C          -1.6647  -22.7636  -47.4080 C.2       11 UNK         0.5000 
     68 O          -2.3249  -23.2280  -48.3377 O.2       11 UNK        -0.5000 
     69 N          -2.1348  -21.8413  -46.5557 N.am      12 UNK        -0.5000 
     70 CA         -3.5045  -21.3345  -46.5647 C.3       12 UNK         0.1400 
     71 CB         -3.5679  -19.9924  -45.8204 C.3       12 UNK        -0.1800 
     72 C          -4.4815  -22.3510  -45.9544 C.2       12 UNK         0.5000 
     73 O          -5.5561  -22.5608  -46.5146 O.2       12 UNK        -0.5000 
     74 N          -4.0776  -22.9946  -44.8489 N.am      13 UNK        -0.5000 
     75 CA         -4.8473  -24.0326  -44.1557 C.3       13 UNK         0.1400 
     76 CB         -4.1421  -24.4046  -42.8435 C.3       13 UNK        -0.1800 
     77 C          -5.0861  -25.2864  -45.0197 C.2       13 UNK         0.5000 
     78 O          -6.1854  -25.8404  -44.9988 O.2       13 UNK        -0.5000 
     79 N          -4.0677  -25.6826  -45.7955 N.am      14 UNK        -0.5000 
     80 CA         -4.1349  -26.7582  -46.7880 C.3       14 UNK         0.1400 
     81 CB         -2.7033  -27.2112  -47.1183 C.3       14 UNK        -0.1800 
     82 C          -4.8719  -26.3550  -48.0825 C.2       14 UNK         0.5000 
     83 O          -5.1333  -27.2234  -48.9152 O.2       14 UNK        -0.5000 
     84 N          -5.1594  -25.0538  -48.2437 N.am      15 UNK        -0.5000 
     85 CA         -5.7557  -24.3972  -49.4119 C.3       15 UNK         0.1400 
     86 CB         -7.1841  -24.9147  -49.6782 C.3       15 UNK        -0.1800 
     87 C          -4.8628  -24.4403  -50.6692 C.2       15 UNK         0.5000 
     88 O          -5.3547  -24.2159  -51.7741 O.2       15 UNK        -0.5000 
     89 N          -3.5580  -24.6768  -50.4883 N.am      16 UNK        -0.5000 
     90 CA         -2.5537  -24.6896  -51.5484 C.3       16 UNK         0.1400 
     91 CB         -1.2659  -25.3390  -51.0226 C.3       16 UNK        -0.1800 
     92 C          -2.2904  -23.2792  -52.1012 C.2       16 UNK         0.5000 
     93 O          -2.2050  -23.1146  -53.3170 O.2       16 UNK        -0.5000 
     94 N          -2.2409  -22.2784  -51.2095 N.am      17 UNK        -0.5000 
     95 CA         -2.1202  -20.8610  -51.5688 C.3       17 UNK         0.1400 
     96 CB         -1.8278  -20.0381  -50.3046 C.3       17 UNK        -0.1800 
     97 C          -3.3745  -20.3244  -52.2893 C.2       17 UNK         0.5000 
     98 O          -3.2684  -19.4356  -53.1373 O.2       17 UNK        -0.5000 
     99 N          -4.5416  -20.8895  -51.9486 N.am      18 UNK        -0.5000 
    100 CA        -5.8215  -20.5996  -52.5906 C.3       18 UNK         0.1400 
    101 CB        -6.9735  -21.0340  -51.6720 C.3       18 UNK        -0.1800 
    102 C         -5.9242  -21.2650  -53.9744 C.2       18 UNK         0.5000 
    103 O         -6.3420  -20.6076  -54.9263 O.2       18 UNK        -0.5000 
    104 N         -5.4998  -22.5335  -54.0785 N.am      19 UNK        -0.5000 
    105 CA        -5.4376  -23.3001  -55.3272 C.3       19 UNK         0.1400 
    106 CB        -5.0990  -24.7654  -55.0154 C.3       19 UNK        -0.1800 
    107 C         -4.4367  -22.7167  -56.3421 C.2       19 UNK         0.5000 
    108 O         -4.7223  -22.7027  -57.5398 O.2       19 UNK        -0.5000 
    109 N         -3.3045  -22.2039  -55.8405 N.am      20 UNK        -0.5000 
    110 CA        -2.3079  -21.4518  -56.6068 C.3       20 UNK         0.1400 
    111 CB        -1.0205  -21.3474  -55.7741 C.3       20 UNK        -0.1800 
    112 C         -2.7864  -20.0449  -57.0230 C.2       20 UNK         0.5000 
    113 O         -2.1517  -19.4257  -57.8776 O.2       20 UNK        -0.5000 
    114 N         -3.8785  -19.5662  -56.4065 N.am      21 UNK        -0.5000 
    115 CA        -4.5128  -18.2564  -56.5796 C.3       21 UNK         0.1400 
    116 CB        -5.0935  -18.1114  -58.0017 C.3       21 UNK        -0.1800 
    117 C         -3.6012  -17.0805  -56.1735 C.2       21 UNK         0.5000 
    118 O         -3.7396  -15.9821  -56.7158 O.2       21 UNK        -0.5000 
    119 N         -2.6908  -17.3316  -55.2256 N.am      22 UNK        -0.5000 
    120 CA        -1.7419  -16.3492  -54.6861 C.3       22 UNK         0.1400 
    121 C         -2.1234  -15.8405  -53.2664 C.2       22 UNK         0.5000 
    122 N         -2.9891  -16.5304  -52.5339 N.am      22 UNK        -0.7600 
    123 O         -1.6352  -14.7996  -52.8353 O.2       22 UNK        -0.5000 
    124 C124       -0.2881  -16.8829  -54.7613 C.3       23 UNK        -0.0398 
    125 S125        0.0780  -18.2531  -53.6056 S.3       23 UNK        -0.2404 
    126 C126        1.1857  -17.3819  -52.4518 C.3       23 UNK        -0.0205 
    127 H127       -4.6645  -18.5170  -50.1180 H         1 UNK         0.0600 
    128 H128       -5.7387  -17.7044  -48.9779 H         1 UNK         0.0600 
    129 H129       -4.5596  -18.8828  -48.3953 H         1 UNK         0.0600 
    130 H130       -3.0241  -17.7223  -47.2152 H         1 UNK         0.3000 
    131 H131       -1.2655  -15.8607  -48.4239 H         1 UNK         0.0600 
    132 H132       -0.3208  -15.6023  -46.0981 H         1 UNK         0.0800 
    133 H133       -1.6730  -16.4825  -45.4494 H         1 UNK         0.0800 
    134 H134        2.2048  -17.6302  -46.7351 H         1 UNK         0.0800 
    135 H135        1.3631  -16.3323  -47.5455 H         1 UNK         0.0800 
    136 H136        0.9255  -16.4456  -49.9143 H         1 UNK         0.1150 
    137 H137        1.9447  -19.9950  -52.0976 H         1 UNK         0.1150 
    138 H138        2.2517  -19.9297  -47.8217 H         1 UNK         0.1150 
    139 H139        3.2956  -21.7857  -49.2238 H         1 UNK         0.0800 
    140 H140        2.9403  -21.8740  -50.9292 H         1 UNK         0.0800 
    141 H141        0.4938  -21.2970  -47.7484 H         1 UNK         0.0800 
    142 H142        1.7707  -22.4232  -47.3800 H         1 UNK         0.0800 
    143 H143       -0.1376  -24.2664  -47.5804 H         1 UNK         0.0600 
    144 H144        0.7148  -22.6385  -45.3816 H         1 UNK         0.3000 
    145 H145       -0.9380  -24.3545  -42.7748 H         1 UNK         0.0600 
    146 H146        0.9054  -25.9666  -43.2766 H         1 UNK         0.0600 
    147 H147        1.3508  -24.8725  -41.9770 H         1 UNK         0.0600 
    148 H148        2.0024  -24.6287  -43.5983 H         1 UNK         0.0600 
    149 H149        1.1679  -22.4481  -42.7478 H         1 UNK         0.3000 
    150 H150       -0.5240  -19.5559  -43.6705 H         1 UNK         0.0600 
    151 H151        0.0284  -20.2508  -40.7364 H         1 UNK         0.0600 
    152 H152       -1.5149  -19.6957  -41.3760 H         1 UNK         0.0600 
    153 H153       -0.1208  -18.6276  -41.4106 H         1 UNK         0.0600 
    154 H154        1.9309  -19.8126  -42.2856 H         1 UNK         0.3000 
    155 H155        4.0211  -20.9768  -43.6242 H         1 UNK         0.0600 
    156 H156        5.3244  -20.0820  -45.5195 H         1 UNK         0.0600 
    157 H157        3.8906  -19.3078  -46.1848 H         1 UNK         0.0600 
    158 H158        4.0015  -21.0648  -46.1208 H         1 UNK         0.0600 
    159 H159        4.3319  -18.1425  -44.0912 H         1 UNK         0.3000 
    160 H160        3.9847  -17.1377  -40.7223 H         1 UNK         0.0600 
    161 H161        6.5452  -17.4344  -42.3744 H         1 UNK         0.0600 
    162 H162        6.2828  -18.0326  -40.7440 H         1 UNK         0.0600 
    163 H163        6.3010  -16.3017  -41.0451 H         1 UNK         0.0600 
    164 H164        3.3569  -15.5544  -42.0490 H         1 UNK         0.3000 
    165 H165        4.6584  -13.9384  -44.7816 H         1 UNK         0.0600 
    166 H166        2.3726  -13.8672  -45.8307 H         1 UNK         0.0600 
    167 H167        3.2488  -15.3320  -46.2449 H         1 UNK         0.0600 
    168 H168        1.9701  -15.3891  -45.0346 H         1 UNK         0.0600 
    169 H169        2.2025  -13.6131  -43.2988 H         1 UNK         0.3000 
    170 H170        3.5446  -12.5058  -40.2923 H         1 UNK         0.0600 
    171 H171        2.5236  -10.2650  -40.6291 H         1 UNK         0.0600 
    172 H172        2.5316  -10.4957  -42.3783 H         1 UNK         0.0600 
    173 H173        4.0476  -10.3668  -41.4945 H         1 UNK         0.0600 
    174 H174        0.9542  -12.0829  -41.3367 H         1 UNK         0.3000 
    175 H175       -0.3574  -15.2869  -41.4505 H         1 UNK         0.0600 
    176 H176       -0.3813  -15.0849  -38.9602 H         1 UNK         0.0600 
    177 H177       -0.8058  -13.3820  -39.0879 H         1 UNK         0.0600 
    178 H178       -1.9298  -14.6221  -39.6465 H         1 UNK         0.0600 
    179 H179       -1.6099  -12.7240  -41.3324 H         1 UNK         0.3000 
    180 H180       -2.5452  -11.9678  -43.3805 H         1 UNK         0.0600 
    181 H181        0.2008  -10.6526  -43.8823 H         1 UNK         0.0600 
    182 H182       -0.7586  -10.4653  -42.4184 H         1 UNK         0.0600 
    183 H183       -1.3488   -9.8163  -43.9363 H         1 UNK         0.0600 
    184 H184       -0.9425  -12.9335  -45.5451 H         1 UNK         0.3000 
    185 H185       -3.3763  -12.0687  -47.9573 H         1 UNK         0.0600 
    186 H186       -1.4576  -11.4690  -49.4100 H         1 UNK         0.0600 
    187 H187       -1.7899  -10.1651  -48.2819 H         1 UNK         0.0600 
    188 H188       -0.4245  -11.2376  -47.9982 H         1 UNK         0.0600 
    189 H189       -1.0239  -13.6337  -48.1792 H         1 UNK         0.3000 
    190 H190       -1.5454  -21.5368  -45.7939 H         1 UNK         0.3000 
    191 H191       -3.8028  -21.1611  -47.6006 H         1 UNK         0.0600 
    192 H192       -4.5594  -19.5464  -45.9073 H         1 UNK         0.0600 
    193 H193       -3.3544  -20.1015  -44.7574 H         1 UNK         0.0600 
    194 H194       -2.8503  -19.2844  -46.2298 H         1 UNK         0.0600 
    195 H195       -3.1979  -22.7168  -44.4234 H         1 UNK         0.3000 
    196 H196       -5.8224  -23.6077  -43.9086 H         1 UNK         0.0600 
    197 H197       -4.7510  -25.0942  -42.2578 H         1 UNK         0.0600 
    198 H198       -3.9597  -23.5246  -42.2263 H         1 UNK         0.0600 
    199 H199       -3.1852  -24.8918  -43.0277 H         1 UNK         0.0600 
    200 H200       -3.1661  -25.2249  -45.6913 H         1 UNK         0.3000 
    201 H201       -4.6715  -27.6037  -46.3529 H         1 UNK         0.0600 
    202 H202       -2.7051  -28.0405  -47.8268 H         1 UNK         0.0600 
    203 H203       -2.1813  -27.5514  -46.2238 H         1 UNK         0.0600 
    204 H204       -2.1188  -26.4027  -47.5601 H         1 UNK         0.0600 
    205 H205       -4.9248  -24.4277  -47.4839 H         1 UNK         0.3000 
    206 H206       -5.8380  -23.3421  -49.1485 H         1 UNK         0.0600 
    207 H207       -7.7937  -24.8688  -48.7758 H         1 UNK         0.0600 
    208 H208       -7.6845  -24.3119  -50.4367 H         1 UNK         0.0600 
    209 H209       -7.1840  -25.9455  -50.0329 H         1 UNK         0.0600 
    210 H210       -3.2119  -24.7254  -49.5382 H         1 UNK         0.3000 
    211 H211       -2.9298  -25.3033  -52.3694 H         1 UNK         0.0600 
    212 H212       -0.8908  -24.8294  -50.1357 H         1 UNK         0.0600 
    213 H213       -0.4776  -25.3153  -51.7760 H         1 UNK         0.0600 
    214 H214       -1.4341  -26.3830  -50.7581 H         1 UNK         0.0600 
    215 H215       -2.3017  -22.5087  -50.2230 H         1 UNK         0.3000 
    216 H216       -1.2736  -20.7519  -52.2496 H         1 UNK         0.0600 
    217 H217       -1.7322  -18.9773  -50.5420 H         1 UNK         0.0600 
    218 H218       -0.8914  -20.3459  -49.8408 H         1 UNK         0.0600 
    219 H219       -2.6168  -20.1438  -49.5607 H         1 UNK         0.0600 
    220 H220       -4.5302  -21.6305  -51.2655 H         1 UNK         0.3000 
    221 H221       -5.8980  -19.5192  -52.7326 H         1 UNK         0.0600 
    222 H222       -6.9722  -22.1088  -51.4950 H         1 UNK         0.0600 
    223 H223       -6.9159  -20.5342  -50.7048 H         1 UNK         0.0600 
    224 H224       -7.9376  -20.7780  -52.1129 H         1 UNK         0.0600 
    225 H225       -5.2389  -23.0359  -53.2341 H         1 UNK         0.3000 
    226 H226       -6.4284  -23.2703  -55.7851 H         1 UNK         0.0600 
    227 H227       -5.0668  -25.3624  -55.9276 H         1 UNK         0.0600 
    228 H228       -4.1287  -24.8581  -54.5269 H         1 UNK         0.0600 
    229 H229       -5.8475  -25.2123  -54.3608 H         1 UNK         0.0600 
    230 H230       -3.1031  -22.3402  -54.8536 H         1 UNK         0.3000 
    231 H231       -2.0836  -22.0065  -57.5201 H         1 UNK         0.0600 
    232 H232       -1.1961  -20.8266  -54.8322 H         1 UNK         0.0600 
    233 H233       -0.2447  -20.8005  -56.3114 H         1 UNK         0.0600 
    234 H234       -0.6201  -22.3340  -55.5407 H         1 UNK         0.0600 
    235 H235       -4.3315  -20.1658  -55.7293 H         1 UNK         0.3000 
    236 H236       -5.3505  -18.2339  -55.8817 H         1 UNK         0.0600 
    237 H237       -4.3090  -18.0500  -58.7564 H         1 UNK         0.0600 
    238 H238       -5.7352  -18.9563  -58.2518 H         1 UNK         0.0600 
    239 H239       -5.7000  -17.2091  -58.0870 H         1 UNK         0.0600 
    240 H240       -2.6776  -18.2454  -54.7870 H         1 UNK         0.3000 
    241 H241       -1.7652  -15.4588  -55.3168 H         1 UNK         0.0600 
    242 H242       -3.2264  -16.2113  -51.5974 H         1 UNK         0.3800 
    243 H243       -3.3146  -17.4343  -52.8522 H         1 UNK         0.3800 
    244 H244        0.4133  -16.0635  -54.5968 H         1 UNK         0.0800 
    245 H245       -0.0818  -17.2351  -55.7730 H         1 UNK         0.0800 
    246 H246        0.7649  -16.3982  -52.2372 H         1 UNK         0.0800 
    247 H247        2.1450  -17.2089  -52.9410 H         1 UNK         0.0800 
@<TRIPOS>BOND
     1    1    2 1    
     2    1  127 1    
     3    1  128 1    
     4    1  129 1    
     5    2    3 2    
     6    2    4 am   BACKBONE|DICT|INTERRES
     7    4    5 1    
     8    4  130 1    
     9    5    6 1    
    10    5   65 1    
    11    5  131 1    
    12    6    7 1    
    13    6  132 1    
    14    6  133 1    
    15    7    8 1    
    16    8    9 1    
    17    8  134 1    
    18    8  135 1    
    19    9   10 ar   
    20    9   14 ar   
    21   10   11 ar   
    22   10  136 1    
    23   11   12 ar   
    24   11  126 1    
    25   12   13 ar   
    26   12  137 1    
    27   13   14 ar   
    28   13   15 1    
    29   14  138 1    
    30   15   16 1    
    31   15  139 1    
    32   15  140 1    
    33   16   17 1    
    34   17   18 1    
    35   17  141 1    
    36   17  142 1    
    37   18   19 1    
    38   18   67 1    
    39   18  143 1    
    40   19   20 am   BACKBONE|DICT|INTERRES
    41   19  144 1    
    42   20   21 2    
    43   20   22 1    
    44   22   23 1    
    45   22   24 1    
    46   22  145 1    
    47   23  146 1    
    48   23  147 1    
    49   23  148 1    
    50   24   25 am   BACKBONE|DICT|INTERRES
    51   24  149 1    
    52   25   26 2    
    53   25   27 1    
    54   27   28 1    
    55   27   29 1    
    56   27  150 1    
    57   28  151 1    
    58   28  152 1    
    59   28  153 1    
    60   29   30 am   BACKBONE|DICT|INTERRES
    61   29  154 1    
    62   30   31 2    
    63   30   32 1    
    64   32   33 1    
    65   32   34 1    
    66   32  155 1    
    67   33  156 1    
    68   33  157 1    
    69   33  158 1    
    70   34   35 am   BACKBONE|DICT|INTERRES
    71   34  159 1    
    72   35   36 2    
    73   35   37 1    
    74   37   38 1    
    75   37   39 1    
    76   37  160 1    
    77   38  161 1    
    78   38  162 1    
    79   38  163 1    
    80   39   40 am   BACKBONE|DICT|INTERRES
    81   39  164 1    
    82   40   41 2    
    83   40   42 1    
    84   42   43 1    
    85   42   44 1    
    86   42  165 1    
    87   43  166 1    
    88   43  167 1    
    89   43  168 1    
    90   44   45 am   BACKBONE|DICT|INTERRES
    91   44  169 1    
    92   45   46 2    
    93   45   47 1    
    94   47   48 1    
    95   47   49 1    
    96   47  170 1    
    97   48  171 1    
    98   48  172 1    
    99   48  173 1    
   100   49   50 am   BACKBONE|DICT|INTERRES
   101   49  174 1    
   102   50   51 2    
   103   50   52 1    
   104   52   53 1    
   105   52   54 1    
   106   52  175 1    
   107   53  176 1    
   108   53  177 1    
   109   53  178 1    
   110   54   55 am   BACKBONE|DICT|INTERRES
   111   54  179 1    
   112   55   56 2    
   113   55   57 1    
   114   57   58 1    
   115   57   59 1    
   116   57  180 1    
   117   58  181 1    
   118   58  182 1    
   119   58  183 1    
   120   59   60 am   BACKBONE|DICT|INTERRES
   121   59  184 1    
   122   60   61 2    
   123   60   62 1    
   124   62   63 1    
   125   62   64 1    
   126   62  185 1    
   127   63  186 1    
   128   63  187 1    
   129   63  188 1    
   130   64   65 am   BACKBONE|DICT|INTERRES
   131   64  189 1    
   132   65   66 2    
   133   67   68 2    
   134   67   69 am   BACKBONE|DICT|INTERRES
   135   69   70 1    
   136   69  190 1    
   137   70   71 1    
   138   70   72 1    
   139   70  191 1    
   140   71  192 1    
   141   71  193 1    
   142   71  194 1    
   143   72   73 2    
   144   72   74 am   BACKBONE|DICT|INTERRES
   145   74   75 1    
   146   74  195 1    
   147   75   76 1    
   148   75   77 1    
   149   75  196 1    
   150   76  197 1    
   151   76  198 1    
   152   76  199 1    
   153   77   78 2    
   154   77   79 am   BACKBONE|DICT|INTERRES
   155   79   80 1    
   156   79  200 1    
   157   80   81 1    
   158   80   82 1    
   159   80  201 1    
   160   81  202 1    
   161   81  203 1    
   162   81  204 1    
   163   82   83 2    
   164   82   84 am   BACKBONE|DICT|INTERRES
   165   84   85 1    
   166   84  205 1    
   167   85   86 1    
   168   85   87 1    
   169   85  206 1    
   170   86  207 1    
   171   86  208 1    
   172   86  209 1    
   173   87   88 2    
   174   87   89 am   BACKBONE|DICT|INTERRES
   175   89   90 1    
   176   89  210 1    
   177   90   91 1    
   178   90   92 1    
   179   90  211 1    
   180   91  212 1    
   181   91  213 1    
   182   91  214 1    
   183   92   93 2    
   184   92   94 am   BACKBONE|DICT|INTERRES
   185   94   95 1    
   186   94  215 1    
   187   95   96 1    
   188   95   97 1    
   189   95  216 1    
   190   96  217 1    
   191   96  218 1    
   192   96  219 1    
   193   97   98 2    
   194   97   99 am   BACKBONE|DICT|INTERRES
   195   99  100 1    
   196   99  220 1    
   197  100  101 1    
   198  100  102 1    
   199  100  221 1    
   200  101  222 1    
   201  101  223 1    
   202  101  224 1    
   203  102  103 2    
   204  102  104 am   BACKBONE|DICT|INTERRES
   205  104  105 1    
   206  104  225 1    
   207  105  106 1    
   208  105  107 1    
   209  105  226 1    
   210  106  227 1    
   211  106  228 1    
   212  106  229 1    
   213  107  108 2    
   214  107  109 am   BACKBONE|DICT|INTERRES
   215  109  110 1    
   216  109  230 1    
   217  110  111 1    
   218  110  112 1    
   219  110  231 1    
   220  111  232 1    
   221  111  233 1    
   222  111  234 1    
   223  112  113 2    
   224  112  114 am   BACKBONE|DICT|INTERRES
   225  114  115 1    
   226  114  235 1    
   227  115  116 1    
   228  115  117 1    
   229  115  236 1    
   230  116  237 1    
   231  116  238 1    
   232  116  239 1    
   233  117  118 2    
   234  117  119 am   BACKBONE|DICT|INTERRES
   235  119  120 1    
   236  119  240 1    
   237  120  121 1    
   238  120  124 1    
   239  120  241 1    
   240  121  122 am   BACKBONE|DICT|INTERRES
   241  121  123 2    
   242  122  242 1    
   243  122  243 1    
   244  124  125 1    
   245  124  244 1    
   246  124  245 1    
   247  125  126 1    
   248  126  246 1    
   249  126  247 1    
@<TRIPOS>SUBSTRUCTURE
     1 UNK         1 GROUP             0       ****    0 ROOT    
