@<TRIPOS>MOLECULE
3R540
247   249    1
SMALL
USER_CHARGES


@<TRIPOS>ATOM
      1 CA         -4.5522  -13.9723  -48.6493 C.3       0 UNK        -0.1800 
      2 C          -3.2574  -13.1833  -48.5149 C.2       0 UNK         0.5000 
      3 O          -3.1812  -12.0456  -48.9802 O.2       0 UNK        -0.5000 
      4 N          -2.2403  -13.7839  -47.8861 N.am      1 UNK        -0.5000 
      5 CA         -0.9430  -13.1619  -47.6049 C.3       1 UNK         0.1400 
      6 C6          0.1148  -14.2112  -47.1842 C.3       23 UNK        -0.0398 
      7 S7          0.5720  -15.3018  -48.5686 S.3       23 UNK        -0.2404 
      8 C8         -0.0868  -16.9067  -48.0257 C.3       23 UNK        -0.0205 
      9 C9          0.2585  -17.9804  -49.0430 C.ar      23 UNK        -0.0193 
     10 C10        -0.6661  -18.3555  -50.0215 C.ar      23 UNK        -0.1150 
     11 C11        -0.3294  -19.3073  -50.9892 C.ar      23 UNK        -0.0193 
     12 C12         0.9454  -19.8837  -50.9697 C.ar      23 UNK        -0.1150 
     13 C13         1.8801  -19.5190  -49.9943 C.ar      23 UNK        -0.0193 
     14 C14         1.5257  -18.5678  -49.0323 C.ar      23 UNK        -0.1150 
     15 C15         3.2866  -20.1119  -50.0245 C.3       23 UNK        -0.0205 
     16 S16         3.8865  -20.6629  -48.3921 S.3       23 UNK        -0.2404 
     17 C17         2.6741  -21.9638  -48.0028 C.3       23 UNK        -0.0398 
     18 CA          3.2581  -23.0614  -47.0827 C.3       11 UNK         0.1400 
     19 N           3.5451  -22.5407  -45.7425 N.am      11 UNK        -0.5000 
     20 C           4.3282  -23.1453  -44.8396 C.2       10 UNK         0.5000 
     21 O           4.9478  -24.1872  -45.0562 O.2       10 UNK        -0.5000 
     22 CA          4.3948  -22.4939  -43.4466 C.3       10 UNK         0.1400 
     23 CB          5.3814  -21.3159  -43.4290 C.3       10 UNK        -0.1800 
     24 N           3.0762  -22.0415  -43.0012 N.am      10 UNK        -0.5000 
     25 C           2.0861  -22.8615  -42.6194 C.2       9 UNK         0.5000 
     26 O           2.2053  -24.0838  -42.5359 O.2       9 UNK        -0.5000 
     27 CA          0.7243  -22.2184  -42.3025 C.3       9 UNK         0.1400 
     28 CB          0.5722  -21.9916  -40.7908 C.3       9 UNK        -0.1800 
     29 N           0.5148  -20.9606  -43.0266 N.am      9 UNK        -0.5000 
     30 C           0.2018  -20.9111  -44.3293 C.2       8 UNK         0.5000 
     31 O           0.0821  -21.9138  -45.0323 O.2       8 UNK        -0.5000 
     32 CA          0.0298  -19.5283  -44.9805 C.3       8 UNK         0.1400 
     33 CB         -1.3865  -18.9799  -44.7546 C.3       8 UNK        -0.1800 
     34 N           1.0195  -18.5368  -44.5654 N.am      8 UNK        -0.5000 
     35 C           2.3335  -18.6445  -44.8089 C.2       7 UNK         0.5000 
     36 O           2.8618  -19.6626  -45.2554 O.2       7 UNK        -0.5000 
     37 CA          3.1953  -17.4121  -44.5002 C.3       7 UNK         0.1400 
     38 CB          2.9226  -16.2884  -45.5121 C.3       7 UNK        -0.1800 
     39 N           2.9250  -16.9295  -43.1495 N.am      7 UNK        -0.5000 
     40 C           3.6647  -17.2412  -42.0769 C.2       6 UNK         0.5000 
     41 O           4.7329  -17.8513  -42.1327 O.2       6 UNK        -0.5000 
     42 CA          3.1045  -16.8333  -40.6992 C.3       6 UNK         0.1400 
     43 CB          3.7124  -15.5021  -40.2347 C.3       6 UNK        -0.1800 
     44 N           1.6417  -16.7429  -40.6638 N.am      6 UNK        -0.5000 
     45 C           0.8197  -17.7850  -40.8587 C.2       5 UNK         0.5000 
     46 O           1.2129  -18.9235  -41.1030 O.2       5 UNK        -0.5000 
     47 CA         -0.6948  -17.5177  -40.8301 C.3       5 UNK         0.1400 
     48 CB         -1.2500  -17.7450  -39.4166 C.3       5 UNK        -0.1800 
     49 N          -1.0852  -16.1854  -41.2915 N.am      5 UNK        -0.5000 
     50 C          -0.7962  -15.6414  -42.4815 C.2       4 UNK         0.5000 
     51 O          -0.1081  -16.1977  -43.3429 O.2       4 UNK        -0.5000 
     52 CA         -1.3500  -14.2284  -42.7559 C.3       4 UNK         0.1400 
     53 CB         -2.1669  -13.6202  -41.5934 C.3       4 UNK        -0.1800 
     54 N          -0.2943  -13.3032  -43.1664 N.am      4 UNK        -0.5000 
     55 C           0.8302  -12.9969  -42.4998 C.2       3 UNK         0.5000 
     56 O           1.1235  -13.4714  -41.4014 O.2       3 UNK        -0.5000 
     57 CA          1.8039  -12.0049  -43.1725 C.3       3 UNK         0.1400 
     58 CB          3.0862  -12.7291  -43.6103 C.3       3 UNK        -0.1800 
     59 N           1.2316  -11.3351  -44.3425 N.am      3 UNK        -0.5000 
     60 C           0.3455  -10.3301  -44.3044 C.2       2 UNK         0.5000 
     61 O          -0.0226   -9.7793  -43.2667 O.2       2 UNK        -0.5000 
     62 CA         -0.2592   -9.8992  -45.6568 C.3       2 UNK         0.1400 
     63 CB          0.5361   -8.7285  -46.2541 C.3       2 UNK        -0.1800 
     64 N          -0.3233  -10.9897  -46.6389 N.am      2 UNK        -0.5000 
     65 C          -1.0800  -12.0887  -46.5080 C.2       1 UNK         0.5000 
     66 O          -1.8097  -12.3009  -45.5375 O.2       1 UNK        -0.5000 
     67 C           2.2954  -24.2681  -47.0566 C.2       11 UNK         0.5000 
     68 O           2.3229  -25.0682  -47.9919 O.2       11 UNK        -0.5000 
     69 N           1.4379  -24.3439  -46.0256 N.am      12 UNK        -0.5000 
     70 CA          0.2262  -25.1717  -45.9429 C.3       12 UNK         0.1400 
     71 CB          0.5589  -26.6782  -45.9391 C.3       12 UNK        -0.1800 
     72 C          -0.7859  -24.7577  -47.0346 C.2       12 UNK         0.5000 
     73 O          -1.3328  -25.5984  -47.7506 O.2       12 UNK        -0.5000 
     74 N          -0.9564  -23.4376  -47.1640 N.am      13 UNK        -0.5000 
     75 CA         -1.7327  -22.7620  -48.1933 C.3       13 UNK         0.1400 
     76 CB         -1.3508  -21.2747  -48.1706 C.3       13 UNK        -0.1800 
     77 C          -3.2486  -22.8960  -47.9937 C.2       13 UNK         0.5000 
     78 O          -3.7202  -23.0098  -46.8598 O.2       13 UNK        -0.5000 
     79 N          -3.9848  -22.7821  -49.1060 N.am      14 UNK        -0.5000 
     80 CA         -5.4241  -22.5241  -49.1062 C.3       14 UNK         0.1400 
     81 CB         -6.0050  -22.8981  -50.4764 C.3       14 UNK        -0.1800 
     82 C          -5.7113  -21.0467  -48.7750 C.2       14 UNK         0.5000 
     83 O          -6.6537  -20.7611  -48.0364 O.2       14 UNK        -0.5000 
     84 N          -4.8691  -20.1494  -49.3147 N.am      15 UNK        -0.5000 
     85 CA         -4.7618  -18.7002  -49.0947 C.3       15 UNK         0.1400 
     86 CB         -4.3622  -18.3954  -47.6388 C.3       15 UNK        -0.1800 
     87 C          -5.9769  -17.8580  -49.5343 C.2       15 UNK         0.5000 
     88 O          -5.7890  -16.8332  -50.1894 O.2       15 UNK        -0.5000 
     89 N          -7.1906  -18.2895  -49.1752 N.am      16 UNK        -0.5000 
     90 CA         -8.4545  -17.6599  -49.5633 C.3       16 UNK         0.1400 
     91 CB         -9.5499  -18.0927  -48.5768 C.3       16 UNK        -0.1800 
     92 C          -8.8623  -18.0042  -51.0087 C.2       16 UNK         0.5000 
     93 O          -9.5498  -17.2116  -51.6542 O.2       16 UNK        -0.5000 
     94 N          -8.4311  -19.1787  -51.4842 N.am      17 UNK        -0.5000 
     95 CA         -8.5912  -19.6460  -52.8594 C.3       17 UNK         0.1400 
     96 CB         -8.6311  -21.1838  -52.8410 C.3       17 UNK        -0.1800 
     97 C          -7.4463  -19.1327  -53.7556 C.2       17 UNK         0.5000 
     98 O          -6.5280  -18.4625  -53.2756 O.2       17 UNK        -0.5000 
     99 N          -7.5108  -19.4780  -55.0485 N.am      18 UNK        -0.5000 
    100 CA        -6.4496  -19.2399  -56.0299 C.3       18 UNK         0.1400 
    101 CB        -6.9458  -19.6837  -57.4147 C.3       18 UNK        -0.1800 
    102 C         -5.1502  -19.9847  -55.6661 C.2       18 UNK         0.5000 
    103 O         -5.2083  -21.0533  -55.0541 O.2       18 UNK        -0.5000 
    104 N         -4.0042  -19.4262  -56.0785 N.am      19 UNK        -0.5000 
    105 CA        -2.6589  -19.8897  -55.7168 C.3       19 UNK         0.1400 
    106 CB        -1.6165  -18.9358  -56.3181 C.3       19 UNK        -0.1800 
    107 C         -2.3379  -21.3496  -56.0934 C.2       19 UNK         0.5000 
    108 O         -1.5062  -21.9724  -55.4342 O.2       19 UNK        -0.5000 
    109 N         -3.0290  -21.8862  -57.1082 N.am      20 UNK        -0.5000 
    110 CA        -2.9624  -23.2899  -57.5191 C.3       20 UNK         0.1400 
    111 CB        -3.7800  -23.4716  -58.8068 C.3       20 UNK        -0.1800 
    112 C         -3.4419  -24.2759  -56.4329 C.2       20 UNK         0.5000 
    113 O         -2.9558  -25.4068  -56.3899 O.2       20 UNK        -0.5000 
    114 N         -4.3575  -23.8329  -55.5577 N.am      21 UNK        -0.5000 
    115 CA        -4.8718  -24.6171  -54.4329 C.3       21 UNK         0.1400 
    116 CB        -6.1998  -24.0087  -53.9583 C.3       21 UNK        -0.1800 
    117 C         -3.8726  -24.7246  -53.2636 C.2       21 UNK         0.5000 
    118 O         -4.0354  -25.6038  -52.4173 O.2       21 UNK        -0.5000 
    119 N         -2.8582  -23.8491  -53.2343 N.am      22 UNK        -0.5000 
    120 CA        -1.7620  -23.8700  -52.2526 C.3       22 UNK         0.1400 
    121 C         -0.6755  -24.9504  -52.5357 C.2       22 UNK         0.5000 
    122 N         -0.7101  -25.6633  -53.6562 N.am      22 UNK        -0.7600 
    123 O          0.2163  -25.1502  -51.7169 O.2       22 UNK        -0.5000 
    124 C124       -1.1095  -22.4741  -52.0716 C.3       23 UNK        -0.0398 
    125 S125       -2.3072  -21.1506  -51.6848 S.3       23 UNK        -0.2404 
    126 C126       -1.3249  -19.6685  -52.0842 C.3       23 UNK        -0.0205 
    127 H127       -5.3729  -13.4317  -48.1782 H         1 UNK         0.0600 
    128 H128       -4.4803  -14.9542  -48.1817 H         1 UNK         0.0600 
    129 H129       -4.7970  -14.1165  -49.7016 H         1 UNK         0.0600 
    130 H130       -2.3736  -14.7078  -47.5051 H         1 UNK         0.3000 
    131 H131       -0.5996  -12.6698  -48.5179 H         1 UNK         0.0600 
    132 H132       -0.2345  -14.8020  -46.3347 H         1 UNK         0.0800 
    133 H133        1.0348  -13.7244  -46.8552 H         1 UNK         0.0800 
    134 H134        0.3347  -17.1680  -47.0547 H         1 UNK         0.0800 
    135 H135       -1.1674  -16.8386  -47.8925 H         1 UNK         0.0800 
    136 H136       -1.6394  -17.8879  -50.0437 H         1 UNK         0.1150 
    137 H137        1.2167  -20.6020  -51.7301 H         1 UNK         0.1150 
    138 H138        2.2471  -18.2643  -48.2870 H         1 UNK         0.1150 
    139 H139        3.3378  -20.9520  -50.7188 H         1 UNK         0.0800 
    140 H140        3.9709  -19.3546  -50.4086 H         1 UNK         0.0800 
    141 H141        1.8075  -21.4947  -47.5348 H         1 UNK         0.0800 
    142 H142        2.3235  -22.3933  -48.9438 H         1 UNK         0.0800 
    143 H143        4.1952  -23.4125  -47.5206 H         1 UNK         0.0600 
    144 H144        3.1409  -21.6375  -45.5127 H         1 UNK         0.3000 
    145 H145        4.7563  -23.2454  -42.7414 H         1 UNK         0.0600 
    146 H146        5.4512  -20.8742  -42.4347 H         1 UNK         0.0600 
    147 H147        5.0899  -20.5277  -44.1232 H         1 UNK         0.0600 
    148 H148        6.3826  -21.6442  -43.7105 H         1 UNK         0.0600 
    149 H149        2.8838  -21.0526  -43.0725 H         1 UNK         0.3000 
    150 H150       -0.0528  -22.9222  -42.6090 H         1 UNK         0.0600 
    151 H151        0.5638  -22.9427  -40.2571 H         1 UNK         0.0600 
    152 H152       -0.3603  -21.4778  -40.5566 H         1 UNK         0.0600 
    153 H153        1.3947  -21.4023  -40.3847 H         1 UNK         0.0600 
    154 H154        0.6639  -20.1044  -42.4998 H         1 UNK         0.3000 
    155 H155        0.1626  -19.6660  -46.0553 H         1 UNK         0.0600 
    156 H156       -2.1422  -19.6940  -45.0843 H         1 UNK         0.0600 
    157 H157       -1.5462  -18.0574  -45.3131 H         1 UNK         0.0600 
    158 H158       -1.5741  -18.7694  -43.7029 H         1 UNK         0.0600 
    159 H159        0.6547  -17.6753  -44.1664 H         1 UNK         0.3000 
    160 H160        4.2424  -17.7053  -44.6027 H         1 UNK         0.0600 
    161 H161        1.9213  -15.8727  -45.3977 H         1 UNK         0.0600 
    162 H162        3.0156  -16.6498  -46.5371 H         1 UNK         0.0600 
    163 H163        3.6397  -15.4771  -45.3927 H         1 UNK         0.0600 
    164 H164        2.0388  -16.4624  -43.0027 H         1 UNK         0.3000 
    165 H165        3.4030  -17.6061  -39.9877 H         1 UNK         0.0600 
    166 H166        3.3677  -15.2369  -39.2352 H         1 UNK         0.0600 
    167 H167        4.8008  -15.5619  -40.1982 H         1 UNK         0.0600 
    168 H168        3.4524  -14.6856  -40.9070 H         1 UNK         0.0600 
    169 H169        1.2436  -15.8241  -40.5207 H         1 UNK         0.3000 
    170 H170       -1.1637  -18.2445  -41.4943 H         1 UNK         0.0600 
    171 H171       -0.9963  -18.7418  -39.0527 H         1 UNK         0.0600 
    172 H172       -0.8470  -17.0231  -38.7052 H         1 UNK         0.0600 
    173 H173       -2.3369  -17.6628  -39.4007 H         1 UNK         0.0600 
    174 H174       -1.6335  -15.6364  -40.6456 H         1 UNK         0.3000 
    175 H175       -2.0191  -14.3312  -43.6111 H         1 UNK         0.0600 
    176 H176       -1.5682  -13.4930  -40.6906 H         1 UNK         0.0600 
    177 H177       -2.5552  -12.6393  -41.8682 H         1 UNK         0.0600 
    178 H178       -3.0277  -14.2418  -41.3438 H         1 UNK         0.0600 
    179 H179       -0.4668  -12.8420  -44.0505 H         1 UNK         0.3000 
    180 H180        2.0703  -11.2506  -42.4293 H         1 UNK         0.0600 
    181 H181        3.5781  -13.2085  -42.7639 H         1 UNK         0.0600 
    182 H182        3.8034  -12.0339  -44.0471 H         1 UNK         0.0600 
    183 H183        2.8743  -13.5019  -44.3485 H         1 UNK         0.0600 
    184 H184        1.4948  -11.7018  -45.2445 H         1 UNK         0.3000 
    185 H185       -1.2790   -9.5581  -45.4662 H         1 UNK         0.0600 
    186 H186        0.5810   -7.8907  -45.5568 H         1 UNK         0.0600 
    187 H187        1.5620   -9.0156  -46.4884 H         1 UNK         0.0600 
    188 H188        0.0715   -8.3620  -47.1697 H         1 UNK         0.0600 
    189 H189        0.2501  -10.8812  -47.4637 H         1 UNK         0.3000 
    190 H190        1.4882  -23.6036  -45.3379 H         1 UNK         0.3000 
    191 H191       -0.2397  -24.9359  -44.9849 H         1 UNK         0.0600 
    192 H192       -0.3340  -27.2699  -45.7350 H         1 UNK         0.0600 
    193 H193        1.2910  -26.9168  -45.1676 H         1 UNK         0.0600 
    194 H194        0.9573  -27.0142  -46.8964 H         1 UNK         0.0600 
    195 H195       -0.5260  -22.8376  -46.4637 H         1 UNK         0.3000 
    196 H196       -1.4616  -23.1882  -49.1600 H         1 UNK         0.0600 
    197 H197       -1.5239  -20.8375  -47.1886 H         1 UNK         0.0600 
    198 H198       -0.3043  -21.1270  -48.4317 H         1 UNK         0.0600 
    199 H199       -1.9436  -20.6963  -48.8767 H         1 UNK         0.0600 
    200 H200       -3.5159  -22.6945  -49.9959 H         1 UNK         0.3000 
    201 H201       -5.9022  -23.1471  -48.3471 H         1 UNK         0.0600 
    202 H202       -7.0856  -22.7525  -50.4917 H         1 UNK         0.0600 
    203 H203       -5.8169  -23.9463  -50.7098 H         1 UNK         0.0600 
    204 H204       -5.5745  -22.2945  -51.2765 H         1 UNK         0.0600 
    205 H205       -4.1720  -20.5138  -49.9483 H         1 UNK         0.3000 
    206 H206       -3.9329  -18.3805  -49.7273 H         1 UNK         0.0600 
    207 H207       -3.4345  -18.9019  -47.3721 H         1 UNK         0.0600 
    208 H208       -4.2013  -17.3272  -47.4921 H         1 UNK         0.0600 
    209 H209       -5.1306  -18.7101  -46.9322 H         1 UNK         0.0600 
    210 H210       -7.2396  -19.1489  -48.6316 H         1 UNK         0.3000 
    211 H211       -8.3437  -16.5755  -49.4967 H         1 UNK         0.0600 
    212 H212       -9.6958  -19.1736  -48.5864 H         1 UNK         0.0600 
    213 H213      -10.5054  -17.6289  -48.8253 H         1 UNK         0.0600 
    214 H214       -9.3006  -17.7972  -47.5575 H         1 UNK         0.0600 
    215 H215       -7.8275  -19.7281  -50.8926 H         1 UNK         0.3000 
    216 H216       -9.5357  -19.2757  -53.2636 H         1 UNK         0.0600 
    217 H217       -9.4007  -21.5525  -52.1625 H         1 UNK         0.0600 
    218 H218       -7.6763  -21.6007  -52.5241 H         1 UNK         0.0600 
    219 H219       -8.8526  -21.5906  -53.8282 H         1 UNK         0.0600 
    220 H220       -8.2822  -20.0490  -55.3602 H         1 UNK         0.3000 
    221 H221       -6.2446  -18.1677  -56.0532 H         1 UNK         0.0600 
    222 H222       -6.1947  -19.4905  -58.1817 H         1 UNK         0.0600 
    223 H223       -7.1713  -20.7509  -57.4381 H         1 UNK         0.0600 
    224 H224       -7.8476  -19.1432  -57.7032 H         1 UNK         0.0600 
    225 H225       -4.0480  -18.5644  -56.6032 H         1 UNK         0.3000 
    226 H226       -2.5912  -19.8265  -54.6305 H         1 UNK         0.0600 
    227 H227       -0.6050  -19.2357  -56.0401 H         1 UNK         0.0600 
    228 H228       -1.6673  -18.9208  -57.4074 H         1 UNK         0.0600 
    229 H229       -1.7599  -17.9164  -55.9593 H         1 UNK         0.0600 
    230 H230       -3.6983  -21.3031  -57.5881 H         1 UNK         0.3000 
    231 H231       -1.9188  -23.5249  -57.7382 H         1 UNK         0.0600 
    232 H232       -3.7332  -24.5037  -59.1570 H         1 UNK         0.0600 
    233 H233       -3.3986  -22.8401  -59.6094 H         1 UNK         0.0600 
    234 H234       -4.8313  -23.2239  -58.6538 H         1 UNK         0.0600 
    235 H235       -4.6750  -22.8691  -55.6109 H         1 UNK         0.3000 
    236 H236       -5.0743  -25.6312  -54.7837 H         1 UNK         0.0600 
    237 H237       -6.9207  -23.9426  -54.7732 H         1 UNK         0.0600 
    238 H238       -6.6504  -24.6156  -53.1722 H         1 UNK         0.0600 
    239 H239       -6.0562  -23.0070  -53.5559 H         1 UNK         0.0600 
    240 H240       -2.7742  -23.1664  -53.9759 H         1 UNK         0.3000 
    241 H241       -2.1960  -24.1458  -51.2903 H         1 UNK         0.0600 
    242 H242       -1.4333  -25.5130  -54.3437 H         1 UNK         0.3800 
    243 H243       -0.0008  -26.3601  -53.8205 H         1 UNK         0.3800 
    244 H244       -0.5616  -22.2006  -52.9742 H         1 UNK         0.0800 
    245 H245       -0.3727  -22.5023  -51.2673 H         1 UNK         0.0800 
    246 H246       -0.7995  -19.8130  -53.0293 H         1 UNK         0.0800 
    247 H247       -2.0100  -18.8353  -52.2477 H         1 UNK         0.0800 
@<TRIPOS>BOND
     1    1    2 1    
     2    1  127 1    
     3    1  128 1    
     4    1  129 1    
     5    2    3 2    
     6    2    4 am   BACKBONE|DICT|INTERRES
     7    4    5 1    
     8    4  130 1    
     9    5    6 1    
    10    5   65 1    
    11    5  131 1    
    12    6    7 1    
    13    6  132 1    
    14    6  133 1    
    15    7    8 1    
    16    8    9 1    
    17    8  134 1    
    18    8  135 1    
    19    9   10 ar   
    20    9   14 ar   
    21   10   11 ar   
    22   10  136 1    
    23   11   12 ar   
    24   11  126 1    
    25   12   13 ar   
    26   12  137 1    
    27   13   14 ar   
    28   13   15 1    
    29   14  138 1    
    30   15   16 1    
    31   15  139 1    
    32   15  140 1    
    33   16   17 1    
    34   17   18 1    
    35   17  141 1    
    36   17  142 1    
    37   18   19 1    
    38   18   67 1    
    39   18  143 1    
    40   19   20 am   BACKBONE|DICT|INTERRES
    41   19  144 1    
    42   20   21 2    
    43   20   22 1    
    44   22   23 1    
    45   22   24 1    
    46   22  145 1    
    47   23  146 1    
    48   23  147 1    
    49   23  148 1    
    50   24   25 am   BACKBONE|DICT|INTERRES
    51   24  149 1    
    52   25   26 2    
    53   25   27 1    
    54   27   28 1    
    55   27   29 1    
    56   27  150 1    
    57   28  151 1    
    58   28  152 1    
    59   28  153 1    
    60   29   30 am   BACKBONE|DICT|INTERRES
    61   29  154 1    
    62   30   31 2    
    63   30   32 1    
    64   32   33 1    
    65   32   34 1    
    66   32  155 1    
    67   33  156 1    
    68   33  157 1    
    69   33  158 1    
    70   34   35 am   BACKBONE|DICT|INTERRES
    71   34  159 1    
    72   35   36 2    
    73   35   37 1    
    74   37   38 1    
    75   37   39 1    
    76   37  160 1    
    77   38  161 1    
    78   38  162 1    
    79   38  163 1    
    80   39   40 am   BACKBONE|DICT|INTERRES
    81   39  164 1    
    82   40   41 2    
    83   40   42 1    
    84   42   43 1    
    85   42   44 1    
    86   42  165 1    
    87   43  166 1    
    88   43  167 1    
    89   43  168 1    
    90   44   45 am   BACKBONE|DICT|INTERRES
    91   44  169 1    
    92   45   46 2    
    93   45   47 1    
    94   47   48 1    
    95   47   49 1    
    96   47  170 1    
    97   48  171 1    
    98   48  172 1    
    99   48  173 1    
   100   49   50 am   BACKBONE|DICT|INTERRES
   101   49  174 1    
   102   50   51 2    
   103   50   52 1    
   104   52   53 1    
   105   52   54 1    
   106   52  175 1    
   107   53  176 1    
   108   53  177 1    
   109   53  178 1    
   110   54   55 am   BACKBONE|DICT|INTERRES
   111   54  179 1    
   112   55   56 2    
   113   55   57 1    
   114   57   58 1    
   115   57   59 1    
   116   57  180 1    
   117   58  181 1    
   118   58  182 1    
   119   58  183 1    
   120   59   60 am   BACKBONE|DICT|INTERRES
   121   59  184 1    
   122   60   61 2    
   123   60   62 1    
   124   62   63 1    
   125   62   64 1    
   126   62  185 1    
   127   63  186 1    
   128   63  187 1    
   129   63  188 1    
   130   64   65 am   BACKBONE|DICT|INTERRES
   131   64  189 1    
   132   65   66 2    
   133   67   68 2    
   134   67   69 am   BACKBONE|DICT|INTERRES
   135   69   70 1    
   136   69  190 1    
   137   70   71 1    
   138   70   72 1    
   139   70  191 1    
   140   71  192 1    
   141   71  193 1    
   142   71  194 1    
   143   72   73 2    
   144   72   74 am   BACKBONE|DICT|INTERRES
   145   74   75 1    
   146   74  195 1    
   147   75   76 1    
   148   75   77 1    
   149   75  196 1    
   150   76  197 1    
   151   76  198 1    
   152   76  199 1    
   153   77   78 2    
   154   77   79 am   BACKBONE|DICT|INTERRES
   155   79   80 1    
   156   79  200 1    
   157   80   81 1    
   158   80   82 1    
   159   80  201 1    
   160   81  202 1    
   161   81  203 1    
   162   81  204 1    
   163   82   83 2    
   164   82   84 am   BACKBONE|DICT|INTERRES
   165   84   85 1    
   166   84  205 1    
   167   85   86 1    
   168   85   87 1    
   169   85  206 1    
   170   86  207 1    
   171   86  208 1    
   172   86  209 1    
   173   87   88 2    
   174   87   89 am   BACKBONE|DICT|INTERRES
   175   89   90 1    
   176   89  210 1    
   177   90   91 1    
   178   90   92 1    
   179   90  211 1    
   180   91  212 1    
   181   91  213 1    
   182   91  214 1    
   183   92   93 2    
   184   92   94 am   BACKBONE|DICT|INTERRES
   185   94   95 1    
   186   94  215 1    
   187   95   96 1    
   188   95   97 1    
   189   95  216 1    
   190   96  217 1    
   191   96  218 1    
   192   96  219 1    
   193   97   98 2    
   194   97   99 am   BACKBONE|DICT|INTERRES
   195   99  100 1    
   196   99  220 1    
   197  100  101 1    
   198  100  102 1    
   199  100  221 1    
   200  101  222 1    
   201  101  223 1    
   202  101  224 1    
   203  102  103 2    
   204  102  104 am   BACKBONE|DICT|INTERRES
   205  104  105 1    
   206  104  225 1    
   207  105  106 1    
   208  105  107 1    
   209  105  226 1    
   210  106  227 1    
   211  106  228 1    
   212  106  229 1    
   213  107  108 2    
   214  107  109 am   BACKBONE|DICT|INTERRES
   215  109  110 1    
   216  109  230 1    
   217  110  111 1    
   218  110  112 1    
   219  110  231 1    
   220  111  232 1    
   221  111  233 1    
   222  111  234 1    
   223  112  113 2    
   224  112  114 am   BACKBONE|DICT|INTERRES
   225  114  115 1    
   226  114  235 1    
   227  115  116 1    
   228  115  117 1    
   229  115  236 1    
   230  116  237 1    
   231  116  238 1    
   232  116  239 1    
   233  117  118 2    
   234  117  119 am   BACKBONE|DICT|INTERRES
   235  119  120 1    
   236  119  240 1    
   237  120  121 1    
   238  120  124 1    
   239  120  241 1    
   240  121  122 am   BACKBONE|DICT|INTERRES
   241  121  123 2    
   242  122  242 1    
   243  122  243 1    
   244  124  125 1    
   245  124  244 1    
   246  124  245 1    
   247  125  126 1    
   248  126  246 1    
   249  126  247 1    
@<TRIPOS>SUBSTRUCTURE
     1 UNK         1 GROUP             0       ****    0 ROOT    
