@<TRIPOS>MOLECULE
3R540
247   249    1
SMALL
USER_CHARGES


@<TRIPOS>ATOM
      1 CA          6.6776  -14.2279  -46.3932 C.3       0 UNK        -0.1800 
      2 C           5.8524  -13.9207  -47.6347 C.2       0 UNK         0.5000 
      3 O           6.1054  -12.9197  -48.3041 O.2       0 UNK        -0.5000 
      4 N           4.8589  -14.7708  -47.9285 N.am      1 UNK        -0.5000 
      5 CA          3.9421  -14.7059  -49.0793 C.3       1 UNK         0.1400 
      6 C6          4.6555  -14.8126  -50.4585 C.3       23 UNK        -0.0398 
      7 S7          5.3654  -16.4713  -50.7471 S.3       23 UNK        -0.2404 
      8 C8          4.2184  -17.1642  -51.9880 C.3       23 UNK        -0.0205 
      9 C9          2.9352  -17.6921  -51.3594 C.ar      23 UNK        -0.0193 
     10 C10         1.9118  -16.8137  -50.9981 C.ar      23 UNK        -0.1150 
     11 C11         0.7479  -17.2814  -50.3850 C.ar      23 UNK        -0.0193 
     12 C12         0.5879  -18.6555  -50.1721 C.ar      23 UNK        -0.1150 
     13 C13         1.5902  -19.5529  -50.5624 C.ar      23 UNK        -0.0193 
     14 C14         2.7629  -19.0625  -51.1463 C.ar      23 UNK        -0.1150 
     15 C15         1.3999  -21.0550  -50.3951 C.3       23 UNK        -0.0205 
     16 S16         2.5711  -21.7992  -49.2102 S.3       23 UNK        -0.2404 
     17 C17         1.8569  -21.2918  -47.6105 C.3       23 UNK        -0.0398 
     18 CA          1.0271  -22.4052  -46.9198 C.3       11 UNK         0.1400 
     19 N           0.7564  -22.0936  -45.5117 N.am      11 UNK        -0.5000 
     20 C           0.1174  -22.8973  -44.6471 C.2       10 UNK         0.5000 
     21 O          -0.2620  -24.0343  -44.9202 O.2       10 UNK        -0.5000 
     22 CA         -0.2072  -22.3182  -43.2591 C.3       10 UNK         0.1400 
     23 CB          1.0183  -22.3798  -42.3358 C.3       10 UNK        -0.1800 
     24 N          -0.7119  -20.9473  -43.3312 N.am      10 UNK        -0.5000 
     25 C          -1.8547  -20.5887  -43.9355 C.2       9 UNK         0.5000 
     26 O          -2.6439  -21.3906  -44.4356 O.2       9 UNK        -0.5000 
     27 CA         -2.1311  -19.0777  -44.0539 C.3       9 UNK         0.1400 
     28 CB         -2.6992  -18.5138  -42.7435 C.3       9 UNK        -0.1800 
     29 N          -0.9364  -18.3252  -44.4381 N.am      9 UNK        -0.5000 
     30 C          -0.2854  -18.4847  -45.5992 C.2       8 UNK         0.5000 
     31 O          -0.6634  -19.2330  -46.4991 O.2       8 UNK        -0.5000 
     32 CA          1.0423  -17.7286  -45.7605 C.3       8 UNK         0.1400 
     33 CB          0.7960  -16.2898  -46.2166 C.3       8 UNK        -0.1800 
     34 N           1.8252  -17.7253  -44.5266 N.am      8 UNK        -0.5000 
     35 C           2.4477  -18.8030  -44.0312 C.2       7 UNK         0.5000 
     36 O           2.4518  -19.9015  -44.5850 O.2       7 UNK        -0.5000 
     37 CA          3.1493  -18.6328  -42.6718 C.3       7 UNK         0.1400 
     38 CB          4.5488  -18.0279  -42.8591 C.3       7 UNK        -0.1800 
     39 N           2.3816  -17.8005  -41.7445 N.am      7 UNK        -0.5000 
     40 C           1.1902  -18.1376  -41.2297 C.2       6 UNK         0.5000 
     41 O           0.6300  -19.2100  -41.4502 O.2       6 UNK        -0.5000 
     42 CA          0.4841  -17.0764  -40.3652 C.3       6 UNK         0.1400 
     43 CB          0.9190  -17.1989  -38.8974 C.3       6 UNK        -0.1800 
     44 N           0.7206  -15.7070  -40.8313 N.am      6 UNK        -0.5000 
     45 C           0.3317  -15.2344  -42.0227 C.2       5 UNK         0.5000 
     46 O          -0.2648  -15.9110  -42.8638 O.2       5 UNK        -0.5000 
     47 CA          0.7537  -13.7922  -42.3488 C.3       5 UNK         0.1400 
     48 CB          2.1309  -13.7903  -43.0323 C.3       5 UNK        -0.1800 
     49 N          -0.2161  -13.1195  -43.2128 N.am      5 UNK        -0.5000 
     50 C          -1.4111  -12.6716  -42.7997 C.2       4 UNK         0.5000 
     51 O          -1.8054  -12.7771  -41.6369 O.2       4 UNK        -0.5000 
     52 CA         -2.3139  -11.9527  -43.8256 C.3       4 UNK         0.1400 
     53 CB         -2.2815  -10.4338  -43.5929 C.3       4 UNK        -0.1800 
     54 N          -1.9542  -12.2160  -45.2183 N.am      4 UNK        -0.5000 
     55 C          -2.2233  -13.3500  -45.8772 C.2       3 UNK         0.5000 
     56 O          -2.8744  -14.2772  -45.3961 O.2       3 UNK        -0.5000 
     57 CA         -1.6731  -13.4763  -47.3151 C.3       3 UNK         0.1400 
     58 CB         -2.7853  -13.1939  -48.3369 C.3       3 UNK        -0.1800 
     59 N          -0.5099  -12.6351  -47.6396 N.am      3 UNK        -0.5000 
     60 C           0.6531  -12.6152  -46.9752 C.2       2 UNK         0.5000 
     61 O           0.8428  -13.1966  -45.9084 O.2       2 UNK        -0.5000 
     62 CA          1.8178  -11.8399  -47.6041 C.3       2 UNK         0.1400 
     63 CB          2.3613  -10.7757  -46.6371 C.3       2 UNK        -0.1800 
     64 N           2.8754  -12.7996  -47.9074 N.am      2 UNK        -0.5000 
     65 C           2.9301  -13.5341  -49.0255 C.2       1 UNK         0.5000 
     66 O           2.1728  -13.3478  -49.9786 O.2       1 UNK        -0.5000 
     67 C          -0.2741  -22.7071  -47.6910 C.2       11 UNK         0.5000 
     68 O          -0.3732  -23.7563  -48.3281 O.2       11 UNK        -0.5000 
     69 N          -1.2552  -21.7995  -47.5836 N.am      12 UNK        -0.5000 
     70 CA         -2.5806  -21.9160  -48.1883 C.3       12 UNK         0.1400 
     71 CB         -3.3957  -20.6497  -47.8896 C.3       12 UNK        -0.1800 
     72 C          -3.3345  -23.1805  -47.7446 C.2       12 UNK         0.5000 
     73 O          -3.8690  -23.8936  -48.5932 O.2       12 UNK        -0.5000 
     74 N          -3.3237  -23.4564  -46.4337 N.am      13 UNK        -0.5000 
     75 CA         -3.9259  -24.6454  -45.8333 C.3       13 UNK         0.1400 
     76 CB         -3.9193  -24.5035  -44.3036 C.3       13 UNK        -0.1800 
     77 C          -3.2405  -25.9565  -46.2624 C.2       13 UNK         0.5000 
     78 O          -3.9350  -26.9254  -46.5708 O.2       13 UNK        -0.5000 
     79 N          -1.9001  -25.9666  -46.2748 N.am      14 UNK        -0.5000 
     80 CA         -1.0837  -27.1281  -46.6282 C.3       14 UNK         0.1400 
     81 CB          0.3757  -26.8822  -46.2152 C.3       14 UNK        -0.1800 
     82 C          -1.1674  -27.4908  -48.1197 C.2       14 UNK         0.5000 
     83 O          -1.3203  -28.6682  -48.4481 O.2       14 UNK        -0.5000 
     84 N          -1.0625  -26.4813  -48.9942 N.am      15 UNK        -0.5000 
     85 CA         -1.1160  -26.6553  -50.4461 C.3       15 UNK         0.1400 
     86 CB         -0.4872  -25.4307  -51.1244 C.3       15 UNK        -0.1800 
     87 C          -2.5443  -26.8794  -50.9720 C.2       15 UNK         0.5000 
     88 O          -2.7038  -27.4966  -52.0259 O.2       15 UNK        -0.5000 
     89 N          -3.5466  -26.3496  -50.2545 N.am      16 UNK        -0.5000 
     90 CA         -4.9900  -26.3526  -50.5267 C.3       16 UNK         0.1400 
     91 CB         -5.5528  -27.7830  -50.6215 C.3       16 UNK        -0.1800 
     92 C          -5.3919  -25.5018  -51.7463 C.2       16 UNK         0.5000 
     93 O          -6.2917  -24.6696  -51.6375 O.2       16 UNK        -0.5000 
     94 N          -4.6999  -25.6870  -52.8772 N.am      17 UNK        -0.5000 
     95 CA         -4.8734  -24.9198  -54.1117 C.3       17 UNK         0.1400 
     96 CB         -4.0334  -25.5611  -55.2257 C.3       17 UNK        -0.1800 
     97 C          -4.5076  -23.4335  -53.9437 C.2       17 UNK         0.5000 
     98 O          -5.1544  -22.5753  -54.5412 O.2       17 UNK        -0.5000 
     99 N          -3.5158  -23.1510  -53.0878 N.am      18 UNK        -0.5000 
    100 CA        -3.0544  -21.8014  -52.7537 C.3       18 UNK         0.1400 
    101 CB        -1.6039  -21.8728  -52.2500 C.3       18 UNK        -0.1800 
    102 C         -3.9691  -21.0532  -51.7591 C.2       18 UNK         0.5000 
    103 O         -3.6015  -19.9642  -51.3234 O.2       18 UNK        -0.5000 
    104 N         -5.1267  -21.6314  -51.4059 N.am      19 UNK        -0.5000 
    105 CA        -6.2036  -20.9358  -50.7014 C.3       19 UNK         0.1400 
    106 CB        -6.9425  -21.9269  -49.7899 C.3       19 UNK        -0.1800 
    107 C         -7.1858  -20.2621  -51.6800 C.2       19 UNK         0.5000 
    108 O         -7.8753  -19.3215  -51.2818 O.2       19 UNK        -0.5000 
    109 N         -7.2379  -20.7276  -52.9388 N.am      20 UNK        -0.5000 
    110 CA        -8.0432  -20.1470  -54.0145 C.3       20 UNK         0.1400 
    111 CB        -8.3230  -21.2239  -55.0777 C.3       20 UNK        -0.1800 
    112 C         -7.3121  -18.9179  -54.5851 C.2       20 UNK         0.5000 
    113 O         -6.6301  -19.0237  -55.6060 O.2       20 UNK        -0.5000 
    114 N         -7.4355  -17.8020  -53.8524 N.am      21 UNK        -0.5000 
    115 CA        -6.5979  -16.5973  -53.8580 C.3       21 UNK         0.1400 
    116 CB        -6.3548  -16.0227  -55.2675 C.3       21 UNK        -0.1800 
    117 C         -5.2836  -16.8666  -53.1001 C.2       21 UNK         0.5000 
    118 O         -4.6574  -17.9062  -53.3018 O.2       21 UNK        -0.5000 
    119 N         -4.9134  -15.9262  -52.2229 N.am      22 UNK        -0.5000 
    120 CA        -3.8596  -16.0385  -51.1937 C.3       22 UNK         0.1400 
    121 C         -4.3072  -16.7799  -49.8947 C.2       22 UNK         0.5000 
    122 N         -5.5558  -17.2137  -49.7649 N.am      22 UNK        -0.7600 
    123 O         -3.5314  -16.9109  -48.9547 O.2       22 UNK        -0.5000 
    124 C124       -2.4706  -16.5173  -51.7294 C.3       23 UNK        -0.0398 
    125 S125       -1.1134  -15.3908  -51.2660 S.3       23 UNK        -0.2404 
    126 C126       -0.2953  -16.2822  -49.9060 C.3       23 UNK        -0.0205 
    127 H127        7.7242  -14.3674  -46.6642 H         1 UNK         0.0600 
    128 H128        6.3338  -15.1318  -45.8896 H         1 UNK         0.0600 
    129 H129        6.6148  -13.4005  -45.6864 H         1 UNK         0.0600 
    130 H130        4.7183  -15.5692  -47.3256 H         1 UNK         0.3000 
    131 H131        3.3144  -15.5906  -48.9701 H         1 UNK         0.0600 
    132 H132        3.9799  -14.5823  -51.2824 H         1 UNK         0.0800 
    133 H133        5.4549  -14.0764  -50.5410 H         1 UNK         0.0800 
    134 H134        4.7308  -17.9709  -52.5144 H         1 UNK         0.0800 
    135 H135        3.9849  -16.4164  -52.7472 H         1 UNK         0.0800 
    136 H136        2.0224  -15.7543  -51.1740 H         1 UNK         0.1150 
    137 H137       -0.3149  -19.0243  -49.7040 H         1 UNK         0.1150 
    138 H138        3.5412  -19.7538  -51.4383 H         1 UNK         0.1150 
    139 H139        0.3776  -21.2826  -50.0942 H         1 UNK         0.0800 
    140 H140        1.5397  -21.5332  -51.3655 H         1 UNK         0.0800 
    141 H141        1.2754  -20.3801  -47.7422 H         1 UNK         0.0800 
    142 H142        2.6972  -21.0166  -46.9727 H         1 UNK         0.0800 
    143 H143        1.6246  -23.3194  -46.9215 H         1 UNK         0.0600 
    144 H144        1.0873  -21.1933  -45.1796 H         1 UNK         0.3000 
    145 H145       -0.9919  -22.9364  -42.8182 H         1 UNK         0.0600 
    146 H146        1.8331  -21.7554  -42.7015 H         1 UNK         0.0600 
    147 H147        0.7687  -22.0465  -41.3283 H         1 UNK         0.0600 
    148 H148        1.3960  -23.4000  -42.2567 H         1 UNK         0.0600 
    149 H149       -0.1475  -20.2313  -42.8827 H         1 UNK         0.3000 
    150 H150       -2.8784  -18.9349  -44.8371 H         1 UNK         0.0600 
    151 H151       -3.6266  -19.0196  -42.4725 H         1 UNK         0.0600 
    152 H152       -2.9215  -17.4503  -42.8358 H         1 UNK         0.0600 
    153 H153       -2.0035  -18.6391  -41.9143 H         1 UNK         0.0600 
    154 H154       -0.5919  -17.6367  -43.7757 H         1 UNK         0.3000 
    155 H155        1.6228  -18.2311  -46.5371 H         1 UNK         0.0600 
    156 H156        0.2446  -15.7201  -45.4687 H         1 UNK         0.0600 
    157 H157        1.7321  -15.7699  -46.4201 H         1 UNK         0.0600 
    158 H158        0.2064  -16.2763  -47.1299 H         1 UNK         0.0600 
    159 H159        1.8151  -16.8746  -43.9845 H         1 UNK         0.3000 
    160 H160        3.2605  -19.6239  -42.2271 H         1 UNK         0.0600 
    161 H161        5.1494  -18.6372  -43.5359 H         1 UNK         0.0600 
    162 H162        4.5025  -17.0214  -43.2770 H         1 UNK         0.0600 
    163 H163        5.0847  -17.9737  -41.9112 H         1 UNK         0.0600 
    164 H164        2.7720  -16.9014  -41.5052 H         1 UNK         0.3000 
    165 H165       -0.5896  -17.2667  -40.4194 H         1 UNK         0.0600 
    166 H166        0.3639  -16.5081  -38.2625 H         1 UNK         0.0600 
    167 H167        0.7346  -18.2053  -38.5190 H         1 UNK         0.0600 
    168 H168        1.9823  -16.9908  -38.7723 H         1 UNK         0.0600 
    169 H169        1.2154  -15.0958  -40.1976 H         1 UNK         0.3000 
    170 H170        0.8312  -13.2269  -41.4176 H         1 UNK         0.0600 
    171 H171        2.8987  -14.1896  -42.3688 H         1 UNK         0.0600 
    172 H172        2.1339  -14.3985  -43.9375 H         1 UNK         0.0600 
    173 H173        2.4340  -12.7802  -43.3088 H         1 UNK         0.0600 
    174 H174        0.0295  -13.0594  -44.1974 H         1 UNK         0.3000 
    175 H175       -3.3361  -12.2995  -43.6596 H         1 UNK         0.0600 
    176 H176       -1.2832  -10.0241  -43.7517 H         1 UNK         0.0600 
    177 H177       -2.9683   -9.9167  -44.2633 H         1 UNK         0.0600 
    178 H178       -2.5790  -10.1872  -42.5728 H         1 UNK         0.0600 
    179 H179       -1.4058  -11.5111  -45.6880 H         1 UNK         0.3000 
    180 H180       -1.3623  -14.5142  -47.4413 H         1 UNK         0.0600 
    181 H181       -3.1387  -12.1642  -48.2712 H         1 UNK         0.0600 
    182 H182       -3.6424  -13.8486  -48.1727 H         1 UNK         0.0600 
    183 H183       -2.4397  -13.3665  -49.3558 H         1 UNK         0.0600 
    184 H184       -0.5709  -12.1233  -48.5081 H         1 UNK         0.3000 
    185 H185        1.4839  -11.3404  -48.5160 H         1 UNK         0.0600 
    186 H186        3.1916  -10.2280  -47.0832 H         1 UNK         0.0600 
    187 H187        1.5889  -10.0482  -46.3847 H         1 UNK         0.0600 
    188 H188        2.7154  -11.2158  -45.7037 H         1 UNK         0.0600 
    189 H189        3.4970  -13.0372  -47.1488 H         1 UNK         0.3000 
    190 H190       -1.0779  -20.9473  -47.0552 H         1 UNK         0.3000 
    191 H191       -2.4454  -21.9798  -49.2670 H         1 UNK         0.0600 
    192 H192       -3.4815  -20.4646  -46.8195 H         1 UNK         0.0600 
    193 H193       -4.4060  -20.7318  -48.2878 H         1 UNK         0.0600 
    194 H194       -2.9376  -19.7710  -48.3452 H         1 UNK         0.0600 
    195 H195       -2.8855  -22.7962  -45.7975 H         1 UNK         0.3000 
    196 H196       -4.9657  -24.6928  -46.1636 H         1 UNK         0.0600 
    197 H197       -4.3784  -25.3708  -43.8276 H         1 UNK         0.0600 
    198 H198       -4.4799  -23.6235  -43.9877 H         1 UNK         0.0600 
    199 H199       -2.9056  -24.4106  -43.9126 H         1 UNK         0.0600 
    200 H200       -1.3962  -25.1385  -45.9665 H         1 UNK         0.3000 
    201 H201       -1.4528  -27.9834  -46.0584 H         1 UNK         0.0600 
    202 H202        0.4591  -26.7288  -45.1392 H         1 UNK         0.0600 
    203 H203        0.7919  -26.0043  -46.7113 H         1 UNK         0.0600 
    204 H204        1.0052  -27.7353  -46.4712 H         1 UNK         0.0600 
    205 H205       -0.9075  -25.5352  -48.6509 H         1 UNK         0.3000 
    206 H206       -0.5227  -27.5315  -50.7162 H         1 UNK         0.0600 
    207 H207        0.5486  -25.2942  -50.8130 H         1 UNK         0.0600 
    208 H208       -0.4927  -25.5322  -52.2104 H         1 UNK         0.0600 
    209 H209       -1.0322  -24.5231  -50.8727 H         1 UNK         0.0600 
    210 H210       -3.2907  -25.7996  -49.4425 H         1 UNK         0.3000 
    211 H211       -5.4499  -25.8836  -49.6554 H         1 UNK         0.0600 
    212 H212       -5.1675  -28.3215  -51.4876 H         1 UNK         0.0600 
    213 H213       -6.6397  -27.7655  -50.7084 H         1 UNK         0.0600 
    214 H214       -5.3068  -28.3606  -49.7303 H         1 UNK         0.0600 
    215 H215       -3.9707  -26.3957  -52.8650 H         1 UNK         0.3000 
    216 H216       -5.9258  -24.9734  -54.3981 H         1 UNK         0.0600 
    217 H217       -4.1529  -25.0207  -56.1657 H         1 UNK         0.0600 
    218 H218       -4.3372  -26.5929  -55.4035 H         1 UNK         0.0600 
    219 H219       -2.9709  -25.5624  -54.9789 H         1 UNK         0.0600 
    220 H220       -3.0612  -23.9170  -52.6145 H         1 UNK         0.3000 
    221 H221       -3.0506  -21.2082  -53.6707 H         1 UNK         0.0600 
    222 H222       -1.5350  -22.3907  -51.2963 H         1 UNK         0.0600 
    223 H223       -0.9597  -22.3885  -52.9622 H         1 UNK         0.0600 
    224 H224       -1.1914  -20.8729  -52.1087 H         1 UNK         0.0600 
    225 H225       -5.3385  -22.5606  -51.7451 H         1 UNK         0.3000 
    226 H226       -5.7852  -20.1493  -50.0714 H         1 UNK         0.0600 
    227 H227       -6.2535  -22.4381  -49.1174 H         1 UNK         0.0600 
    228 H228       -7.6781  -21.4104  -49.1723 H         1 UNK         0.0600 
    229 H229       -7.4753  -22.6845  -50.3647 H         1 UNK         0.0600 
    230 H230       -6.5847  -21.4468  -53.2215 H         1 UNK         0.3000 
    231 H231       -9.0062  -19.8229  -53.6137 H         1 UNK         0.0600 
    232 H232       -8.9470  -20.8246  -55.8779 H         1 UNK         0.0600 
    233 H233       -8.8506  -22.0749  -54.6468 H         1 UNK         0.0600 
    234 H234       -7.4060  -21.5964  -55.5344 H         1 UNK         0.0600 
    235 H235       -7.9962  -17.9013  -53.0145 H         1 UNK         0.3000 
    236 H236       -7.1664  -15.8528  -53.2982 H         1 UNK         0.0600 
    237 H237       -5.9091  -15.0295  -55.2046 H         1 UNK         0.0600 
    238 H238       -7.2871  -15.9274  -55.8241 H         1 UNK         0.0600 
    239 H239       -5.6726  -16.6410  -55.8513 H         1 UNK         0.0600 
    240 H240       -5.4826  -15.0948  -52.1477 H         1 UNK         0.3000 
    241 H241       -3.7467  -15.0060  -50.8622 H         1 UNK         0.0600 
    242 H242       -6.2244  -17.1187  -50.5105 H         1 UNK         0.3800 
    243 H243       -5.8263  -17.6576  -48.9029 H         1 UNK         0.3800 
    244 H244       -2.2418  -17.5380  -51.4166 H         1 UNK         0.0800 
    245 H245       -2.4653  -16.5450  -52.8189 H         1 UNK         0.0800 
    246 H246        0.2059  -15.5368  -49.2879 H         1 UNK         0.0800 
    247 H247       -1.0319  -16.7654  -49.2655 H         1 UNK         0.0800 
@<TRIPOS>BOND
     1    1    2 1    
     2    1  127 1    
     3    1  128 1    
     4    1  129 1    
     5    2    3 2    
     6    2    4 am   BACKBONE|DICT|INTERRES
     7    4    5 1    
     8    4  130 1    
     9    5    6 1    
    10    5   65 1    
    11    5  131 1    
    12    6    7 1    
    13    6  132 1    
    14    6  133 1    
    15    7    8 1    
    16    8    9 1    
    17    8  134 1    
    18    8  135 1    
    19    9   10 ar   
    20    9   14 ar   
    21   10   11 ar   
    22   10  136 1    
    23   11   12 ar   
    24   11  126 1    
    25   12   13 ar   
    26   12  137 1    
    27   13   14 ar   
    28   13   15 1    
    29   14  138 1    
    30   15   16 1    
    31   15  139 1    
    32   15  140 1    
    33   16   17 1    
    34   17   18 1    
    35   17  141 1    
    36   17  142 1    
    37   18   19 1    
    38   18   67 1    
    39   18  143 1    
    40   19   20 am   BACKBONE|DICT|INTERRES
    41   19  144 1    
    42   20   21 2    
    43   20   22 1    
    44   22   23 1    
    45   22   24 1    
    46   22  145 1    
    47   23  146 1    
    48   23  147 1    
    49   23  148 1    
    50   24   25 am   BACKBONE|DICT|INTERRES
    51   24  149 1    
    52   25   26 2    
    53   25   27 1    
    54   27   28 1    
    55   27   29 1    
    56   27  150 1    
    57   28  151 1    
    58   28  152 1    
    59   28  153 1    
    60   29   30 am   BACKBONE|DICT|INTERRES
    61   29  154 1    
    62   30   31 2    
    63   30   32 1    
    64   32   33 1    
    65   32   34 1    
    66   32  155 1    
    67   33  156 1    
    68   33  157 1    
    69   33  158 1    
    70   34   35 am   BACKBONE|DICT|INTERRES
    71   34  159 1    
    72   35   36 2    
    73   35   37 1    
    74   37   38 1    
    75   37   39 1    
    76   37  160 1    
    77   38  161 1    
    78   38  162 1    
    79   38  163 1    
    80   39   40 am   BACKBONE|DICT|INTERRES
    81   39  164 1    
    82   40   41 2    
    83   40   42 1    
    84   42   43 1    
    85   42   44 1    
    86   42  165 1    
    87   43  166 1    
    88   43  167 1    
    89   43  168 1    
    90   44   45 am   BACKBONE|DICT|INTERRES
    91   44  169 1    
    92   45   46 2    
    93   45   47 1    
    94   47   48 1    
    95   47   49 1    
    96   47  170 1    
    97   48  171 1    
    98   48  172 1    
    99   48  173 1    
   100   49   50 am   BACKBONE|DICT|INTERRES
   101   49  174 1    
   102   50   51 2    
   103   50   52 1    
   104   52   53 1    
   105   52   54 1    
   106   52  175 1    
   107   53  176 1    
   108   53  177 1    
   109   53  178 1    
   110   54   55 am   BACKBONE|DICT|INTERRES
   111   54  179 1    
   112   55   56 2    
   113   55   57 1    
   114   57   58 1    
   115   57   59 1    
   116   57  180 1    
   117   58  181 1    
   118   58  182 1    
   119   58  183 1    
   120   59   60 am   BACKBONE|DICT|INTERRES
   121   59  184 1    
   122   60   61 2    
   123   60   62 1    
   124   62   63 1    
   125   62   64 1    
   126   62  185 1    
   127   63  186 1    
   128   63  187 1    
   129   63  188 1    
   130   64   65 am   BACKBONE|DICT|INTERRES
   131   64  189 1    
   132   65   66 2    
   133   67   68 2    
   134   67   69 am   BACKBONE|DICT|INTERRES
   135   69   70 1    
   136   69  190 1    
   137   70   71 1    
   138   70   72 1    
   139   70  191 1    
   140   71  192 1    
   141   71  193 1    
   142   71  194 1    
   143   72   73 2    
   144   72   74 am   BACKBONE|DICT|INTERRES
   145   74   75 1    
   146   74  195 1    
   147   75   76 1    
   148   75   77 1    
   149   75  196 1    
   150   76  197 1    
   151   76  198 1    
   152   76  199 1    
   153   77   78 2    
   154   77   79 am   BACKBONE|DICT|INTERRES
   155   79   80 1    
   156   79  200 1    
   157   80   81 1    
   158   80   82 1    
   159   80  201 1    
   160   81  202 1    
   161   81  203 1    
   162   81  204 1    
   163   82   83 2    
   164   82   84 am   BACKBONE|DICT|INTERRES
   165   84   85 1    
   166   84  205 1    
   167   85   86 1    
   168   85   87 1    
   169   85  206 1    
   170   86  207 1    
   171   86  208 1    
   172   86  209 1    
   173   87   88 2    
   174   87   89 am   BACKBONE|DICT|INTERRES
   175   89   90 1    
   176   89  210 1    
   177   90   91 1    
   178   90   92 1    
   179   90  211 1    
   180   91  212 1    
   181   91  213 1    
   182   91  214 1    
   183   92   93 2    
   184   92   94 am   BACKBONE|DICT|INTERRES
   185   94   95 1    
   186   94  215 1    
   187   95   96 1    
   188   95   97 1    
   189   95  216 1    
   190   96  217 1    
   191   96  218 1    
   192   96  219 1    
   193   97   98 2    
   194   97   99 am   BACKBONE|DICT|INTERRES
   195   99  100 1    
   196   99  220 1    
   197  100  101 1    
   198  100  102 1    
   199  100  221 1    
   200  101  222 1    
   201  101  223 1    
   202  101  224 1    
   203  102  103 2    
   204  102  104 am   BACKBONE|DICT|INTERRES
   205  104  105 1    
   206  104  225 1    
   207  105  106 1    
   208  105  107 1    
   209  105  226 1    
   210  106  227 1    
   211  106  228 1    
   212  106  229 1    
   213  107  108 2    
   214  107  109 am   BACKBONE|DICT|INTERRES
   215  109  110 1    
   216  109  230 1    
   217  110  111 1    
   218  110  112 1    
   219  110  231 1    
   220  111  232 1    
   221  111  233 1    
   222  111  234 1    
   223  112  113 2    
   224  112  114 am   BACKBONE|DICT|INTERRES
   225  114  115 1    
   226  114  235 1    
   227  115  116 1    
   228  115  117 1    
   229  115  236 1    
   230  116  237 1    
   231  116  238 1    
   232  116  239 1    
   233  117  118 2    
   234  117  119 am   BACKBONE|DICT|INTERRES
   235  119  120 1    
   236  119  240 1    
   237  120  121 1    
   238  120  124 1    
   239  120  241 1    
   240  121  122 am   BACKBONE|DICT|INTERRES
   241  121  123 2    
   242  122  242 1    
   243  122  243 1    
   244  124  125 1    
   245  124  244 1    
   246  124  245 1    
   247  125  126 1    
   248  126  246 1    
   249  126  247 1    
@<TRIPOS>SUBSTRUCTURE
     1 UNK         1 GROUP             0       ****    0 ROOT    
