@<TRIPOS>MOLECULE
3R540
247   249    1
SMALL
USER_CHARGES


@<TRIPOS>ATOM
      1 CA         -1.4017  -13.2643  -48.7426 C.3       0 UNK        -0.1800 
      2 C          -0.1579  -12.3877  -48.7176 C.2       0 UNK         0.5000 
      3 O          -0.1746  -11.2872  -49.2685 O.2       0 UNK        -0.5000 
      4 N           0.9179  -12.8659  -48.0771 N.am      1 UNK        -0.5000 
      5 CA          2.2051  -12.1629  -47.9680 C.3       1 UNK         0.1400 
      6 C6          3.3690  -13.1208  -47.6079 C.3       23 UNK        -0.0398 
      7 S7          3.6207  -14.4141  -48.8746 S.3       23 UNK        -0.2404 
      8 C8          3.2993  -15.9464  -47.9423 C.3       23 UNK        -0.0205 
      9 C9          2.4859  -16.9451  -48.7547 C.ar      23 UNK        -0.0193 
     10 C10         1.1775  -16.6378  -49.1408 C.ar      23 UNK        -0.1150 
     11 C11         0.3963  -17.5719  -49.8258 C.ar      23 UNK        -0.0193 
     12 C12         0.9457  -18.8124  -50.1571 C.ar      23 UNK        -0.1150 
     13 C13         2.2481  -19.1419  -49.7664 C.ar      23 UNK        -0.0193 
     14 C14         3.0141  -18.2004  -49.0703 C.ar      23 UNK        -0.1150 
     15 C15         2.8264  -20.5214  -50.0671 C.3       23 UNK        -0.0205 
     16 S16         1.7191  -21.8964  -49.5968 S.3       23 UNK        -0.2404 
     17 C17         1.3362  -21.4834  -47.8591 C.3       23 UNK        -0.0398 
     18 CA          0.4936  -22.5526  -47.1236 C.3       11 UNK         0.1400 
     19 N           0.3843  -22.2471  -45.6964 N.am      11 UNK        -0.5000 
     20 C          -0.1456  -23.0541  -44.7677 C.2       10 UNK         0.5000 
     21 O          -0.5866  -24.1781  -45.0062 O.2       10 UNK        -0.5000 
     22 CA         -0.2356  -22.4925  -43.3372 C.3       10 UNK         0.1400 
     23 CB          1.1344  -22.5355  -42.6441 C.3       10 UNK        -0.1800 
     24 N          -0.7653  -21.1285  -43.2970 N.am      10 UNK        -0.5000 
     25 C          -1.9979  -20.7836  -43.6978 C.2       9 UNK         0.5000 
     26 O          -2.8288  -21.5834  -44.1269 O.2       9 UNK        -0.5000 
     27 CA         -2.3489  -19.2867  -43.6569 C.3       9 UNK         0.1400 
     28 CB         -2.6526  -18.8313  -42.2218 C.3       9 UNK        -0.1800 
     29 N          -1.2972  -18.4470  -44.2268 N.am      9 UNK        -0.5000 
     30 C          -0.8704  -18.5153  -45.4955 C.2       8 UNK         0.5000 
     31 O          -1.3323  -19.2795  -46.3410 O.2       8 UNK        -0.5000 
     32 CA          0.3102  -17.6089  -45.8699 C.3       8 UNK         0.1400 
     33 CB         -0.1603  -16.1539  -46.0315 C.3       8 UNK        -0.1800 
     34 N           1.4040  -17.6866  -44.9020 N.am      8 UNK        -0.5000 
     35 C           2.0728  -18.8102  -44.6000 C.2       7 UNK         0.5000 
     36 O           1.8768  -19.8958  -45.1430 O.2       7 UNK        -0.5000 
     37 CA          3.0950  -18.7216  -43.4573 C.3       7 UNK         0.1400 
     38 CB          4.4381  -18.1819  -43.9699 C.3       7 UNK        -0.1800 
     39 N           2.6011  -17.8913  -42.3592 N.am      7 UNK        -0.5000 
     40 C           1.5839  -18.2357  -41.5549 C.2       6 UNK         0.5000 
     41 O           0.9915  -19.3134  -41.6218 O.2       6 UNK        -0.5000 
     42 CA          1.1219  -17.1741  -40.5398 C.3       6 UNK         0.1400 
     43 CB          2.0152  -17.1898  -39.2906 C.3       6 UNK        -0.1800 
     44 N           1.1078  -15.8268  -41.1135 N.am      6 UNK        -0.5000 
     45 C           0.2757  -15.4333  -42.0882 C.2       5 UNK         0.5000 
     46 O          -0.6050  -16.1514  -42.5602 O.2       5 UNK        -0.5000 
     47 CA          0.4908  -14.0200  -42.6645 C.3       5 UNK         0.1400 
     48 CB         -0.3539  -12.9923  -41.8982 C.3       5 UNK        -0.1800 
     49 N           1.8936  -13.5917  -42.6713 N.am      5 UNK        -0.5000 
     50 C           2.8770  -14.1993  -43.3505 C.2       4 UNK         0.5000 
     51 O           2.6952  -15.1878  -44.0627 O.2       4 UNK        -0.5000 
     52 CA          4.2749  -13.5716  -43.2240 C.3       4 UNK         0.1400 
     53 CB          5.3313  -14.2461  -44.1179 C.3       4 UNK        -0.1800 
     54 N           4.1793  -12.1587  -43.5707 N.am      4 UNK        -0.5000 
     55 C           4.6467  -11.1333  -42.8489 C.2       3 UNK         0.5000 
     56 O           5.2853  -11.2613  -41.8040 O.2       3 UNK        -0.5000 
     57 CA          4.3291   -9.7211  -43.3814 C.3       3 UNK         0.1400 
     58 CB          5.5424   -9.1413  -44.1240 C.3       3 UNK        -0.1800 
     59 N           3.1725   -9.7032  -44.2809 N.am      3 UNK        -0.5000 
     60 C           1.8990   -9.8772  -43.9098 C.2       2 UNK         0.5000 
     61 O           1.5457  -10.0061  -42.7379 O.2       2 UNK        -0.5000 
     62 CA          0.8503   -9.9743  -45.0346 C.3       2 UNK         0.1400 
     63 CB          0.5543   -8.5928  -45.6486 C.3       2 UNK        -0.1800 
     64 N           1.1639  -10.9714  -46.0709 N.am      2 UNK        -0.5000 
     65 C           2.1566  -10.9777  -46.9766 C.2       1 UNK         0.5000 
     66 O           3.0264  -10.1084  -47.0441 O.2       1 UNK        -0.5000 
     67 C          -0.8951  -22.7551  -47.7653 C.2       11 UNK         0.5000 
     68 O          -1.1067  -23.7655  -48.4363 O.2       11 UNK        -0.5000 
     69 N          -1.8295  -21.8272  -47.5103 N.am      12 UNK        -0.5000 
     70 CA         -3.2059  -21.8906  -48.0006 C.3       12 UNK         0.1400 
     71 CB         -3.9406  -20.5828  -47.6742 C.3       12 UNK        -0.1800 
     72 C          -3.9817  -23.1044  -47.4618 C.2       12 UNK         0.5000 
     73 O          -4.7056  -23.7377  -48.2281 O.2       12 UNK        -0.5000 
     74 N          -3.7934  -23.4334  -46.1759 N.am      13 UNK        -0.5000 
     75 CA         -4.3748  -24.6142  -45.5360 C.3       13 UNK         0.1400 
     76 CB         -4.1599  -24.5407  -44.0168 C.3       13 UNK        -0.1800 
     77 C          -3.8189  -25.9345  -46.1002 C.2       13 UNK         0.5000 
     78 O          -4.5878  -26.8754  -46.3000 O.2       13 UNK        -0.5000 
     79 N          -2.5038  -25.9782  -46.3564 N.am      14 UNK        -0.5000 
     80 CA         -1.8134  -27.1270  -46.9421 C.3       14 UNK         0.1400 
     81 CB         -0.2947  -26.9471  -46.7930 C.3       14 UNK        -0.1800 
     82 C          -2.1942  -27.3610  -48.4150 C.2       14 UNK         0.5000 
     83 O          -2.4344  -28.5050  -48.8037 O.2       14 UNK        -0.5000 
     84 N          -2.2425  -26.2795  -49.2042 N.am      15 UNK        -0.5000 
     85 CA         -2.6010  -26.3076  -50.6221 C.3       15 UNK         0.1400 
     86 CB         -2.1864  -24.9781  -51.2744 C.3       15 UNK        -0.1800 
     87 C          -4.0985  -26.5718  -50.8583 C.2       15 UNK         0.5000 
     88 O          -4.4401  -27.2910  -51.7971 O.2       15 UNK        -0.5000 
     89 N          -4.9448  -25.9727  -50.0078 N.am      16 UNK        -0.5000 
     90 CA         -6.3957  -25.8015  -50.1293 C.3       16 UNK         0.1400 
     91 CB         -7.1304  -27.1361  -50.3675 C.3       16 UNK        -0.1800 
     92 C          -6.7559  -24.7484  -51.1956 C.2       16 UNK         0.5000 
     93 O          -5.9515  -24.4372  -52.0778 O.2       16 UNK        -0.5000 
     94 N          -7.9818  -24.2159  -51.1074 N.am      17 UNK        -0.5000 
     95 CA         -8.4994  -23.1227  -51.9427 C.3       17 UNK         0.1400 
     96 CB         -9.9102  -22.7558  -51.4572 C.3       17 UNK        -0.1800 
     97 C          -8.5092  -23.4025  -53.4608 C.2       17 UNK         0.5000 
     98 O          -8.5344  -22.4584  -54.2504 O.2       17 UNK        -0.5000 
     99 N          -8.4763  -24.6860  -53.8406 N.am      18 UNK        -0.5000 
    100 CA        -8.3715  -25.1488  -55.2220 C.3       18 UNK         0.1400 
    101 CB        -8.7472  -26.6381  -55.2705 C.3       18 UNK        -0.1800 
    102 C         -6.9782  -24.9286  -55.8477 C.2       18 UNK         0.5000 
    103 O         -6.8912  -24.8597  -57.0748 O.2       18 UNK        -0.5000 
    104 N         -5.9236  -24.8447  -55.0221 N.am      19 UNK        -0.5000 
    105 CA        -4.5320  -24.7355  -55.4720 C.3       19 UNK         0.1400 
    106 CB        -3.7764  -26.0151  -55.0849 C.3       19 UNK        -0.1800 
    107 C         -3.8076  -23.4944  -54.9230 C.2       19 UNK         0.5000 
    108 O         -2.8212  -23.0750  -55.5305 O.2       19 UNK        -0.5000 
    109 N         -4.2800  -22.9249  -53.8038 N.am      20 UNK        -0.5000 
    110 CA        -3.7494  -21.7020  -53.1969 C.3       20 UNK         0.1400 
    111 CB        -4.4826  -21.4301  -51.8733 C.3       20 UNK        -0.1800 
    112 C         -3.8663  -20.4972  -54.1525 C.2       20 UNK         0.5000 
    113 O         -4.9657  -20.1931  -54.6201 O.2       20 UNK        -0.5000 
    114 N         -2.7269  -19.8593  -54.4477 N.am      21 UNK        -0.5000 
    115 CA        -2.6167  -18.7858  -55.4385 C.3       21 UNK         0.1400 
    116 CB        -1.1460  -18.6554  -55.8650 C.3       21 UNK        -0.1800 
    117 C         -3.1518  -17.4281  -54.9474 C.2       21 UNK         0.5000 
    118 O         -3.5613  -16.6090  -55.7717 O.2       21 UNK        -0.5000 
    119 N         -3.1132  -17.2020  -53.6292 N.am      22 UNK        -0.5000 
    120 CA        -3.5562  -15.9598  -52.9801 C.3       22 UNK         0.1400 
    121 C         -5.0990  -15.7831  -53.0286 C.2       22 UNK         0.5000 
    122 N         -5.5859  -14.5809  -53.3047 N.am      22 UNK        -0.7600 
    123 O         -5.8571  -16.7154  -52.7717 O.2       22 UNK        -0.5000 
    124 C124       -3.0476  -15.8582  -51.5210 C.3       23 UNK        -0.0398 
    125 S125       -1.2276  -15.9610  -51.3977 S.3       23 UNK        -0.2404 
    126 C126       -1.0585  -17.2673  -50.1460 C.3       23 UNK        -0.0205 
    127 H127       -2.1711  -12.8438  -48.0953 H         1 UNK         0.0600 
    128 H128       -1.1914  -14.2799  -48.4108 H         1 UNK         0.0600 
    129 H129       -1.8001  -13.3179  -49.7555 H         1 UNK         0.0600 
    130 H130        0.8818  -13.7818  -47.6578 H         1 UNK         0.3000 
    131 H131        2.4295  -11.7313  -48.9462 H         1 UNK         0.0600 
    132 H132        4.3069  -12.5676  -47.5287 H         1 UNK         0.0800 
    133 H133        3.2041  -13.5719  -46.6288 H         1 UNK         0.0800 
    134 H134        2.7680  -15.7384  -47.0152 H         1 UNK         0.0800 
    135 H135        4.2565  -16.3764  -47.6439 H         1 UNK         0.0800 
    136 H136        0.7559  -15.6774  -48.8871 H         1 UNK         0.1150 
    137 H137        0.3462  -19.5412  -50.6841 H         1 UNK         0.1150 
    138 H138        4.0180  -18.4515  -48.7579 H         1 UNK         0.1150 
    139 H139        3.0381  -20.5884  -51.1349 H         1 UNK         0.0800 
    140 H140        3.7797  -20.6581  -49.5544 H         1 UNK         0.0800 
    141 H141        0.8312  -20.5169  -47.8188 H         1 UNK         0.0800 
    142 H142        2.2870  -21.3489  -47.3418 H         1 UNK         0.0800 
    143 H143        1.0257  -23.5032  -47.2006 H         1 UNK         0.0600 
    144 H144        0.7517  -21.3433  -45.4068 H         1 UNK         0.3000 
    145 H145       -0.9199  -23.1306  -42.7743 H         1 UNK         0.0600 
    146 H146        1.0590  -22.2181  -41.6039 H         1 UNK         0.0600 
    147 H147        1.5426  -23.5469  -42.6475 H         1 UNK         0.0600 
    148 H148        1.8575  -21.8866  -43.1389 H         1 UNK         0.0600 
    149 H149       -0.1483  -20.4103  -42.9318 H         1 UNK         0.3000 
    150 H150       -3.2492  -19.1412  -44.2574 H         1 UNK         0.0600 
    151 H151       -3.4437  -19.4373  -41.7783 H         1 UNK         0.0600 
    152 H152       -2.9865  -17.7938  -42.2011 H         1 UNK         0.0600 
    153 H153       -1.7758  -18.9115  -41.5785 H         1 UNK         0.0600 
    154 H154       -0.8835  -17.7547  -43.6085 H         1 UNK         0.3000 
    155 H155        0.7007  -17.9641  -46.8230 H         1 UNK         0.0600 
    156 H156        0.6676  -15.4779  -46.2339 H         1 UNK         0.0600 
    157 H157       -0.8652  -16.0730  -46.8587 H         1 UNK         0.0600 
    158 H158       -0.6718  -15.7897  -45.1422 H         1 UNK         0.0600 
    159 H159        1.6749  -16.8248  -44.4393 H         1 UNK         0.3000 
    160 H160        3.2603  -19.7295  -43.0710 H         1 UNK         0.0600 
    161 H161        4.3252  -17.2178  -44.4643 H         1 UNK         0.0600 
    162 H162        4.8744  -18.8667  -44.6981 H         1 UNK         0.0600 
    163 H163        5.1576  -18.0667  -43.1593 H         1 UNK         0.0600 
    164 H164        2.9962  -16.9669  -42.2767 H         1 UNK         0.3000 
    165 H165        0.1038  -17.4258  -40.2349 H         1 UNK         0.0600 
    166 H166        1.6497  -16.4928  -38.5363 H         1 UNK         0.0600 
    167 H167        2.0306  -18.1810  -38.8353 H         1 UNK         0.0600 
    168 H168        3.0456  -16.9205  -39.5259 H         1 UNK         0.0600 
    169 H169        1.7970  -15.1733  -40.7725 H         1 UNK         0.3000 
    170 H170        0.1465  -14.0336  -43.7001 H         1 UNK         0.0600 
    171 H171       -1.4039  -13.2875  -41.8757 H         1 UNK         0.0600 
    172 H172       -0.0200  -12.8853  -40.8655 H         1 UNK         0.0600 
    173 H173       -0.3059  -12.0113  -42.3702 H         1 UNK         0.0600 
    174 H174        2.1157  -12.7672  -42.1309 H         1 UNK         0.3000 
    175 H175        4.5809  -13.6897  -42.1826 H         1 UNK         0.0600 
    176 H176        5.0413  -14.2421  -45.1688 H         1 UNK         0.0600 
    177 H177        6.2940  -13.7414  -44.0362 H         1 UNK         0.0600 
    178 H178        5.4874  -15.2826  -43.8203 H         1 UNK         0.0600 
    179 H179        3.6419  -11.9403  -44.3960 H         1 UNK         0.3000 
    180 H180        4.1108   -9.0828  -42.5227 H         1 UNK         0.0600 
    181 H181        5.7957   -9.7340  -45.0041 H         1 UNK         0.0600 
    182 H182        6.4216   -9.1171  -43.4788 H         1 UNK         0.0600 
    183 H183        5.3521   -8.1191  -44.4515 H         1 UNK         0.0600 
    184 H184        3.3608   -9.6342  -45.2785 H         1 UNK         0.3000 
    185 H185       -0.0727  -10.3213  -44.5670 H         1 UNK         0.0600 
    186 H186        0.2238   -7.8905  -44.8824 H         1 UNK         0.0600 
    187 H187        1.4314   -8.1590  -46.1292 H         1 UNK         0.0600 
    188 H188       -0.2381   -8.6566  -46.3945 H         1 UNK         0.0600 
    189 H189        0.5181  -11.7466  -46.1137 H         1 UNK         0.3000 
    190 H190       -1.5853  -21.0068  -46.9590 H         1 UNK         0.3000 
    191 H191       -3.1592  -21.9881  -49.0867 H         1 UNK         0.0600 
    192 H192       -3.9795  -20.4021  -46.5993 H         1 UNK         0.0600 
    193 H193       -4.9667  -20.6077  -48.0432 H         1 UNK         0.0600 
    194 H194       -3.4486  -19.7287  -48.1400 H         1 UNK         0.0600 
    195 H195       -3.2211  -22.8331  -45.5889 H         1 UNK         0.3000 
    196 H196       -5.4503  -24.6012  -45.7250 H         1 UNK         0.0600 
    197 H197       -4.5868  -25.4116  -43.5179 H         1 UNK         0.0600 
    198 H198       -4.6388  -23.6573  -43.5943 H         1 UNK         0.0600 
    199 H199       -3.1004  -24.5009  -43.7615 H         1 UNK         0.0600 
    200 H200       -1.9285  -25.1774  -46.1138 H         1 UNK         0.3000 
    201 H201       -2.1025  -28.0169  -46.3791 H         1 UNK         0.0600 
    202 H202       -0.0089  -26.8736  -45.7436 H         1 UNK         0.0600 
    203 H203        0.0568  -26.0467  -47.2979 H         1 UNK         0.0600 
    204 H204        0.2437  -27.7949  -47.2183 H         1 UNK         0.0600 
    205 H205       -1.9739  -25.3760  -48.8198 H         1 UNK         0.3000 
    206 H206       -2.0385  -27.1108  -51.1028 H         1 UNK         0.0600 
    207 H207       -1.1149  -24.8051  -51.1722 H         1 UNK         0.0600 
    208 H208       -2.4168  -24.9730  -52.3399 H         1 UNK         0.0600 
    209 H209       -2.7052  -24.1312  -50.8236 H         1 UNK         0.0600 
    210 H210       -4.5357  -25.3728  -49.2981 H         1 UNK         0.3000 
    211 H211       -6.7215  -25.4086  -49.1651 H         1 UNK         0.0600 
    212 H212       -6.9752  -27.5171  -51.3771 H         1 UNK         0.0600 
    213 H213       -8.2058  -27.0172  -50.2326 H         1 UNK         0.0600 
    214 H214       -6.7990  -27.9000  -49.6638 H         1 UNK         0.0600 
    215 H215       -8.5937  -24.5324  -50.3690 H         1 UNK         0.3000 
    216 H216       -7.8506  -22.2591  -51.7844 H         1 UNK         0.0600 
    217 H217      -10.3193  -21.9241  -52.0326 H         1 UNK         0.0600 
    218 H218       -9.9015  -22.4499  -50.4109 H         1 UNK         0.0600 
    219 H219      -10.5998  -23.5949  -51.5577 H         1 UNK         0.0600 
    220 H220       -8.4609  -25.3936  -53.1214 H         1 UNK         0.3000 
    221 H221       -9.0944  -24.5952  -55.8250 H         1 UNK         0.0600 
    222 H222       -8.0663  -27.2442  -54.6714 H         1 UNK         0.0600 
    223 H223       -9.7593  -26.8026  -54.9000 H         1 UNK         0.0600 
    224 H224       -8.7114  -27.0175  -56.2926 H         1 UNK         0.0600 
    225 H225       -6.0745  -24.8824  -54.0192 H         1 UNK         0.3000 
    226 H226       -4.4902  -24.6489  -56.5595 H         1 UNK         0.0600 
    227 H227       -4.2420  -26.8974  -55.5243 H         1 UNK         0.0600 
    228 H228       -2.7435  -25.9830  -55.4337 H         1 UNK         0.0600 
    229 H229       -3.7536  -26.1509  -54.0054 H         1 UNK         0.0600 
    230 H230       -5.0516  -23.3661  -53.3131 H         1 UNK         0.3000 
    231 H231       -2.6961  -21.8785  -52.9696 H         1 UNK         0.0600 
    232 H232       -4.3856  -22.2715  -51.1872 H         1 UNK         0.0600 
    233 H233       -5.5468  -21.2543  -52.0340 H         1 UNK         0.0600 
    234 H234       -4.0751  -20.5509  -51.3727 H         1 UNK         0.0600 
    235 H235       -1.8618  -20.1836  -54.0406 H         1 UNK         0.3000 
    236 H236       -3.1986  -19.0682  -56.3187 H         1 UNK         0.0600 
    237 H237       -1.0269  -17.8842  -56.6272 H         1 UNK         0.0600 
    238 H238       -0.5050  -18.3871  -55.0241 H         1 UNK         0.0600 
    239 H239       -0.7736  -19.5885  -56.2884 H         1 UNK         0.0600 
    240 H240       -2.7742  -17.9322  -53.0230 H         1 UNK         0.3000 
    241 H241       -3.1092  -15.1338  -53.5375 H         1 UNK         0.0600 
    242 H242       -4.9831  -13.7996  -53.5136 H         1 UNK         0.3800 
    243 H243       -6.5857  -14.4505  -53.3232 H         1 UNK         0.3800 
    244 H244       -3.5063  -16.6356  -50.9072 H         1 UNK         0.0800 
    245 H245       -3.3532  -14.9078  -51.0801 H         1 UNK         0.0800 
    246 H246       -1.5694  -18.1666  -50.4937 H         1 UNK         0.0800 
    247 H247       -1.5659  -16.9593  -49.2306 H         1 UNK         0.0800 
@<TRIPOS>BOND
     1    1    2 1    
     2    1  127 1    
     3    1  128 1    
     4    1  129 1    
     5    2    3 2    
     6    2    4 am   BACKBONE|DICT|INTERRES
     7    4    5 1    
     8    4  130 1    
     9    5    6 1    
    10    5   65 1    
    11    5  131 1    
    12    6    7 1    
    13    6  132 1    
    14    6  133 1    
    15    7    8 1    
    16    8    9 1    
    17    8  134 1    
    18    8  135 1    
    19    9   10 ar   
    20    9   14 ar   
    21   10   11 ar   
    22   10  136 1    
    23   11   12 ar   
    24   11  126 1    
    25   12   13 ar   
    26   12  137 1    
    27   13   14 ar   
    28   13   15 1    
    29   14  138 1    
    30   15   16 1    
    31   15  139 1    
    32   15  140 1    
    33   16   17 1    
    34   17   18 1    
    35   17  141 1    
    36   17  142 1    
    37   18   19 1    
    38   18   67 1    
    39   18  143 1    
    40   19   20 am   BACKBONE|DICT|INTERRES
    41   19  144 1    
    42   20   21 2    
    43   20   22 1    
    44   22   23 1    
    45   22   24 1    
    46   22  145 1    
    47   23  146 1    
    48   23  147 1    
    49   23  148 1    
    50   24   25 am   BACKBONE|DICT|INTERRES
    51   24  149 1    
    52   25   26 2    
    53   25   27 1    
    54   27   28 1    
    55   27   29 1    
    56   27  150 1    
    57   28  151 1    
    58   28  152 1    
    59   28  153 1    
    60   29   30 am   BACKBONE|DICT|INTERRES
    61   29  154 1    
    62   30   31 2    
    63   30   32 1    
    64   32   33 1    
    65   32   34 1    
    66   32  155 1    
    67   33  156 1    
    68   33  157 1    
    69   33  158 1    
    70   34   35 am   BACKBONE|DICT|INTERRES
    71   34  159 1    
    72   35   36 2    
    73   35   37 1    
    74   37   38 1    
    75   37   39 1    
    76   37  160 1    
    77   38  161 1    
    78   38  162 1    
    79   38  163 1    
    80   39   40 am   BACKBONE|DICT|INTERRES
    81   39  164 1    
    82   40   41 2    
    83   40   42 1    
    84   42   43 1    
    85   42   44 1    
    86   42  165 1    
    87   43  166 1    
    88   43  167 1    
    89   43  168 1    
    90   44   45 am   BACKBONE|DICT|INTERRES
    91   44  169 1    
    92   45   46 2    
    93   45   47 1    
    94   47   48 1    
    95   47   49 1    
    96   47  170 1    
    97   48  171 1    
    98   48  172 1    
    99   48  173 1    
   100   49   50 am   BACKBONE|DICT|INTERRES
   101   49  174 1    
   102   50   51 2    
   103   50   52 1    
   104   52   53 1    
   105   52   54 1    
   106   52  175 1    
   107   53  176 1    
   108   53  177 1    
   109   53  178 1    
   110   54   55 am   BACKBONE|DICT|INTERRES
   111   54  179 1    
   112   55   56 2    
   113   55   57 1    
   114   57   58 1    
   115   57   59 1    
   116   57  180 1    
   117   58  181 1    
   118   58  182 1    
   119   58  183 1    
   120   59   60 am   BACKBONE|DICT|INTERRES
   121   59  184 1    
   122   60   61 2    
   123   60   62 1    
   124   62   63 1    
   125   62   64 1    
   126   62  185 1    
   127   63  186 1    
   128   63  187 1    
   129   63  188 1    
   130   64   65 am   BACKBONE|DICT|INTERRES
   131   64  189 1    
   132   65   66 2    
   133   67   68 2    
   134   67   69 am   BACKBONE|DICT|INTERRES
   135   69   70 1    
   136   69  190 1    
   137   70   71 1    
   138   70   72 1    
   139   70  191 1    
   140   71  192 1    
   141   71  193 1    
   142   71  194 1    
   143   72   73 2    
   144   72   74 am   BACKBONE|DICT|INTERRES
   145   74   75 1    
   146   74  195 1    
   147   75   76 1    
   148   75   77 1    
   149   75  196 1    
   150   76  197 1    
   151   76  198 1    
   152   76  199 1    
   153   77   78 2    
   154   77   79 am   BACKBONE|DICT|INTERRES
   155   79   80 1    
   156   79  200 1    
   157   80   81 1    
   158   80   82 1    
   159   80  201 1    
   160   81  202 1    
   161   81  203 1    
   162   81  204 1    
   163   82   83 2    
   164   82   84 am   BACKBONE|DICT|INTERRES
   165   84   85 1    
   166   84  205 1    
   167   85   86 1    
   168   85   87 1    
   169   85  206 1    
   170   86  207 1    
   171   86  208 1    
   172   86  209 1    
   173   87   88 2    
   174   87   89 am   BACKBONE|DICT|INTERRES
   175   89   90 1    
   176   89  210 1    
   177   90   91 1    
   178   90   92 1    
   179   90  211 1    
   180   91  212 1    
   181   91  213 1    
   182   91  214 1    
   183   92   93 2    
   184   92   94 am   BACKBONE|DICT|INTERRES
   185   94   95 1    
   186   94  215 1    
   187   95   96 1    
   188   95   97 1    
   189   95  216 1    
   190   96  217 1    
   191   96  218 1    
   192   96  219 1    
   193   97   98 2    
   194   97   99 am   BACKBONE|DICT|INTERRES
   195   99  100 1    
   196   99  220 1    
   197  100  101 1    
   198  100  102 1    
   199  100  221 1    
   200  101  222 1    
   201  101  223 1    
   202  101  224 1    
   203  102  103 2    
   204  102  104 am   BACKBONE|DICT|INTERRES
   205  104  105 1    
   206  104  225 1    
   207  105  106 1    
   208  105  107 1    
   209  105  226 1    
   210  106  227 1    
   211  106  228 1    
   212  106  229 1    
   213  107  108 2    
   214  107  109 am   BACKBONE|DICT|INTERRES
   215  109  110 1    
   216  109  230 1    
   217  110  111 1    
   218  110  112 1    
   219  110  231 1    
   220  111  232 1    
   221  111  233 1    
   222  111  234 1    
   223  112  113 2    
   224  112  114 am   BACKBONE|DICT|INTERRES
   225  114  115 1    
   226  114  235 1    
   227  115  116 1    
   228  115  117 1    
   229  115  236 1    
   230  116  237 1    
   231  116  238 1    
   232  116  239 1    
   233  117  118 2    
   234  117  119 am   BACKBONE|DICT|INTERRES
   235  119  120 1    
   236  119  240 1    
   237  120  121 1    
   238  120  124 1    
   239  120  241 1    
   240  121  122 am   BACKBONE|DICT|INTERRES
   241  121  123 2    
   242  122  242 1    
   243  122  243 1    
   244  124  125 1    
   245  124  244 1    
   246  124  245 1    
   247  125  126 1    
   248  126  246 1    
   249  126  247 1    
@<TRIPOS>SUBSTRUCTURE
     1 UNK         1 GROUP             0       ****    0 ROOT    
