@<TRIPOS>MOLECULE
3R540
247   249    1
SMALL
USER_CHARGES


@<TRIPOS>ATOM
      1 CA         -0.0901  -10.4521  -46.0958 C.3       0 UNK        -0.1800 
      2 C           1.0342  -10.5270  -47.1192 C.2       0 UNK         0.5000 
      3 O           1.8035   -9.5767  -47.2609 O.2       0 UNK        -0.5000 
      4 N           1.1360  -11.6602  -47.8248 N.am      1 UNK        -0.5000 
      5 CA          2.1679  -11.9423  -48.8362 C.3       1 UNK         0.1400 
      6 C6          1.7394  -13.1034  -49.7715 C.3       23 UNK        -0.0398 
      7 S7          0.2584  -12.6863  -50.7552 S.3       23 UNK        -0.2404 
      8 C8         -1.0637  -13.6495  -49.9412 C.3       23 UNK        -0.0205 
      9 C9         -1.0284  -15.1412  -50.2612 C.ar      23 UNK        -0.0193 
     10 C10        -0.9433  -15.5848  -51.5861 C.ar      23 UNK        -0.1150 
     11 C11        -0.9648  -16.9503  -51.8834 C.ar      23 UNK        -0.0193 
     12 C12        -1.0641  -17.8762  -50.8420 C.ar      23 UNK        -0.1150 
     13 C13        -1.1619  -17.4522  -49.5146 C.ar      23 UNK        -0.0193 
     14 C14        -1.1506  -16.0833  -49.2331 C.ar      23 UNK        -0.1150 
     15 C15        -1.2854  -18.4763  -48.3947 C.3       23 UNK        -0.0205 
     16 S16        -2.9667  -18.4907  -47.6817 S.3       23 UNK        -0.2404 
     17 C17        -3.2325  -20.1243  -46.8831 C.3       23 UNK        -0.0398 
     18 CA         -2.1053  -21.1815  -46.9817 C.3       11 UNK         0.1400 
     19 N          -0.8828  -20.7721  -46.2848 N.am      11 UNK        -0.5000 
     20 C           0.3200  -21.3290  -46.4831 C.2       10 UNK         0.5000 
     21 O           0.5274  -22.2308  -47.2923 O.2       10 UNK        -0.5000 
     22 CA          1.4742  -20.8180  -45.6031 C.3       10 UNK         0.1400 
     23 CB          2.1246  -19.5775  -46.2321 C.3       10 UNK        -0.1800 
     24 N           1.0416  -20.5179  -44.2367 N.am      10 UNK        -0.5000 
     25 C           0.6303  -21.4477  -43.3625 C.2       9 UNK         0.5000 
     26 O           0.6130  -22.6532  -43.6058 O.2       9 UNK        -0.5000 
     27 CA          0.0964  -20.9419  -42.0130 C.3       9 UNK         0.1400 
     28 CB          1.2512  -20.6965  -41.0303 C.3       9 UNK        -0.1800 
     29 N          -0.6837  -19.7149  -42.1503 N.am      9 UNK        -0.5000 
     30 C          -1.8503  -19.5920  -42.7951 C.2       8 UNK         0.5000 
     31 O          -2.4092  -20.5341  -43.3580 O.2       8 UNK        -0.5000 
     32 CA         -2.4667  -18.1789  -42.8830 C.3       8 UNK         0.1400 
     33 CB         -3.9787  -18.1845  -42.5837 C.3       8 UNK        -0.1800 
     34 N          -1.7636  -17.1596  -42.0903 N.am      8 UNK        -0.5000 
     35 C          -1.6677  -17.0529  -40.7552 C.2       7 UNK         0.5000 
     36 O          -2.2341  -17.8089  -39.9660 O.2       7 UNK        -0.5000 
     37 CA         -0.7450  -15.9465  -40.1977 C.3       7 UNK         0.1400 
     38 CB          0.5083  -16.5749  -39.5668 C.3       7 UNK        -0.1800 
     39 N          -0.3164  -14.9746  -41.2058 N.am      7 UNK        -0.5000 
     40 C          -1.0821  -13.9962  -41.7083 C.2       6 UNK         0.5000 
     41 O          -2.2218  -13.7472  -41.3148 O.2       6 UNK        -0.5000 
     42 CA         -0.4877  -13.1983  -42.8858 C.3       6 UNK         0.1400 
     43 CB          0.3865  -12.0427  -42.3762 C.3       6 UNK        -0.1800 
     44 N           0.2996  -14.0380  -43.7924 N.am      6 UNK        -0.5000 
     45 C          -0.1904  -15.0542  -44.5159 C.2       5 UNK         0.5000 
     46 O          -1.3806  -15.3612  -44.5438 O.2       5 UNK        -0.5000 
     47 CA          0.8224  -15.9137  -45.2877 C.3       5 UNK         0.1400 
     48 CB          1.1940  -15.2781  -46.6326 C.3       5 UNK        -0.1800 
     49 N           2.0350  -16.1599  -44.5086 N.am      5 UNK        -0.5000 
     50 C           2.1186  -17.0370  -43.5012 C.2       4 UNK         0.5000 
     51 O           1.2017  -17.7926  -43.1852 O.2       4 UNK        -0.5000 
     52 CA          3.4382  -17.0797  -42.7098 C.3       4 UNK         0.1400 
     53 CB          4.3674  -18.1627  -43.2755 C.3       4 UNK        -0.1800 
     54 N           4.1397  -15.7944  -42.6980 N.am      4 UNK        -0.5000 
     55 C           3.7187  -14.7126  -42.0275 C.2       3 UNK         0.5000 
     56 O           2.7003  -14.6926  -41.3360 O.2       3 UNK        -0.5000 
     57 CA          4.5418  -13.4229  -42.2205 C.3       3 UNK         0.1400 
     58 CB          5.7805  -13.4271  -41.3124 C.3       3 UNK        -0.1800 
     59 N           4.9537  -13.2072  -43.6138 N.am      3 UNK        -0.5000 
     60 C           4.0944  -13.0501  -44.6282 C.2       2 UNK         0.5000 
     61 O           2.8681  -13.0675  -44.4799 O.2       2 UNK        -0.5000 
     62 CA          4.6799  -12.9024  -46.0426 C.3       2 UNK         0.1400 
     63 CB          5.3033  -14.2347  -46.5068 C.3       2 UNK        -0.1800 
     64 N           3.5670  -12.5269  -46.9059 N.am      2 UNK        -0.5000 
     65 C           3.5548  -12.2263  -48.2077 C.2       1 UNK         0.5000 
     66 O           4.5664  -12.1692  -48.9076 O.2       1 UNK        -0.5000 
     67 C          -2.5872  -22.5618  -46.4878 C.2       11 UNK         0.5000 
     68 O          -3.0289  -23.3734  -47.3030 O.2       11 UNK        -0.5000 
     69 N          -2.4513  -22.8245  -45.1796 N.am      12 UNK        -0.5000 
     70 CA         -2.7106  -24.1268  -44.5655 C.3       12 UNK         0.1400 
     71 CB         -2.6788  -23.9963  -43.0356 C.3       12 UNK        -0.1800 
     72 C          -1.7263  -25.2064  -45.0525 C.2       12 UNK         0.5000 
     73 O          -2.1604  -26.3036  -45.4026 O.2       12 UNK        -0.5000 
     74 N          -0.4311  -24.8638  -45.1255 N.am      13 UNK        -0.5000 
     75 CA          0.6326  -25.7171  -45.6662 C.3       13 UNK         0.1400 
     76 CB          1.9979  -25.0604  -45.4143 C.3       13 UNK        -0.1800 
     77 C           0.4504  -26.0349  -47.1634 C.2       13 UNK         0.5000 
     78 O           0.7561  -27.1483  -47.5909 O.2       13 UNK        -0.5000 
     79 N          -0.0917  -25.0709  -47.9196 N.am      14 UNK        -0.5000 
     80 CA         -0.4958  -25.2162  -49.3194 C.3       14 UNK         0.1400 
     81 CB         -0.5832  -23.8203  -49.9606 C.3       14 UNK        -0.1800 
     82 C          -1.8234  -25.9831  -49.5050 C.2       14 UNK         0.5000 
     83 O          -2.2550  -26.1494  -50.6449 O.2       14 UNK        -0.5000 
     84 N          -2.4663  -26.4127  -48.4074 N.am      15 UNK        -0.5000 
     85 CA         -3.7365  -27.1448  -48.3519 C.3       15 UNK         0.1400 
     86 CB         -3.5767  -28.5597  -48.9463 C.3       15 UNK        -0.1800 
     87 C          -4.9113  -26.3562  -48.9676 C.2       15 UNK         0.5000 
     88 O          -5.7694  -26.9393  -49.6324 O.2       15 UNK        -0.5000 
     89 N          -4.9109  -25.0343  -48.7392 N.am      16 UNK        -0.5000 
     90 CA         -5.8802  -24.0446  -49.2172 C.3       16 UNK         0.1400 
     91 CB         -7.2954  -24.3313  -48.6735 C.3       16 UNK        -0.1800 
     92 C          -5.8631  -23.8215  -50.7446 C.2       16 UNK         0.5000 
     93 O          -6.8001  -23.2236  -51.2767 O.2       16 UNK        -0.5000 
     94 N          -4.7776  -24.2236  -51.4285 N.am      17 UNK        -0.5000 
     95 CA         -4.5629  -23.9994  -52.8663 C.3       17 UNK         0.1400 
     96 CB         -3.3083  -24.7512  -53.3280 C.3       17 UNK        -0.1800 
     97 C          -4.4758  -22.5109  -53.2627 C.2       17 UNK         0.5000 
     98 O          -4.6605  -22.1841  -54.4348 O.2       17 UNK        -0.5000 
     99 N          -4.2662  -21.6341  -52.2714 N.am      18 UNK        -0.5000 
    100 CA        -4.3708  -20.1765  -52.3502 C.3       18 UNK         0.1400 
    101 CB        -4.0608  -19.6047  -50.9598 C.3       18 UNK        -0.1800 
    102 C         -5.7472  -19.6664  -52.8304 C.2       18 UNK         0.5000 
    103 O         -5.8278  -18.5616  -53.3664 O.2       18 UNK        -0.5000 
    104 N         -6.8053  -20.4684  -52.6356 N.am      19 UNK        -0.5000 
    105 CA        -8.1519  -20.1829  -53.1315 C.3       19 UNK         0.1400 
    106 CB        -9.1640  -21.0319  -52.3474 C.3       19 UNK        -0.1800 
    107 C         -8.2983  -20.4359  -54.6456 C.2       19 UNK         0.5000 
    108 O         -9.1647  -19.8261  -55.2737 O.2       19 UNK        -0.5000 
    109 N         -7.4691  -21.3308  -55.2005 N.am      20 UNK        -0.5000 
    110 CA        -7.4712  -21.7028  -56.6145 C.3       20 UNK         0.1400 
    111 CB        -7.2089  -23.2128  -56.7394 C.3       20 UNK        -0.1800 
    112 C         -6.4235  -20.9021  -57.4040 C.2       20 UNK         0.5000 
    113 O         -6.7364  -20.3803  -58.4751 O.2       20 UNK        -0.5000 
    114 N         -5.2049  -20.8177  -56.8607 N.am      21 UNK        -0.5000 
    115 CA        -4.0595  -20.1270  -57.4389 C.3       21 UNK         0.1400 
    116 CB        -3.4380  -20.9741  -58.5716 C.3       21 UNK        -0.1800 
    117 C         -3.0933  -19.7999  -56.2914 C.2       21 UNK         0.5000 
    118 O         -3.3682  -18.8797  -55.5232 O.2       21 UNK        -0.5000 
    119 N         -1.9997  -20.5599  -56.1748 N.am      22 UNK        -0.5000 
    120 CA        -1.0123  -20.4719  -55.0885 C.3       22 UNK         0.1400 
    121 C         -0.2922  -21.8282  -54.8259 C.2       22 UNK         0.5000 
    122 N         -0.8663  -22.9613  -55.2154 N.am      22 UNK        -0.7600 
    123 O          0.7976  -21.8689  -54.2629 O.2       22 UNK        -0.5000 
    124 C124       -0.0545  -19.2556  -55.2601 C.3       23 UNK        -0.0398 
    125 S125        0.4659  -18.5369  -53.6650 S.3       23 UNK        -0.2404 
    126 C126       -0.9401  -17.4297  -53.3273 C.3       23 UNK        -0.0205 
    127 H127       -0.5145  -11.4350  -45.8884 H         1 UNK         0.0600 
    128 H128        0.2826  -10.0415  -45.1576 H         1 UNK         0.0600 
    129 H129       -0.8862   -9.8029  -46.4599 H         1 UNK         0.0600 
    130 H130        0.4566  -12.3904  -47.6781 H         1 UNK         0.3000 
    131 H131        2.2883  -11.0469  -49.4502 H         1 UNK         0.0600 
    132 H132        1.5664  -14.0220  -49.2100 H         1 UNK         0.0800 
    133 H133        2.5362  -13.3326  -50.4816 H         1 UNK         0.0800 
    134 H134       -2.0257  -13.2569  -50.2733 H         1 UNK         0.0800 
    135 H135       -1.0238  -13.4794  -48.8651 H         1 UNK         0.0800 
    136 H136       -0.8806  -14.8625  -52.3878 H         1 UNK         0.1150 
    137 H137       -1.0774  -18.9315  -51.0737 H         1 UNK         0.1150 
    138 H138       -1.2687  -15.7596  -48.2103 H         1 UNK         0.1150 
    139 H139       -1.0196  -19.4559  -48.7873 H         1 UNK         0.0800 
    140 H140       -0.5635  -18.2457  -47.6114 H         1 UNK         0.0800 
    141 H141       -4.1458  -20.5249  -47.3272 H         1 UNK         0.0800 
    142 H142       -3.4784  -19.9397  -45.8362 H         1 UNK         0.0800 
    143 H143       -1.8710  -21.3197  -48.0379 H         1 UNK         0.0600 
    144 H144       -0.9806  -20.0669  -45.5709 H         1 UNK         0.3000 
    145 H145        2.2281  -21.6063  -45.5544 H         1 UNK         0.0600 
    146 H146        3.0013  -19.2625  -45.6682 H         1 UNK         0.0600 
    147 H147        2.4544  -19.7845  -47.2510 H         1 UNK         0.0600 
    148 H148        1.4339  -18.7376  -46.2774 H         1 UNK         0.0600 
    149 H149        1.0300  -19.5445  -43.9458 H         1 UNK         0.3000 
    150 H150       -0.5553  -21.7126  -41.5970 H         1 UNK         0.0600 
    151 H151        1.9262  -19.9171  -41.3863 H         1 UNK         0.0600 
    152 H152        1.8412  -21.6027  -40.8874 H         1 UNK         0.0600 
    153 H153        0.8777  -20.3939  -40.0518 H         1 UNK         0.0600 
    154 H154       -0.2457  -18.8659  -41.8213 H         1 UNK         0.3000 
    155 H155       -2.3458  -17.8745  -43.9234 H         1 UNK         0.0600 
    156 H156       -4.1951  -18.5592  -41.5832 H         1 UNK         0.0600 
    157 H157       -4.5135  -18.8204  -43.2901 H         1 UNK         0.0600 
    158 H158       -4.4001  -17.1828  -42.6675 H         1 UNK         0.0600 
    159 H159       -1.2691  -16.4721  -42.6441 H         1 UNK         0.3000 
    160 H160       -1.2966  -15.4199  -39.4162 H         1 UNK         0.0600 
    161 H161        1.0959  -17.1241  -40.3032 H         1 UNK         0.0600 
    162 H162        0.2418  -17.2732  -38.7724 H         1 UNK         0.0600 
    163 H163        1.1522  -15.8135  -39.1260 H         1 UNK         0.0600 
    164 H164        0.6410  -15.0522  -41.5317 H         1 UNK         0.3000 
    165 H165       -1.3168  -12.7752  -43.4567 H         1 UNK         0.0600 
    166 H166        0.7843  -11.4539  -43.2023 H         1 UNK         0.0600 
    167 H167       -0.1890  -11.3683  -41.7412 H         1 UNK         0.0600 
    168 H168        1.2318  -12.4049  -41.7906 H         1 UNK         0.0600 
    169 H169        1.2883  -13.8127  -43.8704 H         1 UNK         0.3000 
    170 H170        0.3284  -16.8649  -45.4944 H         1 UNK         0.0600 
    171 H171        1.9566  -14.5163  -46.5147 H         1 UNK         0.0600 
    172 H172        0.3369  -14.7966  -47.0989 H         1 UNK         0.0600 
    173 H173        1.5770  -16.0256  -47.3275 H         1 UNK         0.0600 
    174 H174        2.8203  -15.5517  -44.6817 H         1 UNK         0.3000 
    175 H175        3.1940  -17.3472  -41.6797 H         1 UNK         0.0600 
    176 H176        4.6681  -17.9419  -44.3004 H         1 UNK         0.0600 
    177 H177        5.2715  -18.2584  -42.6741 H         1 UNK         0.0600 
    178 H178        3.8767  -19.1373  -43.2772 H         1 UNK         0.0600 
    179 H179        4.9857  -15.7275  -43.2446 H         1 UNK         0.3000 
    180 H180        3.9083  -12.5833  -41.9264 H         1 UNK         0.0600 
    181 H181        6.3169  -12.4800  -41.3736 H         1 UNK         0.0600 
    182 H182        6.4751  -14.2246  -41.5788 H         1 UNK         0.0600 
    183 H183        5.4984  -13.5721  -40.2686 H         1 UNK         0.0600 
    184 H184        5.9468  -13.1863  -43.7967 H         1 UNK         0.3000 
    185 H185        5.4258  -12.1059  -46.0439 H         1 UNK         0.0600 
    186 H186        5.7363  -14.1486  -47.5031 H         1 UNK         0.0600 
    187 H187        6.1072  -14.5496  -45.8408 H         1 UNK         0.0600 
    188 H188        4.5650  -15.0372  -46.5341 H         1 UNK         0.0600 
    189 H189        2.6902  -12.4954  -46.3989 H         1 UNK         0.3000 
    190 H190       -2.1504  -22.0810  -44.5573 H         1 UNK         0.3000 
    191 H191       -3.7162  -24.4380  -44.8563 H         1 UNK         0.0600 
    192 H192       -2.9215  -24.9467  -42.5589 H         1 UNK         0.0600 
    193 H193       -3.4057  -23.2620  -42.6878 H         1 UNK         0.0600 
    194 H194       -1.6973  -23.6904  -42.6747 H         1 UNK         0.0600 
    195 H195       -0.1419  -23.9614  -44.7565 H         1 UNK         0.3000 
    196 H196        0.6058  -26.6638  -45.1228 H         1 UNK         0.0600 
    197 H197        2.0785  -24.0959  -45.9157 H         1 UNK         0.0600 
    198 H198        2.1678  -24.8997  -44.3495 H         1 UNK         0.0600 
    199 H199        2.8087  -25.6906  -45.7816 H         1 UNK         0.0600 
    200 H200       -0.2385  -24.1577  -47.5043 H         1 UNK         0.3000 
    201 H201        0.2770  -25.7806  -49.8449 H         1 UNK         0.0600 
    202 H202       -1.3696  -23.2178  -49.5069 H         1 UNK         0.0600 
    203 H203       -0.7969  -23.8885  -51.0277 H         1 UNK         0.0600 
    204 H204        0.3570  -23.2784  -49.8572 H         1 UNK         0.0600 
    205 H205       -2.0561  -26.2075  -47.5042 H         1 UNK         0.3000 
    206 H206       -3.9751  -27.2599  -47.2939 H         1 UNK         0.0600 
    207 H207       -2.7470  -29.0907  -48.4796 H         1 UNK         0.0600 
    208 H208       -4.4750  -29.1562  -48.7832 H         1 UNK         0.0600 
    209 H209       -3.3946  -28.5307  -50.0210 H         1 UNK         0.0600 
    210 H210       -4.1436  -24.6437  -48.1959 H         1 UNK         0.3000 
    211 H211       -5.5588  -23.0963  -48.7843 H         1 UNK         0.0600 
    212 H212       -7.9700  -23.4999  -48.8814 H         1 UNK         0.0600 
    213 H213       -7.2818  -24.4725  -47.5928 H         1 UNK         0.0600 
    214 H214       -7.7323  -25.2225  -49.1245 H         1 UNK         0.0600 
    215 H215       -4.0543  -24.7367  -50.9400 H         1 UNK         0.3000 
    216 H216       -5.4209  -24.4191  -53.3951 H         1 UNK         0.0600 
    217 H217       -2.4095  -24.3731  -52.8402 H         1 UNK         0.0600 
    218 H218       -3.1670  -24.6505  -54.4046 H         1 UNK         0.0600 
    219 H219       -3.3863  -25.8171  -53.1138 H         1 UNK         0.0600 
    220 H220       -4.1193  -22.0157  -51.3497 H         1 UNK         0.3000 
    221 H221       -3.6152  -19.8229  -53.0512 H         1 UNK         0.0600 
    222 H222       -4.8281  -19.8737  -50.2326 H         1 UNK         0.0600 
    223 H223       -4.0046  -18.5156  -50.9882 H         1 UNK         0.0600 
    224 H224       -3.1074  -19.9721  -50.5821 H         1 UNK         0.0600 
    225 H225       -6.6774  -21.3586  -52.1657 H         1 UNK         0.3000 
    226 H226       -8.3777  -19.1306  -52.9460 H         1 UNK         0.0600 
    227 H227       -9.0062  -22.0988  -52.5105 H         1 UNK         0.0600 
    228 H228       -9.0930  -20.8429  -51.2761 H         1 UNK         0.0600 
    229 H229      -10.1858  -20.8015  -52.6518 H         1 UNK         0.0600 
    230 H230       -6.7419  -21.7394  -54.6285 H         1 UNK         0.3000 
    231 H231       -8.4504  -21.4995  -57.0533 H         1 UNK         0.0600 
    232 H232       -6.2459  -23.4965  -56.3132 H         1 UNK         0.0600 
    233 H233       -7.2089  -23.5229  -57.7851 H         1 UNK         0.0600 
    234 H234       -7.9816  -23.7885  -56.2298 H         1 UNK         0.0600 
    235 H235       -5.0323  -21.2629  -55.9605 H         1 UNK         0.3000 
    236 H236       -4.3890  -19.1735  -57.8569 H         1 UNK         0.0600 
    237 H237       -4.1280  -21.0709  -59.4098 H         1 UNK         0.0600 
    238 H238       -2.5311  -20.5089  -58.9602 H         1 UNK         0.0600 
    239 H239       -3.1865  -21.9818  -58.2388 H         1 UNK         0.0600 
    240 H240       -1.8266  -21.2775  -56.8640 H         1 UNK         0.3000 
    241 H241       -1.5879  -20.3171  -54.1751 H         1 UNK         0.0600 
    242 H242       -0.3851  -23.8307  -55.0473 H         1 UNK         0.3800 
    243 H243       -1.7863  -22.9732  -55.6233 H         1 UNK         0.3800 
    244 H244       -0.5320  -18.4619  -55.8362 H         1 UNK         0.0800 
    245 H245        0.8312  -19.5347  -55.8328 H         1 UNK         0.0800 
    246 H246       -0.9038  -16.5872  -54.0196 H         1 UNK         0.0800 
    247 H247       -1.8759  -17.9525  -53.5253 H         1 UNK         0.0800 
@<TRIPOS>BOND
     1    1    2 1    
     2    1  127 1    
     3    1  128 1    
     4    1  129 1    
     5    2    3 2    
     6    2    4 am   BACKBONE|DICT|INTERRES
     7    4    5 1    
     8    4  130 1    
     9    5    6 1    
    10    5   65 1    
    11    5  131 1    
    12    6    7 1    
    13    6  132 1    
    14    6  133 1    
    15    7    8 1    
    16    8    9 1    
    17    8  134 1    
    18    8  135 1    
    19    9   10 ar   
    20    9   14 ar   
    21   10   11 ar   
    22   10  136 1    
    23   11   12 ar   
    24   11  126 1    
    25   12   13 ar   
    26   12  137 1    
    27   13   14 ar   
    28   13   15 1    
    29   14  138 1    
    30   15   16 1    
    31   15  139 1    
    32   15  140 1    
    33   16   17 1    
    34   17   18 1    
    35   17  141 1    
    36   17  142 1    
    37   18   19 1    
    38   18   67 1    
    39   18  143 1    
    40   19   20 am   BACKBONE|DICT|INTERRES
    41   19  144 1    
    42   20   21 2    
    43   20   22 1    
    44   22   23 1    
    45   22   24 1    
    46   22  145 1    
    47   23  146 1    
    48   23  147 1    
    49   23  148 1    
    50   24   25 am   BACKBONE|DICT|INTERRES
    51   24  149 1    
    52   25   26 2    
    53   25   27 1    
    54   27   28 1    
    55   27   29 1    
    56   27  150 1    
    57   28  151 1    
    58   28  152 1    
    59   28  153 1    
    60   29   30 am   BACKBONE|DICT|INTERRES
    61   29  154 1    
    62   30   31 2    
    63   30   32 1    
    64   32   33 1    
    65   32   34 1    
    66   32  155 1    
    67   33  156 1    
    68   33  157 1    
    69   33  158 1    
    70   34   35 am   BACKBONE|DICT|INTERRES
    71   34  159 1    
    72   35   36 2    
    73   35   37 1    
    74   37   38 1    
    75   37   39 1    
    76   37  160 1    
    77   38  161 1    
    78   38  162 1    
    79   38  163 1    
    80   39   40 am   BACKBONE|DICT|INTERRES
    81   39  164 1    
    82   40   41 2    
    83   40   42 1    
    84   42   43 1    
    85   42   44 1    
    86   42  165 1    
    87   43  166 1    
    88   43  167 1    
    89   43  168 1    
    90   44   45 am   BACKBONE|DICT|INTERRES
    91   44  169 1    
    92   45   46 2    
    93   45   47 1    
    94   47   48 1    
    95   47   49 1    
    96   47  170 1    
    97   48  171 1    
    98   48  172 1    
    99   48  173 1    
   100   49   50 am   BACKBONE|DICT|INTERRES
   101   49  174 1    
   102   50   51 2    
   103   50   52 1    
   104   52   53 1    
   105   52   54 1    
   106   52  175 1    
   107   53  176 1    
   108   53  177 1    
   109   53  178 1    
   110   54   55 am   BACKBONE|DICT|INTERRES
   111   54  179 1    
   112   55   56 2    
   113   55   57 1    
   114   57   58 1    
   115   57   59 1    
   116   57  180 1    
   117   58  181 1    
   118   58  182 1    
   119   58  183 1    
   120   59   60 am   BACKBONE|DICT|INTERRES
   121   59  184 1    
   122   60   61 2    
   123   60   62 1    
   124   62   63 1    
   125   62   64 1    
   126   62  185 1    
   127   63  186 1    
   128   63  187 1    
   129   63  188 1    
   130   64   65 am   BACKBONE|DICT|INTERRES
   131   64  189 1    
   132   65   66 2    
   133   67   68 2    
   134   67   69 am   BACKBONE|DICT|INTERRES
   135   69   70 1    
   136   69  190 1    
   137   70   71 1    
   138   70   72 1    
   139   70  191 1    
   140   71  192 1    
   141   71  193 1    
   142   71  194 1    
   143   72   73 2    
   144   72   74 am   BACKBONE|DICT|INTERRES
   145   74   75 1    
   146   74  195 1    
   147   75   76 1    
   148   75   77 1    
   149   75  196 1    
   150   76  197 1    
   151   76  198 1    
   152   76  199 1    
   153   77   78 2    
   154   77   79 am   BACKBONE|DICT|INTERRES
   155   79   80 1    
   156   79  200 1    
   157   80   81 1    
   158   80   82 1    
   159   80  201 1    
   160   81  202 1    
   161   81  203 1    
   162   81  204 1    
   163   82   83 2    
   164   82   84 am   BACKBONE|DICT|INTERRES
   165   84   85 1    
   166   84  205 1    
   167   85   86 1    
   168   85   87 1    
   169   85  206 1    
   170   86  207 1    
   171   86  208 1    
   172   86  209 1    
   173   87   88 2    
   174   87   89 am   BACKBONE|DICT|INTERRES
   175   89   90 1    
   176   89  210 1    
   177   90   91 1    
   178   90   92 1    
   179   90  211 1    
   180   91  212 1    
   181   91  213 1    
   182   91  214 1    
   183   92   93 2    
   184   92   94 am   BACKBONE|DICT|INTERRES
   185   94   95 1    
   186   94  215 1    
   187   95   96 1    
   188   95   97 1    
   189   95  216 1    
   190   96  217 1    
   191   96  218 1    
   192   96  219 1    
   193   97   98 2    
   194   97   99 am   BACKBONE|DICT|INTERRES
   195   99  100 1    
   196   99  220 1    
   197  100  101 1    
   198  100  102 1    
   199  100  221 1    
   200  101  222 1    
   201  101  223 1    
   202  101  224 1    
   203  102  103 2    
   204  102  104 am   BACKBONE|DICT|INTERRES
   205  104  105 1    
   206  104  225 1    
   207  105  106 1    
   208  105  107 1    
   209  105  226 1    
   210  106  227 1    
   211  106  228 1    
   212  106  229 1    
   213  107  108 2    
   214  107  109 am   BACKBONE|DICT|INTERRES
   215  109  110 1    
   216  109  230 1    
   217  110  111 1    
   218  110  112 1    
   219  110  231 1    
   220  111  232 1    
   221  111  233 1    
   222  111  234 1    
   223  112  113 2    
   224  112  114 am   BACKBONE|DICT|INTERRES
   225  114  115 1    
   226  114  235 1    
   227  115  116 1    
   228  115  117 1    
   229  115  236 1    
   230  116  237 1    
   231  116  238 1    
   232  116  239 1    
   233  117  118 2    
   234  117  119 am   BACKBONE|DICT|INTERRES
   235  119  120 1    
   236  119  240 1    
   237  120  121 1    
   238  120  124 1    
   239  120  241 1    
   240  121  122 am   BACKBONE|DICT|INTERRES
   241  121  123 2    
   242  122  242 1    
   243  122  243 1    
   244  124  125 1    
   245  124  244 1    
   246  124  245 1    
   247  125  126 1    
   248  126  246 1    
   249  126  247 1    
@<TRIPOS>SUBSTRUCTURE
     1 UNK         1 GROUP             0       ****    0 ROOT    
