@<TRIPOS>MOLECULE
3R540
247   249    1
SMALL
USER_CHARGES


@<TRIPOS>ATOM
      1 CA         -1.4444  -15.7844  -50.9942 C.3       0 UNK        -0.1800 
      2 C          -0.3067  -15.2189  -50.1563 C.2       0 UNK         0.5000 
      3 O          -0.1473  -15.6073  -48.9988 O.2       0 UNK        -0.5000 
      4 N           0.4691  -14.2920  -50.7346 N.am      1 UNK        -0.5000 
      5 CA          1.6302  -13.5841  -50.1695 C.3       1 UNK         0.1400 
      6 C6          2.8220  -14.5056  -49.7937 C.3       23 UNK        -0.0398 
      7 S7          3.6243  -15.2446  -51.2564 S.3       23 UNK        -0.2404 
      8 C8          3.8802  -16.9675  -50.7261 C.3       23 UNK        -0.0205 
      9 C9          2.6798  -17.8398  -51.0543 C.ar      23 UNK        -0.0193 
     10 C10         2.5568  -18.4033  -52.3272 C.ar      23 UNK        -0.1150 
     11 C11         1.4520  -19.1950  -52.6480 C.ar      23 UNK        -0.0193 
     12 C12         0.4747  -19.4321  -51.6798 C.ar      23 UNK        -0.1150 
     13 C13         0.5829  -18.8802  -50.4018 C.ar      23 UNK        -0.0193 
     14 C14         1.6930  -18.0844  -50.0955 C.ar      23 UNK        -0.1150 
     15 C15        -0.5387  -19.1122  -49.3943 C.3       23 UNK        -0.0205 
     16 S16         0.0392  -19.4160  -47.6961 S.3       23 UNK        -0.2404 
     17 C17         0.8216  -21.0505  -47.8739 C.3       23 UNK        -0.0398 
     18 CA          0.1948  -22.1761  -47.0192 C.3       11 UNK         0.1400 
     19 N           0.4524  -22.0198  -45.5842 N.am      11 UNK        -0.5000 
     20 C           0.4301  -23.0499  -44.7264 C.2       10 UNK         0.5000 
     21 O           0.1852  -24.2075  -45.0671 O.2       10 UNK        -0.5000 
     22 CA          0.6896  -22.7447  -43.2415 C.3       10 UNK         0.1400 
     23 CB          2.1873  -22.5279  -42.9782 C.3       10 UNK        -0.1800 
     24 N          -0.0767  -21.6004  -42.7500 N.am      10 UNK        -0.5000 
     25 C          -1.4151  -21.5568  -42.6888 C.2       9 UNK         0.5000 
     26 O          -2.1451  -22.4820  -43.0429 O.2       9 UNK        -0.5000 
     27 CA         -2.0500  -20.2512  -42.1784 C.3       9 UNK         0.1400 
     28 CB         -2.0093  -20.1882  -40.6444 C.3       9 UNK        -0.1800 
     29 N          -1.4175  -19.0588  -42.7414 N.am      9 UNK        -0.5000 
     30 C          -1.4216  -18.7478  -44.0458 C.2       8 UNK         0.5000 
     31 O          -2.0046  -19.4113  -44.9015 O.2       8 UNK        -0.5000 
     32 CA         -0.5980  -17.5189  -44.4701 C.3       8 UNK         0.1400 
     33 CB         -1.3564  -16.2162  -44.1747 C.3       8 UNK        -0.1800 
     34 N           0.7165  -17.4781  -43.8315 N.am      8 UNK        -0.5000 
     35 C           1.6681  -18.4142  -43.9646 C.2       7 UNK         0.5000 
     36 O           1.5639  -19.4160  -44.6726 O.2       7 UNK        -0.5000 
     37 CA          2.9299  -18.2247  -43.1074 C.3       7 UNK         0.1400 
     38 CB          3.8620  -17.1662  -43.7188 C.3       7 UNK        -0.1800 
     39 N           2.5983  -17.8613  -41.7291 N.am      7 UNK        -0.5000 
     40 C           1.9836  -18.6765  -40.8593 C.2       6 UNK         0.5000 
     41 O           1.6611  -19.8357  -41.1168 O.2       6 UNK        -0.5000 
     42 CA          1.6374  -18.0825  -39.4826 C.3       6 UNK         0.1400 
     43 CB          2.8509  -18.1465  -38.5432 C.3       6 UNK        -0.1800 
     44 N           1.1643  -16.7007  -39.5723 N.am      6 UNK        -0.5000 
     45 C           0.0084  -16.3315  -40.1422 C.2       5 UNK         0.5000 
     46 O          -0.7987  -17.1218  -40.6297 O.2       5 UNK        -0.5000 
     47 CA         -0.2613  -14.8180  -40.2274 C.3       5 UNK         0.1400 
     48 CB         -0.8688  -14.2993  -38.9156 C.3       5 UNK        -0.1800 
     49 N           0.9410  -14.0439  -40.5515 N.am      5 UNK        -0.5000 
     50 C           1.6202  -14.1615  -41.6987 C.2       4 UNK         0.5000 
     51 O           1.3068  -14.9410  -42.6034 O.2       4 UNK        -0.5000 
     52 CA          2.8792  -13.3018  -41.8511 C.3       4 UNK         0.1400 
     53 CB          4.0855  -13.9755  -41.1709 C.3       4 UNK        -0.1800 
     54 N           3.1233  -13.1422  -43.2776 N.am      4 UNK        -0.5000 
     55 C           3.9000  -12.2239  -43.8586 C.2       3 UNK         0.5000 
     56 O           4.5778  -11.4033  -43.2386 O.2       3 UNK        -0.5000 
     57 CA          3.9059  -12.2123  -45.3994 C.3       3 UNK         0.1400 
     58 CB          5.0242  -13.1172  -45.9397 C.3       3 UNK        -0.1800 
     59 N           2.6311  -12.6290  -45.9918 N.am      3 UNK        -0.5000 
     60 C           1.4854  -11.9341  -45.9243 C.2       2 UNK         0.5000 
     61 O           1.3703  -10.8697  -45.3141 O.2       2 UNK        -0.5000 
     62 CA          0.2782  -12.5339  -46.6807 C.3       2 UNK         0.1400 
     63 CB         -0.8557  -11.5147  -46.9148 C.3       2 UNK        -0.1800 
     64 N           0.6546  -13.1849  -47.9418 N.am      2 UNK        -0.5000 
     65 C           1.2782  -12.6409  -48.9971 C.2       1 UNK         0.5000 
     66 O           1.5960  -11.4530  -49.0688 O.2       1 UNK        -0.5000 
     67 C          -1.2956  -22.4532  -47.3269 C.2       11 UNK         0.5000 
     68 O          -1.5884  -23.1626  -48.2910 O.2       11 UNK        -0.5000 
     69 N          -2.2127  -21.9562  -46.4822 N.am      12 UNK        -0.5000 
     70 CA         -3.6336  -22.3043  -46.5230 C.3       12 UNK         0.1400 
     71 CB         -4.4488  -21.3390  -45.6517 C.3       12 UNK        -0.1800 
     72 C          -3.8893  -23.7662  -46.1199 C.2       12 UNK         0.5000 
     73 O          -4.6634  -24.4445  -46.7940 O.2       12 UNK        -0.5000 
     74 N          -3.1992  -24.2498  -45.0764 N.am      13 UNK        -0.5000 
     75 CA         -3.2251  -25.6507  -44.6415 C.3       13 UNK         0.1400 
     76 CB         -2.4921  -25.7909  -43.2990 C.3       13 UNK        -0.1800 
     77 C          -2.6394  -26.6156  -45.6920 C.2       13 UNK         0.5000 
     78 O          -3.1324  -27.7350  -45.8323 O.2       13 UNK        -0.5000 
     79 N          -1.6361  -26.1451  -46.4458 N.am      14 UNK        -0.5000 
     80 CA         -1.0584  -26.8258  -47.6078 C.3       14 UNK         0.1400 
     81 CB          0.3278  -26.2265  -47.8938 C.3       14 UNK        -0.1800 
     82 C          -1.9467  -26.7600  -48.8715 C.2       14 UNK         0.5000 
     83 O          -1.6054  -27.3933  -49.8710 O.2       14 UNK        -0.5000 
     84 N          -3.0517  -26.0001  -48.8136 N.am      15 UNK        -0.5000 
     85 CA         -4.0401  -25.7626  -49.8703 C.3       15 UNK         0.1400 
     86 CB         -4.7596  -27.0704  -50.2623 C.3       15 UNK        -0.1800 
     87 C          -3.4775  -24.9902  -51.0817 C.2       15 UNK         0.5000 
     88 O          -3.9538  -25.1790  -52.2017 O.2       15 UNK        -0.5000 
     89 N          -2.4873  -24.1209  -50.8378 N.am      16 UNK        -0.5000 
     90 CA         -1.9034  -23.2301  -51.8418 C.3       16 UNK         0.1400 
     91 CB         -0.4140  -23.0324  -51.5233 C.3       16 UNK        -0.1800 
     92 C          -2.6322  -21.8736  -51.9076 C.2       16 UNK         0.5000 
     93 O          -2.4964  -21.1709  -52.9083 O.2       16 UNK        -0.5000 
     94 N          -3.3846  -21.5316  -50.8533 N.am      17 UNK        -0.5000 
     95 CA         -4.2392  -20.3464  -50.7743 C.3       17 UNK         0.1400 
     96 CB         -4.2547  -19.8497  -49.3136 C.3       17 UNK        -0.1800 
     97 C          -5.6720  -20.6647  -51.2543 C.2       17 UNK         0.5000 
     98 O          -5.9432  -21.7692  -51.7346 O.2       17 UNK        -0.5000 
     99 N          -6.5796  -19.6967  -51.0564 N.am      18 UNK        -0.5000 
    100 CA        -8.0335  -19.7937  -51.2228 C.3       18 UNK         0.1400 
    101 CB        -8.6351  -20.7043  -50.1279 C.3       18 UNK        -0.1800 
    102 C         -8.4317  -20.1911  -52.6570 C.2       18 UNK         0.5000 
    103 O         -8.2556  -19.3840  -53.5697 O.2       18 UNK        -0.5000 
    104 N         -8.9331  -21.4200  -52.8420 N.am      19 UNK        -0.5000 
    105 CA        -9.3462  -21.9855  -54.1294 C.3       19 UNK         0.1400 
    106 CB       -10.0038  -23.3522  -53.8849 C.3       19 UNK        -0.1800 
    107 C         -8.2025  -22.1131  -55.1563 C.2       19 UNK         0.5000 
    108 O         -8.4674  -22.0809  -56.3585 O.2       19 UNK        -0.5000 
    109 N         -6.9579  -22.2287  -54.6730 N.am      20 UNK        -0.5000 
    110 CA        -5.7461  -22.2379  -55.4945 C.3       20 UNK         0.1400 
    111 CB        -4.6952  -23.1242  -54.8115 C.3       20 UNK        -0.1800 
    112 C         -5.2017  -20.8215  -55.7855 C.2       20 UNK         0.5000 
    113 O         -4.2184  -20.7018  -56.5175 O.2       20 UNK        -0.5000 
    114 N         -5.8562  -19.7815  -55.2432 N.am      21 UNK        -0.5000 
    115 CA        -5.5601  -18.3558  -55.3917 C.3       21 UNK         0.1400 
    116 CB        -5.8135  -17.8924  -56.8445 C.3       21 UNK        -0.1800 
    117 C         -4.1667  -17.9954  -54.8401 C.2       21 UNK         0.5000 
    118 O         -3.9872  -18.0107  -53.6218 O.2       21 UNK        -0.5000 
    119 N         -3.2253  -17.6636  -55.7337 N.am      22 UNK        -0.5000 
    120 CA        -1.8346  -17.2789  -55.4362 C.3       22 UNK         0.1400 
    121 C         -1.6661  -15.8645  -54.7948 C.2       22 UNK         0.5000 
    122 N         -2.6878  -15.0162  -54.7887 N.am      22 UNK        -0.7600 
    123 O         -0.5894  -15.5076  -54.3261 O.2       22 UNK        -0.5000 
    124 C124       -1.0610  -18.3985  -54.6811 C.3       23 UNK        -0.0398 
    125 S125        0.6726  -18.5575  -55.2296 S.3       23 UNK        -0.2404 
    126 C126        1.3078  -19.7828  -54.0432 C.3       23 UNK        -0.0205 
    127 H127       -1.1151  -16.6805  -51.5199 H         1 UNK         0.0600 
    128 H128       -1.7902  -15.0613  -51.7329 H         1 UNK         0.0600 
    129 H129       -2.2914  -16.0493  -50.3613 H         1 UNK         0.0600 
    130 H130        0.2595  -14.0396  -51.6906 H         1 UNK         0.3000 
    131 H131        1.9738  -12.9297  -50.9726 H         1 UNK         0.0600 
    132 H132        3.5959  -13.9405  -49.2705 H         1 UNK         0.0800 
    133 H133        2.5040  -15.2867  -49.1029 H         1 UNK         0.0800 
    134 H134        4.7612  -17.3604  -51.2357 H         1 UNK         0.0800 
    135 H135        4.1090  -17.0066  -49.6600 H         1 UNK         0.0800 
    136 H136        3.3123  -18.2100  -53.0759 H         1 UNK         0.1150 
    137 H137       -0.3877  -20.0283  -51.9336 H         1 UNK         0.1150 
    138 H138        1.7768  -17.6372  -49.1153 H         1 UNK         0.1150 
    139 H139       -1.1905  -18.2389  -49.3873 H         1 UNK         0.0800 
    140 H140       -1.1525  -19.9579  -49.7048 H         1 UNK         0.0800 
    141 H141        1.8741  -20.9392  -47.6102 H         1 UNK         0.0800 
    142 H142        0.8222  -21.3420  -48.9238 H         1 UNK         0.0800 
    143 H143        0.7231  -23.0815  -47.3240 H         1 UNK         0.0600 
    144 H144        0.6734  -21.0844  -45.2510 H         1 UNK         0.3000 
    145 H145        0.3746  -23.6196  -42.6690 H         1 UNK         0.0600 
    146 H146        2.3871  -22.4188  -41.9122 H         1 UNK         0.0600 
    147 H147        2.5621  -21.6365  -43.4811 H         1 UNK         0.0600 
    148 H148        2.7733  -23.3766  -43.3330 H         1 UNK         0.0600 
    149 H149        0.4588  -20.8096  -42.4062 H         1 UNK         0.3000 
    150 H150       -3.0969  -20.2495  -42.4883 H         1 UNK         0.0600 
    151 H151       -0.9865  -20.1427  -40.2694 H         1 UNK         0.0600 
    152 H152       -2.4827  -21.0667  -40.2043 H         1 UNK         0.0600 
    153 H153       -2.5407  -19.3121  -40.2726 H         1 UNK         0.0600 
    154 H154       -0.9594  -18.4328  -42.0860 H         1 UNK         0.3000 
    155 H155       -0.4397  -17.5738  -45.5473 H         1 UNK         0.0600 
    156 H156       -2.3300  -16.2123  -44.6661 H         1 UNK         0.0600 
    157 H157       -0.8047  -15.3491  -44.5376 H         1 UNK         0.0600 
    158 H158       -1.5257  -16.0810  -43.1063 H         1 UNK         0.0600 
    159 H159        0.9070  -16.6684  -43.2472 H         1 UNK         0.3000 
    160 H160        3.4659  -19.1760  -43.0866 H         1 UNK         0.0600 
    161 H161        3.3912  -16.1845  -43.7655 H         1 UNK         0.0600 
    162 H162        4.1444  -17.4402  -44.7361 H         1 UNK         0.0600 
    163 H163        4.7819  -17.0702  -43.1420 H         1 UNK         0.0600 
    164 H164        2.7874  -16.9114  -41.4497 H         1 UNK         0.3000 
    165 H165        0.8382  -18.6882  -39.0498 H         1 UNK         0.0600 
    166 H166        2.5933  -17.7988  -37.5426 H         1 UNK         0.0600 
    167 H167        3.2151  -19.1702  -38.4465 H         1 UNK         0.0600 
    168 H168        3.6782  -17.5366  -38.9084 H         1 UNK         0.0600 
    169 H169        1.7675  -15.9842  -39.1967 H         1 UNK         0.3000 
    170 H170       -0.9888  -14.6573  -41.0259 H         1 UNK         0.0600 
    171 H171       -0.1758  -14.4031  -38.0798 H         1 UNK         0.0600 
    172 H172       -1.1423  -13.2471  -38.9968 H         1 UNK         0.0600 
    173 H173       -1.7752  -14.8504  -38.6610 H         1 UNK         0.0600 
    174 H174        1.2589  -13.3870  -39.8531 H         1 UNK         0.3000 
    175 H175        2.6953  -12.3223  -41.4051 H         1 UNK         0.0600 
    176 H176        4.3077  -14.9464  -41.6145 H         1 UNK         0.0600 
    177 H177        4.9817  -13.3607  -41.2527 H         1 UNK         0.0600 
    178 H178        3.9007  -14.1329  -40.1077 H         1 UNK         0.0600 
    179 H179        2.5684  -13.7612  -43.8551 H         1 UNK         0.3000 
    180 H180        4.1085  -11.1886  -45.7211 H         1 UNK         0.0600 
    181 H181        5.0909  -13.0570  -47.0262 H         1 UNK         0.0600 
    182 H182        4.8637  -14.1618  -45.6691 H         1 UNK         0.0600 
    183 H183        5.9943  -12.8201  -45.5389 H         1 UNK         0.0600 
    184 H184        2.6346  -13.4921  -46.5140 H         1 UNK         0.3000 
    185 H185       -0.1172  -13.3219  -46.0384 H         1 UNK         0.0600 
    186 H186       -1.6968  -11.9744  -47.4337 H         1 UNK         0.0600 
    187 H187       -1.2337  -11.1250  -45.9689 H         1 UNK         0.0600 
    188 H188       -0.5196  -10.6641  -47.5085 H         1 UNK         0.0600 
    189 H189        0.3893  -14.1646  -48.0353 H         1 UNK         0.3000 
    190 H190       -1.9195  -21.3168  -45.7508 H         1 UNK         0.3000 
    191 H191       -3.9741  -22.1953  -47.5532 H         1 UNK         0.0600 
    192 H192       -4.3495  -20.3128  -46.0057 H         1 UNK         0.0600 
    193 H193       -4.1290  -21.3669  -44.6101 H         1 UNK         0.0600 
    194 H194       -5.5099  -21.5896  -45.6776 H         1 UNK         0.0600 
    195 H195       -2.6255  -23.6150  -44.5273 H         1 UNK         0.3000 
    196 H196       -4.2691  -25.9301  -44.4861 H         1 UNK         0.0600 
    197 H197       -2.9539  -25.1693  -42.5318 H         1 UNK         0.0600 
    198 H198       -1.4445  -25.5006  -43.3778 H         1 UNK         0.0600 
    199 H199       -2.5214  -26.8216  -42.9436 H         1 UNK         0.0600 
    200 H200       -1.2366  -25.2456  -46.2021 H         1 UNK         0.3000 
    201 H201       -0.9264  -27.8801  -47.3568 H         1 UNK         0.0600 
    202 H202        0.9602  -26.2435  -47.0058 H         1 UNK         0.0600 
    203 H203        0.2547  -25.1952  -48.2372 H         1 UNK         0.0600 
    204 H204        0.8441  -26.7911  -48.6709 H         1 UNK         0.0600 
    205 H205       -3.2438  -25.5172  -47.9445 H         1 UNK         0.3000 
    206 H206       -4.7908  -25.1045  -49.4314 H         1 UNK         0.0600 
    207 H207       -4.0960  -27.7585  -50.7863 H         1 UNK         0.0600 
    208 H208       -5.1508  -27.5832  -49.3836 H         1 UNK         0.0600 
    209 H209       -5.6049  -26.8687  -50.9212 H         1 UNK         0.0600 
    210 H210       -2.1498  -24.0060  -49.8847 H         1 UNK         0.3000 
    211 H211       -1.9755  -23.6919  -52.8289 H         1 UNK         0.0600 
    212 H212       -0.2733  -22.5059  -50.5807 H         1 UNK         0.0600 
    213 H213        0.0780  -22.4503  -52.3028 H         1 UNK         0.0600 
    214 H214        0.1060  -23.9880  -51.4549 H         1 UNK         0.0600 
    215 H215       -3.4667  -22.1977  -50.1006 H         1 UNK         0.3000 
    216 H216       -3.8272  -19.5577  -51.4066 H         1 UNK         0.0600 
    217 H217       -4.5870  -18.8128  -49.2574 H         1 UNK         0.0600 
    218 H218       -3.2703  -19.8917  -48.8505 H         1 UNK         0.0600 
    219 H219       -4.9324  -20.4383  -48.6946 H         1 UNK         0.0600 
    220 H220       -6.2518  -18.8097  -50.7018 H         1 UNK         0.3000 
    221 H221       -8.4315  -18.7899  -51.0670 H         1 UNK         0.0600 
    222 H222       -8.2472  -21.7225  -50.1733 H         1 UNK         0.0600 
    223 H223       -8.4103  -20.3145  -49.1350 H         1 UNK         0.0600 
    224 H224       -9.7215  -20.7559  -50.2112 H         1 UNK         0.0600 
    225 H225       -9.0119  -22.0270  -52.0390 H         1 UNK         0.3000 
    226 H226      -10.0952  -21.3171  -54.5590 H         1 UNK         0.0600 
    227 H227      -10.8703  -23.2624  -53.2294 H         1 UNK         0.0600 
    228 H228      -10.3508  -23.7924  -54.8208 H         1 UNK         0.0600 
    229 H229       -9.3075  -24.0570  -53.4288 H         1 UNK         0.0600 
    230 H230       -6.8182  -22.2276  -53.6680 H         1 UNK         0.3000 
    231 H231       -5.9693  -22.6881  -56.4640 H         1 UNK         0.0600 
    232 H232       -3.7431  -23.1042  -55.3431 H         1 UNK         0.0600 
    233 H233       -5.0241  -24.1627  -54.7725 H         1 UNK         0.0600 
    234 H234       -4.5111  -22.8011  -53.7895 H         1 UNK         0.0600 
    235 H235       -6.6563  -19.9784  -54.6526 H         1 UNK         0.3000 
    236 H236       -6.2761  -17.8304  -54.7582 H         1 UNK         0.0600 
    237 H237       -5.1725  -18.4016  -57.5647 H         1 UNK         0.0600 
    238 H238       -6.8466  -18.0838  -57.1350 H         1 UNK         0.0600 
    239 H239       -5.6467  -16.8196  -56.9497 H         1 UNK         0.0600 
    240 H240       -3.4709  -17.6899  -56.7128 H         1 UNK         0.3000 
    241 H241       -1.3846  -17.1771  -56.4242 H         1 UNK         0.0600 
    242 H242       -2.5668  -14.0981  -54.3920 H         1 UNK         0.3800 
    243 H243       -3.5764  -15.2793  -55.1819 H         1 UNK         0.3800 
    244 H244       -1.1071  -18.2369  -53.6038 H         1 UNK         0.0800 
    245 H245       -1.5309  -19.3683  -54.8535 H         1 UNK         0.0800 
    246 H246        2.2793  -20.1392  -54.3886 H         1 UNK         0.0800 
    247 H247        0.6493  -20.6529  -54.0314 H         1 UNK         0.0800 
@<TRIPOS>BOND
     1    1    2 1    
     2    1  127 1    
     3    1  128 1    
     4    1  129 1    
     5    2    3 2    
     6    2    4 am   BACKBONE|DICT|INTERRES
     7    4    5 1    
     8    4  130 1    
     9    5    6 1    
    10    5   65 1    
    11    5  131 1    
    12    6    7 1    
    13    6  132 1    
    14    6  133 1    
    15    7    8 1    
    16    8    9 1    
    17    8  134 1    
    18    8  135 1    
    19    9   10 ar   
    20    9   14 ar   
    21   10   11 ar   
    22   10  136 1    
    23   11   12 ar   
    24   11  126 1    
    25   12   13 ar   
    26   12  137 1    
    27   13   14 ar   
    28   13   15 1    
    29   14  138 1    
    30   15   16 1    
    31   15  139 1    
    32   15  140 1    
    33   16   17 1    
    34   17   18 1    
    35   17  141 1    
    36   17  142 1    
    37   18   19 1    
    38   18   67 1    
    39   18  143 1    
    40   19   20 am   BACKBONE|DICT|INTERRES
    41   19  144 1    
    42   20   21 2    
    43   20   22 1    
    44   22   23 1    
    45   22   24 1    
    46   22  145 1    
    47   23  146 1    
    48   23  147 1    
    49   23  148 1    
    50   24   25 am   BACKBONE|DICT|INTERRES
    51   24  149 1    
    52   25   26 2    
    53   25   27 1    
    54   27   28 1    
    55   27   29 1    
    56   27  150 1    
    57   28  151 1    
    58   28  152 1    
    59   28  153 1    
    60   29   30 am   BACKBONE|DICT|INTERRES
    61   29  154 1    
    62   30   31 2    
    63   30   32 1    
    64   32   33 1    
    65   32   34 1    
    66   32  155 1    
    67   33  156 1    
    68   33  157 1    
    69   33  158 1    
    70   34   35 am   BACKBONE|DICT|INTERRES
    71   34  159 1    
    72   35   36 2    
    73   35   37 1    
    74   37   38 1    
    75   37   39 1    
    76   37  160 1    
    77   38  161 1    
    78   38  162 1    
    79   38  163 1    
    80   39   40 am   BACKBONE|DICT|INTERRES
    81   39  164 1    
    82   40   41 2    
    83   40   42 1    
    84   42   43 1    
    85   42   44 1    
    86   42  165 1    
    87   43  166 1    
    88   43  167 1    
    89   43  168 1    
    90   44   45 am   BACKBONE|DICT|INTERRES
    91   44  169 1    
    92   45   46 2    
    93   45   47 1    
    94   47   48 1    
    95   47   49 1    
    96   47  170 1    
    97   48  171 1    
    98   48  172 1    
    99   48  173 1    
   100   49   50 am   BACKBONE|DICT|INTERRES
   101   49  174 1    
   102   50   51 2    
   103   50   52 1    
   104   52   53 1    
   105   52   54 1    
   106   52  175 1    
   107   53  176 1    
   108   53  177 1    
   109   53  178 1    
   110   54   55 am   BACKBONE|DICT|INTERRES
   111   54  179 1    
   112   55   56 2    
   113   55   57 1    
   114   57   58 1    
   115   57   59 1    
   116   57  180 1    
   117   58  181 1    
   118   58  182 1    
   119   58  183 1    
   120   59   60 am   BACKBONE|DICT|INTERRES
   121   59  184 1    
   122   60   61 2    
   123   60   62 1    
   124   62   63 1    
   125   62   64 1    
   126   62  185 1    
   127   63  186 1    
   128   63  187 1    
   129   63  188 1    
   130   64   65 am   BACKBONE|DICT|INTERRES
   131   64  189 1    
   132   65   66 2    
   133   67   68 2    
   134   67   69 am   BACKBONE|DICT|INTERRES
   135   69   70 1    
   136   69  190 1    
   137   70   71 1    
   138   70   72 1    
   139   70  191 1    
   140   71  192 1    
   141   71  193 1    
   142   71  194 1    
   143   72   73 2    
   144   72   74 am   BACKBONE|DICT|INTERRES
   145   74   75 1    
   146   74  195 1    
   147   75   76 1    
   148   75   77 1    
   149   75  196 1    
   150   76  197 1    
   151   76  198 1    
   152   76  199 1    
   153   77   78 2    
   154   77   79 am   BACKBONE|DICT|INTERRES
   155   79   80 1    
   156   79  200 1    
   157   80   81 1    
   158   80   82 1    
   159   80  201 1    
   160   81  202 1    
   161   81  203 1    
   162   81  204 1    
   163   82   83 2    
   164   82   84 am   BACKBONE|DICT|INTERRES
   165   84   85 1    
   166   84  205 1    
   167   85   86 1    
   168   85   87 1    
   169   85  206 1    
   170   86  207 1    
   171   86  208 1    
   172   86  209 1    
   173   87   88 2    
   174   87   89 am   BACKBONE|DICT|INTERRES
   175   89   90 1    
   176   89  210 1    
   177   90   91 1    
   178   90   92 1    
   179   90  211 1    
   180   91  212 1    
   181   91  213 1    
   182   91  214 1    
   183   92   93 2    
   184   92   94 am   BACKBONE|DICT|INTERRES
   185   94   95 1    
   186   94  215 1    
   187   95   96 1    
   188   95   97 1    
   189   95  216 1    
   190   96  217 1    
   191   96  218 1    
   192   96  219 1    
   193   97   98 2    
   194   97   99 am   BACKBONE|DICT|INTERRES
   195   99  100 1    
   196   99  220 1    
   197  100  101 1    
   198  100  102 1    
   199  100  221 1    
   200  101  222 1    
   201  101  223 1    
   202  101  224 1    
   203  102  103 2    
   204  102  104 am   BACKBONE|DICT|INTERRES
   205  104  105 1    
   206  104  225 1    
   207  105  106 1    
   208  105  107 1    
   209  105  226 1    
   210  106  227 1    
   211  106  228 1    
   212  106  229 1    
   213  107  108 2    
   214  107  109 am   BACKBONE|DICT|INTERRES
   215  109  110 1    
   216  109  230 1    
   217  110  111 1    
   218  110  112 1    
   219  110  231 1    
   220  111  232 1    
   221  111  233 1    
   222  111  234 1    
   223  112  113 2    
   224  112  114 am   BACKBONE|DICT|INTERRES
   225  114  115 1    
   226  114  235 1    
   227  115  116 1    
   228  115  117 1    
   229  115  236 1    
   230  116  237 1    
   231  116  238 1    
   232  116  239 1    
   233  117  118 2    
   234  117  119 am   BACKBONE|DICT|INTERRES
   235  119  120 1    
   236  119  240 1    
   237  120  121 1    
   238  120  124 1    
   239  120  241 1    
   240  121  122 am   BACKBONE|DICT|INTERRES
   241  121  123 2    
   242  122  242 1    
   243  122  243 1    
   244  124  125 1    
   245  124  244 1    
   246  124  245 1    
   247  125  126 1    
   248  126  246 1    
   249  126  247 1    
@<TRIPOS>SUBSTRUCTURE
     1 UNK         1 GROUP             0       ****    0 ROOT    
