@<TRIPOS>MOLECULE
3R540
247   249    1
SMALL
USER_CHARGES


@<TRIPOS>ATOM
      1 CA          5.5761   -7.9952  -50.2738 C.3       0 UNK        -0.1800 
      2 C           5.3816   -9.4915  -50.0731 C.2       0 UNK         0.5000 
      3 O           6.3547  -10.2099  -49.8442 O.2       0 UNK        -0.5000 
      4 N           4.1300   -9.9622  -50.1590 N.am      1 UNK        -0.5000 
      5 CA          3.7479  -11.3698  -49.9794 C.3       1 UNK         0.1400 
      6 C6          2.3287  -11.6386  -50.5433 C.3       23 UNK        -0.0398 
      7 S7          2.0810  -13.3643  -51.0830 S.3       23 UNK        -0.2404 
      8 C8          1.0693  -14.0202  -49.7205 C.3       23 UNK        -0.0205 
      9 C9          0.5738  -15.4227  -50.0332 C.ar      23 UNK        -0.0193 
     10 C10        -0.5949  -15.5959  -50.7779 C.ar      23 UNK        -0.1150 
     11 C11        -1.0702  -16.8771  -51.0683 C.ar      23 UNK        -0.0193 
     12 C12        -0.3693  -17.9932  -50.6016 C.ar      23 UNK        -0.1150 
     13 C13         0.7992  -17.8343  -49.8473 C.ar      23 UNK        -0.0193 
     14 C14         1.2706  -16.5455  -49.5762 C.ar      23 UNK        -0.1150 
     15 C15         1.5625  -19.0493  -49.3339 C.3       23 UNK        -0.0205 
     16 S16         1.1480  -19.4427  -47.6014 S.3       23 UNK        -0.2404 
     17 C17        -0.5601  -20.0575  -47.7633 C.3       23 UNK        -0.0398 
     18 CA         -0.7818  -21.3926  -47.0135 C.3       11 UNK         0.1400 
     19 N          -0.8406  -21.2126  -45.5536 N.am      11 UNK        -0.5000 
     20 C          -1.1107  -22.1706  -44.6525 C.2       10 UNK         0.5000 
     21 O          -1.3744  -23.3371  -44.9498 O.2       10 UNK        -0.5000 
     22 CA         -1.0860  -21.7377  -43.1765 C.3       10 UNK         0.1400 
     23 CB         -1.4969  -22.8606  -42.2018 C.3       10 UNK        -0.1800 
     24 N           0.2072  -21.1685  -42.8059 N.am      10 UNK        -0.5000 
     25 C           1.4104  -21.7598  -42.8168 C.2       9 UNK         0.5000 
     26 O           1.6052  -22.9374  -43.1194 O.2       9 UNK        -0.5000 
     27 CA          2.6100  -20.8762  -42.4227 C.3       9 UNK         0.1400 
     28 CB          3.3591  -20.4165  -43.6835 C.3       9 UNK        -0.1800 
     29 N           2.2244  -19.6977  -41.6419 N.am      9 UNK        -0.5000 
     30 C           1.7925  -19.7189  -40.3733 C.2       8 UNK         0.5000 
     31 O           1.7494  -20.7374  -39.6823 O.2       8 UNK        -0.5000 
     32 CA          1.2906  -18.3829  -39.7920 C.3       8 UNK         0.1400 
     33 CB          2.4654  -17.5274  -39.2948 C.3       8 UNK        -0.1800 
     34 N           0.4870  -17.6118  -40.7455 N.am      8 UNK        -0.5000 
     35 C          -0.7158  -17.9884  -41.2056 C.2       7 UNK         0.5000 
     36 O          -1.2892  -19.0195  -40.8558 O.2       7 UNK        -0.5000 
     37 CA         -1.3785  -17.0836  -42.2599 C.3       7 UNK         0.1400 
     38 CB         -2.0674  -15.8814  -41.5972 C.3       7 UNK        -0.1800 
     39 N          -0.4276  -16.6128  -43.2645 N.am      7 UNK        -0.5000 
     40 C           0.1673  -17.3937  -44.1771 C.2       6 UNK         0.5000 
     41 O          -0.0875  -18.5903  -44.3251 O.2       6 UNK        -0.5000 
     42 CA          1.2544  -16.7292  -45.0430 C.3       6 UNK         0.1400 
     43 CB          0.6203  -15.9930  -46.2306 C.3       6 UNK        -0.1800 
     44 N           2.0929  -15.7971  -44.2855 N.am      6 UNK        -0.5000 
     45 C           2.8800  -16.1407  -43.2564 C.2       5 UNK         0.5000 
     46 O           3.0237  -17.2958  -42.8633 O.2       5 UNK        -0.5000 
     47 CA          3.5778  -14.9995  -42.4992 C.3       5 UNK         0.1400 
     48 CB          4.8997  -14.6111  -43.1779 C.3       5 UNK        -0.1800 
     49 N           2.7103  -13.8286  -42.3764 N.am      5 UNK        -0.5000 
     50 C           1.6425  -13.7681  -41.5680 C.2       4 UNK         0.5000 
     51 O           1.3113  -14.6786  -40.8081 O.2       4 UNK        -0.5000 
     52 CA          0.7771  -12.4965  -41.6557 C.3       4 UNK         0.1400 
     53 CB          1.3674  -11.3784  -40.7837 C.3       4 UNK        -0.1800 
     54 N           0.6254  -12.0124  -43.0295 N.am      4 UNK        -0.5000 
     55 C          -0.0409  -12.6681  -43.9903 C.2       3 UNK         0.5000 
     56 O          -0.6480  -13.7205  -43.7966 O.2       3 UNK        -0.5000 
     57 CA          0.0200  -12.0793  -45.4153 C.3       3 UNK         0.1400 
     58 CB         -1.1494  -11.1117  -45.6477 C.3       3 UNK        -0.1800 
     59 N           1.2807  -11.4009  -45.7388 N.am      3 UNK        -0.5000 
     60 C           2.4967  -11.9611  -45.6779 C.2       2 UNK         0.5000 
     61 O           2.6915  -13.1202  -45.3108 O.2       2 UNK        -0.5000 
     62 CA          3.6722  -11.0658  -46.1120 C.3       2 UNK         0.1400 
     63 CB          5.0353  -11.5616  -45.5852 C.3       2 UNK        -0.1800 
     64 N           3.6940  -10.8859  -47.5670 N.am      2 UNK        -0.5000 
     65 C           3.8633  -11.8308  -48.5078 C.2       1 UNK         0.5000 
     66 O           4.1058  -13.0131  -48.2661 O.2       1 UNK        -0.5000 
     67 C          -2.0105  -22.1193  -47.6011 C.2       11 UNK         0.5000 
     68 O          -1.8435  -22.9700  -48.4736 O.2       11 UNK        -0.5000 
     69 N          -3.2107  -21.8046  -47.0936 N.am      12 UNK        -0.5000 
     70 CA         -4.4702  -22.4268  -47.5058 C.3       12 UNK         0.1400 
     71 CB         -5.6412  -21.6738  -46.8579 C.3       12 UNK        -0.1800 
     72 C          -4.5493  -23.9331  -47.1927 C.2       12 UNK         0.5000 
     73 O          -5.1168  -24.6860  -47.9850 O.2       12 UNK        -0.5000 
     74 N          -3.9636  -24.3424  -46.0597 N.am      13 UNK        -0.5000 
     75 CA         -3.8697  -25.7379  -45.6371 C.3       13 UNK         0.1400 
     76 CB         -3.7143  -25.8041  -44.1100 C.3       13 UNK        -0.1800 
     77 C          -2.7052  -26.4572  -46.3360 C.2       13 UNK         0.5000 
     78 O          -2.8592  -27.6145  -46.7244 O.2       13 UNK        -0.5000 
     79 N          -1.5764  -25.7547  -46.5108 N.am      14 UNK        -0.5000 
     80 CA         -0.3747  -26.2489  -47.1864 C.3       14 UNK         0.1400 
     81 CB          0.7684  -25.2404  -46.9984 C.3       14 UNK        -0.1800 
     82 C          -0.6066  -26.5410  -48.6808 C.2       14 UNK         0.5000 
     83 O          -0.1433  -27.5673  -49.1793 O.2       14 UNK        -0.5000 
     84 N          -1.3494  -25.6541  -49.3576 N.am      15 UNK        -0.5000 
     85 CA         -1.7838  -25.8182  -50.7467 C.3       15 UNK         0.1400 
     86 CB         -2.1829  -24.4444  -51.3057 C.3       15 UNK        -0.1800 
     87 C          -2.9549  -26.8085  -50.9018 C.2       15 UNK         0.5000 
     88 O          -3.2352  -27.2345  -52.0229 O.2       15 UNK        -0.5000 
     89 N          -3.6350  -27.1257  -49.7903 N.am      16 UNK        -0.5000 
     90 CA         -4.8032  -27.9981  -49.6161 C.3       16 UNK         0.1400 
     91 CB         -4.5040  -29.4411  -50.0629 C.3       16 UNK        -0.1800 
     92 C          -6.0939  -27.4648  -50.2655 C.2       16 UNK         0.5000 
     93 O          -7.1367  -27.4384  -49.6118 O.2       16 UNK        -0.5000 
     94 N          -6.0060  -27.0121  -51.5205 N.am      17 UNK        -0.5000 
     95 CA         -7.0915  -26.4406  -52.3187 C.3       17 UNK         0.1400 
     96 CB         -6.7780  -26.6785  -53.8070 C.3       17 UNK        -0.1800 
     97 C          -7.3350  -24.9492  -51.9994 C.2       17 UNK         0.5000 
     98 O          -7.5060  -24.1442  -52.9160 O.2       17 UNK        -0.5000 
     99 N          -7.3009  -24.5932  -50.7060 N.am      18 UNK        -0.5000 
    100 CA        -7.5525  -23.2664  -50.1231 C.3       18 UNK         0.1400 
    101 CB        -9.0410  -22.8962  -50.2845 C.3       18 UNK        -0.1800 
    102 C         -6.6231  -22.1395  -50.6317 C.2       18 UNK         0.5000 
    103 O         -6.9393  -20.9637  -50.4479 O.2       18 UNK        -0.5000 
    104 N         -5.5042  -22.5183  -51.2686 N.am      19 UNK        -0.5000 
    105 CA        -4.5723  -21.6652  -52.0139 C.3       19 UNK         0.1400 
    106 CB        -3.7621  -20.7557  -51.0689 C.3       19 UNK        -0.1800 
    107 C         -5.2518  -20.9011  -53.1722 C.2       19 UNK         0.5000 
    108 O         -4.8810  -19.7633  -53.4662 O.2       19 UNK        -0.5000 
    109 N         -6.2188  -21.5570  -53.8366 N.am      20 UNK        -0.5000 
    110 CA        -7.0028  -21.0237  -54.9584 C.3       20 UNK         0.1400 
    111 CB        -8.0687  -22.0529  -55.3625 C.3       20 UNK        -0.1800 
    112 C         -6.1695  -20.6009  -56.1860 C.2       20 UNK         0.5000 
    113 O         -6.6372  -19.7847  -56.9813 O.2       20 UNK        -0.5000 
    114 N         -4.9343  -21.1128  -56.2916 N.am      21 UNK        -0.5000 
    115 CA        -3.9161  -20.7123  -57.2665 C.3       21 UNK         0.1400 
    116 CB        -2.6681  -21.5852  -57.0639 C.3       21 UNK        -0.1800 
    117 C         -3.5418  -19.2146  -57.2078 C.2       21 UNK         0.5000 
    118 O         -3.0911  -18.6705  -58.2169 O.2       21 UNK        -0.5000 
    119 N         -3.7609  -18.5695  -56.0530 N.am      22 UNK        -0.5000 
    120 CA        -3.6682  -17.1112  -55.8799 C.3       22 UNK         0.1400 
    121 C         -4.8306  -16.3090  -56.5423 C.2       22 UNK         0.5000 
    122 N         -5.9014  -16.9310  -57.0238 N.am      22 UNK        -0.7600 
    123 O         -4.7546  -15.0865  -56.6305 O.2       22 UNK        -0.5000 
    124 C124       -3.5227  -16.7198  -54.3878 C.3       23 UNK        -0.0398 
    125 S125       -1.9756  -17.3271  -53.6390 S.3       23 UNK        -0.2404 
    126 C126       -2.3442  -17.0437  -51.8808 C.3       23 UNK        -0.0205 
    127 H127        6.0217   -7.5521  -49.3832 H         1 UNK         0.0600 
    128 H128        6.2431   -7.8134  -51.1165 H         1 UNK         0.0600 
    129 H129        4.6326   -7.4858  -50.4713 H         1 UNK         0.0600 
    130 H130        3.3764   -9.3202  -50.3612 H         1 UNK         0.3000 
    131 H131        4.4600  -11.9636  -50.5573 H         1 UNK         0.0600 
    132 H132        2.1656  -11.0269  -51.4319 H         1 UNK         0.0800 
    133 H133        1.5506  -11.3381  -49.8390 H         1 UNK         0.0800 
    134 H134        0.2165  -13.3625  -49.5453 H         1 UNK         0.0800 
    135 H135        1.6519  -14.0222  -48.7985 H         1 UNK         0.0800 
    136 H136       -1.1319  -14.7293  -51.1376 H         1 UNK         0.1150 
    137 H137       -0.7346  -18.9836  -50.8329 H         1 UNK         0.1150 
    138 H138        2.1762  -16.4169  -48.9999 H         1 UNK         0.1150 
    139 H139        1.3732  -19.9189  -49.9652 H         1 UNK         0.0800 
    140 H140        2.6344  -18.8572  -49.4007 H         1 UNK         0.0800 
    141 H141       -0.7744  -20.1813  -48.8255 H         1 UNK         0.0800 
    142 H142       -1.2471  -19.2888  -47.4053 H         1 UNK         0.0800 
    143 H143        0.0762  -22.0369  -47.2102 H         1 UNK         0.0600 
    144 H144       -0.5922  -20.2891  -45.2078 H         1 UNK         0.3000 
    145 H145       -1.8152  -20.9326  -43.0757 H         1 UNK         0.0600 
    146 H146       -1.4756  -22.5106  -41.1697 H         1 UNK         0.0600 
    147 H147       -2.5119  -23.2012  -42.4084 H         1 UNK         0.0600 
    148 H148       -0.8401  -23.7278  -42.2759 H         1 UNK         0.0600 
    149 H149        0.1882  -20.1825  -42.5830 H         1 UNK         0.3000 
    150 H150        3.2878  -21.4832  -41.8192 H         1 UNK         0.0600 
    151 H151        3.6912  -21.2698  -44.2761 H         1 UNK         0.0600 
    152 H152        4.2441  -19.8341  -43.4270 H         1 UNK         0.0600 
    153 H153        2.7255  -19.7997  -44.3228 H         1 UNK         0.0600 
    154 H154        2.3092  -18.7992  -42.1140 H         1 UNK         0.3000 
    155 H155        0.6562  -18.6135  -38.9336 H         1 UNK         0.0600 
    156 H156        3.1410  -17.2588  -40.1066 H         1 UNK         0.0600 
    157 H157        3.0496  -18.0650  -38.5470 H         1 UNK         0.0600 
    158 H158        2.1141  -16.6050  -38.8320 H         1 UNK         0.0600 
    159 H159        0.8698  -16.7230  -41.0479 H         1 UNK         0.3000 
    160 H160       -2.1437  -17.6720  -42.7706 H         1 UNK         0.0600 
    161 H161       -2.5991  -15.2782  -42.3334 H         1 UNK         0.0600 
    162 H162       -1.3521  -15.2336  -41.0902 H         1 UNK         0.0600 
    163 H163       -2.7975  -16.2090  -40.8561 H         1 UNK         0.0600 
    164 H164       -0.2213  -15.6193  -43.2665 H         1 UNK         0.3000 
    165 H165        1.9053  -17.5153  -45.4295 H         1 UNK         0.0600 
    166 H166        1.3770  -15.4857  -46.8280 H         1 UNK         0.0600 
    167 H167        0.0935  -16.6889  -46.8839 H         1 UNK         0.0600 
    168 H168       -0.1050  -15.2491  -45.9055 H         1 UNK         0.0600 
    169 H169        2.0879  -14.8252  -44.5807 H         1 UNK         0.3000 
    170 H170        3.8124  -15.3560  -41.4943 H         1 UNK         0.0600 
    171 H171        5.5905  -15.4551  -43.1867 H         1 UNK         0.0600 
    172 H172        4.7522  -14.3040  -44.2128 H         1 UNK         0.0600 
    173 H173        5.3913  -13.7938  -42.6502 H         1 UNK         0.0600 
    174 H174        2.8676  -13.0810  -43.0372 H         1 UNK         0.3000 
    175 H175       -0.2146  -12.7425  -41.2699 H         1 UNK         0.0600 
    176 H176        0.7216  -10.5002  -40.7785 H         1 UNK         0.0600 
    177 H177        1.4753  -11.7072  -39.7492 H         1 UNK         0.0600 
    178 H178        2.3528  -11.0694  -41.1346 H         1 UNK         0.0600 
    179 H179        1.0933  -11.1507  -43.2681 H         1 UNK         0.3000 
    180 H180       -0.0867  -12.9090  -46.1158 H         1 UNK         0.0600 
    181 H181       -1.0790  -10.2333  -45.0050 H         1 UNK         0.0600 
    182 H182       -2.1044  -11.5959  -45.4389 H         1 UNK         0.0600 
    183 H183       -1.1801  -10.7704  -46.6826 H         1 UNK         0.0600 
    184 H184        1.2031  -10.4462  -46.0585 H         1 UNK         0.3000 
    185 H185        3.4999  -10.0799  -45.6776 H         1 UNK         0.0600 
    186 H186        5.2855  -12.5555  -45.9562 H         1 UNK         0.0600 
    187 H187        5.8384  -10.8854  -45.8777 H         1 UNK         0.0600 
    188 H188        5.0338  -11.6136  -44.4959 H         1 UNK         0.0600 
    189 H189        3.5146   -9.9457  -47.8895 H         1 UNK         0.3000 
    190 H190       -3.2626  -21.1032  -46.3696 H         1 UNK         0.3000 
    191 H191       -4.5521  -22.3194  -48.5868 H         1 UNK         0.0600 
    192 H192       -5.5771  -21.6896  -45.7693 H         1 UNK         0.0600 
    193 H193       -6.5981  -22.1170  -47.1348 H         1 UNK         0.0600 
    194 H194       -5.6640  -20.6323  -47.1794 H         1 UNK         0.0600 
    195 H195       -3.4417  -23.6721  -45.5104 H         1 UNK         0.3000 
    196 H196       -4.7950  -26.2533  -45.9042 H         1 UNK         0.0600 
    197 H197       -3.6971  -26.8391  -43.7665 H         1 UNK         0.0600 
    198 H198       -4.5444  -25.3080  -43.6069 H         1 UNK         0.0600 
    199 H199       -2.7894  -25.3341  -43.7750 H         1 UNK         0.0600 
    200 H200       -1.5218  -24.8228  -46.1075 H         1 UNK         0.3000 
    201 H201       -0.0852  -27.1845  -46.7036 H         1 UNK         0.0600 
    202 H202        0.9443  -25.0312  -45.9427 H         1 UNK         0.0600 
    203 H203        0.5541  -24.2954  -47.4961 H         1 UNK         0.0600 
    204 H204        1.6996  -25.6257  -47.4153 H         1 UNK         0.0600 
    205 H205       -1.6355  -24.7940  -48.8949 H         1 UNK         0.3000 
    206 H206       -0.9470  -26.1993  -51.3355 H         1 UNK         0.0600 
    207 H207       -1.3526  -23.7399  -51.2533 H         1 UNK         0.0600 
    208 H208       -2.4832  -24.5166  -52.3518 H         1 UNK         0.0600 
    209 H209       -3.0173  -24.0180  -50.7483 H         1 UNK         0.0600 
    210 H210       -3.3146  -26.6935  -48.9350 H         1 UNK         0.3000 
    211 H211       -4.9868  -28.0233  -48.5409 H         1 UNK         0.0600 
    212 H212       -4.3258  -29.5104  -51.1362 H         1 UNK         0.0600 
    213 H213       -5.3409  -30.1004  -49.8296 H         1 UNK         0.0600 
    214 H214       -3.6265  -29.8359  -49.5506 H         1 UNK         0.0600 
    215 H215       -5.0897  -27.0563  -51.9597 H         1 UNK         0.3000 
    216 H216       -8.0175  -26.9698  -52.0850 H         1 UNK         0.0600 
    217 H217       -7.5918  -26.3274  -54.4428 H         1 UNK         0.0600 
    218 H218       -6.6415  -27.7397  -54.0159 H         1 UNK         0.0600 
    219 H219       -5.8703  -26.1572  -54.1139 H         1 UNK         0.0600 
    220 H220       -7.1316  -25.3340  -50.0347 H         1 UNK         0.3000 
    221 H221       -7.3516  -23.3661  -49.0566 H         1 UNK         0.0600 
    222 H222       -9.3017  -22.7224  -51.3292 H         1 UNK         0.0600 
    223 H223       -9.6876  -23.6870  -49.9044 H         1 UNK         0.0600 
    224 H224       -9.2845  -21.9885  -49.7311 H         1 UNK         0.0600 
    225 H225       -5.3568  -23.5126  -51.3612 H         1 UNK         0.3000 
    226 H226       -3.8634  -22.3398  -52.4942 H         1 UNK         0.0600 
    227 H227       -3.2478  -21.3393  -50.3072 H         1 UNK         0.0600 
    228 H228       -2.9941  -20.2137  -51.6208 H         1 UNK         0.0600 
    229 H229       -4.3922  -20.0209  -50.5677 H         1 UNK         0.0600 
    230 H230       -6.4937  -22.4785  -53.5103 H         1 UNK         0.3000 
    231 H231       -7.5139  -20.1284  -54.5992 H         1 UNK         0.0600 
    232 H232       -8.7485  -22.2599  -54.5357 H         1 UNK         0.0600 
    233 H233       -7.6180  -22.9973  -55.6702 H         1 UNK         0.0600 
    234 H234       -8.6736  -21.6889  -56.1941 H         1 UNK         0.0600 
    235 H235       -4.6449  -21.7771  -55.5899 H         1 UNK         0.3000 
    236 H236       -4.3177  -20.9092  -58.2624 H         1 UNK         0.0600 
    237 H237       -1.8952  -21.3374  -57.7926 H         1 UNK         0.0600 
    238 H238       -2.2389  -21.4472  -56.0705 H         1 UNK         0.0600 
    239 H239       -2.9008  -22.6432  -57.1867 H         1 UNK         0.0600 
    240 H240       -4.1226  -19.0847  -55.2573 H         1 UNK         0.3000 
    241 H241       -2.7619  -16.7804  -56.3908 H         1 UNK         0.0600 
    242 H242       -6.6328  -16.3855  -57.4512 H         1 UNK         0.3800 
    243 H243       -6.0009  -17.9399  -56.9749 H         1 UNK         0.3800 
    244 H244       -3.5290  -15.6345  -54.2704 H         1 UNK         0.0800 
    245 H245       -4.3723  -17.0951  -53.8146 H         1 UNK         0.0800 
    246 H246       -2.9648  -16.1523  -51.7750 H         1 UNK         0.0800 
    247 H247       -2.9371  -17.8720  -51.4929 H         1 UNK         0.0800 
@<TRIPOS>BOND
     1    1    2 1    
     2    1  127 1    
     3    1  128 1    
     4    1  129 1    
     5    2    3 2    
     6    2    4 am   BACKBONE|DICT|INTERRES
     7    4    5 1    
     8    4  130 1    
     9    5    6 1    
    10    5   65 1    
    11    5  131 1    
    12    6    7 1    
    13    6  132 1    
    14    6  133 1    
    15    7    8 1    
    16    8    9 1    
    17    8  134 1    
    18    8  135 1    
    19    9   10 ar   
    20    9   14 ar   
    21   10   11 ar   
    22   10  136 1    
    23   11   12 ar   
    24   11  126 1    
    25   12   13 ar   
    26   12  137 1    
    27   13   14 ar   
    28   13   15 1    
    29   14  138 1    
    30   15   16 1    
    31   15  139 1    
    32   15  140 1    
    33   16   17 1    
    34   17   18 1    
    35   17  141 1    
    36   17  142 1    
    37   18   19 1    
    38   18   67 1    
    39   18  143 1    
    40   19   20 am   BACKBONE|DICT|INTERRES
    41   19  144 1    
    42   20   21 2    
    43   20   22 1    
    44   22   23 1    
    45   22   24 1    
    46   22  145 1    
    47   23  146 1    
    48   23  147 1    
    49   23  148 1    
    50   24   25 am   BACKBONE|DICT|INTERRES
    51   24  149 1    
    52   25   26 2    
    53   25   27 1    
    54   27   28 1    
    55   27   29 1    
    56   27  150 1    
    57   28  151 1    
    58   28  152 1    
    59   28  153 1    
    60   29   30 am   BACKBONE|DICT|INTERRES
    61   29  154 1    
    62   30   31 2    
    63   30   32 1    
    64   32   33 1    
    65   32   34 1    
    66   32  155 1    
    67   33  156 1    
    68   33  157 1    
    69   33  158 1    
    70   34   35 am   BACKBONE|DICT|INTERRES
    71   34  159 1    
    72   35   36 2    
    73   35   37 1    
    74   37   38 1    
    75   37   39 1    
    76   37  160 1    
    77   38  161 1    
    78   38  162 1    
    79   38  163 1    
    80   39   40 am   BACKBONE|DICT|INTERRES
    81   39  164 1    
    82   40   41 2    
    83   40   42 1    
    84   42   43 1    
    85   42   44 1    
    86   42  165 1    
    87   43  166 1    
    88   43  167 1    
    89   43  168 1    
    90   44   45 am   BACKBONE|DICT|INTERRES
    91   44  169 1    
    92   45   46 2    
    93   45   47 1    
    94   47   48 1    
    95   47   49 1    
    96   47  170 1    
    97   48  171 1    
    98   48  172 1    
    99   48  173 1    
   100   49   50 am   BACKBONE|DICT|INTERRES
   101   49  174 1    
   102   50   51 2    
   103   50   52 1    
   104   52   53 1    
   105   52   54 1    
   106   52  175 1    
   107   53  176 1    
   108   53  177 1    
   109   53  178 1    
   110   54   55 am   BACKBONE|DICT|INTERRES
   111   54  179 1    
   112   55   56 2    
   113   55   57 1    
   114   57   58 1    
   115   57   59 1    
   116   57  180 1    
   117   58  181 1    
   118   58  182 1    
   119   58  183 1    
   120   59   60 am   BACKBONE|DICT|INTERRES
   121   59  184 1    
   122   60   61 2    
   123   60   62 1    
   124   62   63 1    
   125   62   64 1    
   126   62  185 1    
   127   63  186 1    
   128   63  187 1    
   129   63  188 1    
   130   64   65 am   BACKBONE|DICT|INTERRES
   131   64  189 1    
   132   65   66 2    
   133   67   68 2    
   134   67   69 am   BACKBONE|DICT|INTERRES
   135   69   70 1    
   136   69  190 1    
   137   70   71 1    
   138   70   72 1    
   139   70  191 1    
   140   71  192 1    
   141   71  193 1    
   142   71  194 1    
   143   72   73 2    
   144   72   74 am   BACKBONE|DICT|INTERRES
   145   74   75 1    
   146   74  195 1    
   147   75   76 1    
   148   75   77 1    
   149   75  196 1    
   150   76  197 1    
   151   76  198 1    
   152   76  199 1    
   153   77   78 2    
   154   77   79 am   BACKBONE|DICT|INTERRES
   155   79   80 1    
   156   79  200 1    
   157   80   81 1    
   158   80   82 1    
   159   80  201 1    
   160   81  202 1    
   161   81  203 1    
   162   81  204 1    
   163   82   83 2    
   164   82   84 am   BACKBONE|DICT|INTERRES
   165   84   85 1    
   166   84  205 1    
   167   85   86 1    
   168   85   87 1    
   169   85  206 1    
   170   86  207 1    
   171   86  208 1    
   172   86  209 1    
   173   87   88 2    
   174   87   89 am   BACKBONE|DICT|INTERRES
   175   89   90 1    
   176   89  210 1    
   177   90   91 1    
   178   90   92 1    
   179   90  211 1    
   180   91  212 1    
   181   91  213 1    
   182   91  214 1    
   183   92   93 2    
   184   92   94 am   BACKBONE|DICT|INTERRES
   185   94   95 1    
   186   94  215 1    
   187   95   96 1    
   188   95   97 1    
   189   95  216 1    
   190   96  217 1    
   191   96  218 1    
   192   96  219 1    
   193   97   98 2    
   194   97   99 am   BACKBONE|DICT|INTERRES
   195   99  100 1    
   196   99  220 1    
   197  100  101 1    
   198  100  102 1    
   199  100  221 1    
   200  101  222 1    
   201  101  223 1    
   202  101  224 1    
   203  102  103 2    
   204  102  104 am   BACKBONE|DICT|INTERRES
   205  104  105 1    
   206  104  225 1    
   207  105  106 1    
   208  105  107 1    
   209  105  226 1    
   210  106  227 1    
   211  106  228 1    
   212  106  229 1    
   213  107  108 2    
   214  107  109 am   BACKBONE|DICT|INTERRES
   215  109  110 1    
   216  109  230 1    
   217  110  111 1    
   218  110  112 1    
   219  110  231 1    
   220  111  232 1    
   221  111  233 1    
   222  111  234 1    
   223  112  113 2    
   224  112  114 am   BACKBONE|DICT|INTERRES
   225  114  115 1    
   226  114  235 1    
   227  115  116 1    
   228  115  117 1    
   229  115  236 1    
   230  116  237 1    
   231  116  238 1    
   232  116  239 1    
   233  117  118 2    
   234  117  119 am   BACKBONE|DICT|INTERRES
   235  119  120 1    
   236  119  240 1    
   237  120  121 1    
   238  120  124 1    
   239  120  241 1    
   240  121  122 am   BACKBONE|DICT|INTERRES
   241  121  123 2    
   242  122  242 1    
   243  122  243 1    
   244  124  125 1    
   245  124  244 1    
   246  124  245 1    
   247  125  126 1    
   248  126  246 1    
   249  126  247 1    
@<TRIPOS>SUBSTRUCTURE
     1 UNK         1 GROUP             0       ****    0 ROOT    
