@<TRIPOS>MOLECULE
3R540
247   249    1
SMALL
USER_CHARGES


@<TRIPOS>ATOM
      1 CA          3.6962  -16.5487  -48.0371 C.3       0 UNK        -0.1800 
      2 C           2.7414  -16.1317  -46.9277 C.2       0 UNK         0.5000 
      3 O           3.0097  -16.3930  -45.7553 O.2       0 UNK        -0.5000 
      4 N           1.6242  -15.4924  -47.2952 N.am      1 UNK        -0.5000 
      5 CA          0.5919  -14.9961  -46.3801 C.3       1 UNK         0.1400 
      6 C6         -0.6754  -14.5083  -47.1281 C.3       23 UNK        -0.0398 
      7 S7         -1.3898  -15.7969  -48.2090 S.3       23 UNK        -0.2404 
      8 C8         -1.3080  -14.9956  -49.8440 C.3       23 UNK        -0.0205 
      9 C9         -1.0351  -16.0173  -50.9333 C.ar      23 UNK        -0.0193 
     10 C10        -2.0301  -16.3988  -51.8371 C.ar      23 UNK        -0.1150 
     11 C11        -1.7555  -17.3396  -52.8359 C.ar      23 UNK        -0.0193 
     12 C12        -0.4856  -17.9256  -52.9004 C.ar      23 UNK        -0.1150 
     13 C13         0.5125  -17.5555  -51.9937 C.ar      23 UNK        -0.0193 
     14 C14         0.2376  -16.5773  -51.0373 C.ar      23 UNK        -0.1150 
     15 C15         1.8946  -18.1905  -52.0473 C.3       23 UNK        -0.0205 
     16 S16         1.9763  -19.7745  -51.1467 S.3       23 UNK        -0.2404 
     17 C17         1.6406  -19.2905  -49.4121 C.3       23 UNK        -0.0398 
     18 CA          0.6871  -20.2429  -48.6526 C.3       11 UNK         0.1400 
     19 N           0.5243  -19.8395  -47.2520 N.am      11 UNK        -0.5000 
     20 C           0.0656  -20.6583  -46.2969 C.2       10 UNK         0.5000 
     21 O          -0.2804  -21.8219  -46.5024 O.2       10 UNK        -0.5000 
     22 CA         -0.0444  -20.0764  -44.8770 C.3       10 UNK         0.1400 
     23 CB          1.3433  -19.9780  -44.2296 C.3       10 UNK        -0.1800 
     24 N          -0.7237  -18.7784  -44.7869 N.am      10 UNK        -0.5000 
     25 C          -1.9722  -18.5358  -45.2182 C.2       9 UNK         0.5000 
     26 O          -2.6247  -19.3397  -45.8811 O.2       9 UNK        -0.5000 
     27 CA         -2.6133  -17.1968  -44.8134 C.3       9 UNK         0.1400 
     28 CB         -4.1531  -17.2464  -44.8042 C.3       9 UNK        -0.1800 
     29 N          -2.1256  -16.7652  -43.5054 N.am      9 UNK        -0.5000 
     30 C          -1.8996  -15.4945  -43.1577 C.2       8 UNK         0.5000 
     31 O          -2.1372  -14.5329  -43.8877 O.2       8 UNK        -0.5000 
     32 CA         -1.2724  -15.2446  -41.7724 C.3       8 UNK         0.1400 
     33 CB         -2.3712  -14.9876  -40.7305 C.3       8 UNK        -0.1800 
     34 N          -0.3712  -16.2856  -41.2606 N.am      8 UNK        -0.5000 
     35 C           0.6578  -16.8693  -41.8931 C.2       7 UNK         0.5000 
     36 O           0.8777  -16.7349  -43.0981 O.2       7 UNK        -0.5000 
     37 CA          1.6112  -17.7228  -41.0311 C.3       7 UNK         0.1400 
     38 CB          3.0309  -17.7691  -41.6250 C.3       7 UNK        -0.1800 
     39 N           1.6885  -17.2211  -39.6551 N.am      7 UNK        -0.5000 
     40 C           0.9724  -17.6882  -38.6215 C.2       6 UNK         0.5000 
     41 O           0.1469  -18.5947  -38.7374 O.2       6 UNK        -0.5000 
     42 CA          1.1526  -17.0058  -37.2454 C.3       6 UNK         0.1400 
     43 CB          1.1513  -18.0211  -36.0830 C.3       6 UNK        -0.1800 
     44 N           2.3043  -16.0983  -37.1556 N.am      6 UNK        -0.5000 
     45 C           3.6037  -16.4195  -37.2146 C.2       5 UNK         0.5000 
     46 O           4.0358  -17.5678  -37.3345 O.2       5 UNK        -0.5000 
     47 CA          4.5910  -15.2385  -37.1606 C.3       5 UNK         0.1400 
     48 CB          5.4058  -15.2641  -35.8581 C.3       5 UNK        -0.1800 
     49 N           5.5045  -15.2478  -38.3033 N.am      5 UNK        -0.5000 
     50 C           5.1271  -15.1611  -39.5848 C.2       4 UNK         0.5000 
     51 O           3.9544  -15.0114  -39.9474 O.2       4 UNK        -0.5000 
     52 CA          6.2480  -15.2712  -40.6295 C.3       4 UNK         0.1400 
     53 CB          6.8155  -16.7001  -40.7024 C.3       4 UNK        -0.1800 
     54 N           5.7106  -14.8965  -41.9302 N.am      4 UNK        -0.5000 
     55 C           6.3817  -14.3173  -42.9302 C.2       3 UNK         0.5000 
     56 O           7.5879  -14.0705  -42.8876 O.2       3 UNK        -0.5000 
     57 CA          5.5763  -13.9487  -44.1942 C.3       3 UNK         0.1400 
     58 CB          5.9590  -14.8663  -45.3645 C.3       3 UNK        -0.1800 
     59 N           4.1228  -14.0016  -43.9985 N.am      3 UNK        -0.5000 
     60 C           3.4172  -13.0788  -43.3264 C.2       2 UNK         0.5000 
     61 O           3.9241  -12.0671  -42.8392 O.2       2 UNK        -0.5000 
     62 CA          1.9088  -13.3457  -43.1383 C.3       2 UNK         0.1400 
     63 CB          1.0875  -12.0542  -42.9367 C.3       2 UNK        -0.1800 
     64 N           1.3308  -14.1880  -44.1897 N.am      2 UNK        -0.5000 
     65 C           1.1683  -13.8813  -45.4832 C.2       1 UNK         0.5000 
     66 O           1.4781  -12.7995  -45.9863 O.2       1 UNK        -0.5000 
     67 C          -0.6792  -20.4517  -49.3435 C.2       11 UNK         0.5000 
     68 O          -0.8318  -21.4259  -50.0791 O.2       11 UNK        -0.5000 
     69 N          -1.6664  -19.5941  -49.0415 N.am      12 UNK        -0.5000 
     70 CA         -3.0409  -19.7365  -49.5279 C.3       12 UNK         0.1400 
     71 CB         -3.8562  -18.4839  -49.1759 C.3       12 UNK        -0.1800 
     72 C          -3.7263  -21.0044  -48.9861 C.2       12 UNK         0.5000 
     73 O          -4.3921  -21.7053  -49.7457 O.2       12 UNK        -0.5000 
     74 N          -3.5253  -21.2981  -47.6939 N.am      13 UNK        -0.5000 
     75 CA         -3.9997  -22.5114  -47.0305 C.3       13 UNK         0.1400 
     76 CB         -3.7277  -22.4230  -45.5212 C.3       13 UNK        -0.1800 
     77 C          -3.3832  -23.7853  -47.6338 C.2       13 UNK         0.5000 
     78 O          -4.1207  -24.7207  -47.9496 O.2       13 UNK        -0.5000 
     79 N          -2.0542  -23.7754  -47.8210 N.am      14 UNK        -0.5000 
     80 CA         -1.2870  -24.8514  -48.4527 C.3       14 UNK         0.1400 
     81 CB          0.2139  -24.5389  -48.3608 C.3       14 UNK        -0.1800 
     82 C          -1.7022  -25.1087  -49.9127 C.2       14 UNK         0.5000 
     83 O          -1.8102  -26.2670  -50.3190 O.2       14 UNK        -0.5000 
     84 N          -1.9852  -24.0341  -50.6598 N.am      15 UNK        -0.5000 
     85 CA         -2.5542  -24.0553  -52.0060 C.3       15 UNK         0.1400 
     86 CB         -2.2471  -22.7175  -52.6994 C.3       15 UNK        -0.1800 
     87 C          -4.0633  -24.3774  -51.9818 C.2       15 UNK         0.5000 
     88 O          -4.8786  -23.5656  -52.4157 O.2       15 UNK        -0.5000 
     89 N          -4.4059  -25.5652  -51.4632 N.am      16 UNK        -0.5000 
     90 CA         -5.7286  -26.2004  -51.4748 C.3       16 UNK         0.1400 
     91 CB         -6.0130  -26.7457  -52.8901 C.3       16 UNK        -0.1800 
     92 C          -6.8791  -25.3213  -50.9303 C.2       16 UNK         0.5000 
     93 O          -7.9978  -25.3993  -51.4410 O.2       16 UNK        -0.5000 
     94 N          -6.5810  -24.5062  -49.9061 N.am      17 UNK        -0.5000 
     95 CA         -7.4618  -23.5045  -49.2953 C.3       17 UNK         0.1400 
     96 CB         -8.6254  -24.1796  -48.5393 C.3       17 UNK        -0.1800 
     97 C          -7.9258  -22.4374  -50.3110 C.2       17 UNK         0.5000 
     98 O          -9.1241  -22.2856  -50.5573 O.2       17 UNK        -0.5000 
     99 N          -6.9429  -21.7229  -50.8740 N.am      18 UNK        -0.5000 
    100 CA        -7.0541  -20.6651  -51.8799 C.3       18 UNK         0.1400 
    101 CB        -7.7890  -19.4341  -51.3103 C.3       18 UNK        -0.1800 
    102 C         -7.6395  -21.1719  -53.2131 C.2       18 UNK         0.5000 
    103 O         -8.5632  -20.5689  -53.7637 O.2       18 UNK        -0.5000 
    104 N         -7.0657  -22.2675  -53.7150 N.am      19 UNK        -0.5000 
    105 CA        -7.3316  -22.8556  -55.0230 C.3       19 UNK         0.1400 
    106 CB        -8.3774  -23.9777  -54.8799 C.3       19 UNK        -0.1800 
    107 C         -5.9915  -23.3242  -55.6182 C.2       19 UNK         0.5000 
    108 O         -4.9452  -22.8070  -55.2231 O.2       19 UNK        -0.5000 
    109 N         -6.0248  -24.2750  -56.5639 N.am      20 UNK        -0.5000 
    110 CA        -4.8621  -24.8987  -57.2109 C.3       20 UNK         0.1400 
    111 CB        -4.1757  -25.8736  -56.2260 C.3       20 UNK        -0.1800 
    112 C         -3.9040  -23.8489  -57.8185 C.2       20 UNK         0.5000 
    113 O         -4.2573  -23.2194  -58.8172 O.2       20 UNK        -0.5000 
    114 N         -2.7464  -23.6347  -57.1766 N.am      21 UNK        -0.5000 
    115 CA        -1.7547  -22.6087  -57.5096 C.3       21 UNK         0.1400 
    116 CB        -0.5344  -22.7824  -56.5921 C.3       21 UNK        -0.1800 
    117 C         -2.2870  -21.1621  -57.4252 C.2       21 UNK         0.5000 
    118 O         -1.7845  -20.2973  -58.1443 O.2       21 UNK        -0.5000 
    119 N         -3.2990  -20.9277  -56.5798 N.am      22 UNK        -0.5000 
    120 CA        -4.0416  -19.6610  -56.4924 C.3       22 UNK         0.1400 
    121 C         -5.1415  -19.5012  -57.5855 C.2       22 UNK         0.5000 
    122 N         -5.4016  -20.4845  -58.4406 N.am      22 UNK        -0.7600 
    123 O         -5.7703  -18.4500  -57.6697 O.2       22 UNK        -0.5000 
    124 C124       -4.6351  -19.4232  -55.0776 C.3       23 UNK        -0.0398 
    125 S125       -3.3880  -19.4016  -53.7456 S.3       23 UNK        -0.2404 
    126 C126       -2.8136  -17.6816  -53.8744 C.3       23 UNK        -0.0205 
    127 H127        3.2147  -16.5275  -49.0147 H         1 UNK         0.0600 
    128 H128        4.0605  -17.5603  -47.8593 H         1 UNK         0.0600 
    129 H129        4.5553  -15.8797  -48.0666 H         1 UNK         0.0600 
    130 H130        1.4754  -15.2731  -48.2681 H         1 UNK         0.3000 
    131 H131        0.2944  -15.8320  -45.7429 H         1 UNK         0.0600 
    132 H132       -0.4573  -13.6118  -47.7102 H         1 UNK         0.0800 
    133 H133       -1.4448  -14.2127  -46.4142 H         1 UNK         0.0800 
    134 H134       -0.5154  -14.2470  -49.8703 H         1 UNK         0.0800 
    135 H135       -2.2423  -14.4639  -50.0302 H         1 UNK         0.0800 
    136 H136       -3.0119  -15.9514  -51.7726 H         1 UNK         0.1150 
    137 H137       -0.2747  -18.6652  -53.6602 H         1 UNK         0.1150 
    138 H138        1.0105  -16.2639  -50.3513 H         1 UNK         0.1150 
    139 H139        2.1734  -18.3645  -53.0875 H         1 UNK         0.0800 
    140 H140        2.6450  -17.5088  -51.6438 H         1 UNK         0.0800 
    141 H141        1.2572  -18.2761  -49.3583 H         1 UNK         0.0800 
    142 H142        2.6023  -19.2670  -48.8990 H         1 UNK         0.0800 
    143 H143        1.1753  -21.2203  -48.6446 H         1 UNK         0.0600 
    144 H144        0.7728  -18.8935  -47.0043 H         1 UNK         0.3000 
    145 H145       -0.6333  -20.7860  -44.2921 H         1 UNK         0.0600 
    146 H146        1.2568  -19.8049  -43.1588 H         1 UNK         0.0600 
    147 H147        1.9077  -20.9028  -44.3579 H         1 UNK         0.0600 
    148 H148        1.9338  -19.1675  -44.6595 H         1 UNK         0.0600 
    149 H149       -0.2297  -18.0483  -44.2858 H         1 UNK         0.3000 
    150 H150       -2.3041  -16.4765  -45.5694 H         1 UNK         0.0600 
    151 H151       -4.5457  -17.5117  -45.7864 H         1 UNK         0.0600 
    152 H152       -4.5775  -16.2776  -44.5404 H         1 UNK         0.0600 
    153 H153       -4.5246  -17.9816  -44.0897 H         1 UNK         0.0600 
    154 H154       -1.9025  -17.4970  -42.8453 H         1 UNK         0.3000 
    155 H155       -0.6778  -14.3347  -41.8572 H         1 UNK         0.0600 
    156 H156       -2.9707  -15.8811  -40.5516 H         1 UNK         0.0600 
    157 H157       -3.0484  -14.1983  -41.0602 H         1 UNK         0.0600 
    158 H158       -1.9471  -14.6704  -39.7776 H         1 UNK         0.0600 
    159 H159       -0.4747  -16.5012  -40.2802 H         1 UNK         0.3000 
    160 H160        1.2194  -18.7413  -41.0296 H         1 UNK         0.0600 
    161 H161        3.7160  -18.3068  -40.9696 H         1 UNK         0.0600 
    162 H162        3.4318  -16.7703  -41.7889 H         1 UNK         0.0600 
    163 H163        3.0427  -18.2757  -42.5896 H         1 UNK         0.0600 
    164 H164        2.3304  -16.4526  -39.4985 H         1 UNK         0.3000 
    165 H165        0.2729  -16.3733  -37.1189 H         1 UNK         0.0600 
    166 H166        1.2670  -17.5209  -35.1215 H         1 UNK         0.0600 
    167 H167        0.2119  -18.5740  -36.0469 H         1 UNK         0.0600 
    168 H168        1.9535  -18.7528  -36.1802 H         1 UNK         0.0600 
    169 H169        2.0657  -15.1188  -37.0789 H         1 UNK         0.3000 
    170 H170        4.0302  -14.3019  -37.1926 H         1 UNK         0.0600 
    171 H171        4.7492  -15.2415  -34.9873 H         1 UNK         0.0600 
    172 H172        6.0185  -16.1636  -35.7836 H         1 UNK         0.0600 
    173 H173        6.0669  -14.4002  -35.7881 H         1 UNK         0.0600 
    174 H174        6.4800  -15.3980  -38.0912 H         1 UNK         0.3000 
    175 H175        7.0400  -14.5750  -40.3458 H         1 UNK         0.0600 
    176 H176        6.0474  -17.4234  -40.9773 H         1 UNK         0.0600 
    177 H177        7.6161  -16.7686  -41.4390 H         1 UNK         0.0600 
    178 H178        7.2321  -17.0112  -39.7439 H         1 UNK         0.0600 
    179 H179        4.7080  -14.9988  -42.0094 H         1 UNK         0.3000 
    180 H180        5.8520  -12.9274  -44.4653 H         1 UNK         0.0600 
    181 H181        5.6842  -15.9036  -45.1697 H         1 UNK         0.0600 
    182 H182        7.0335  -14.8402  -45.5505 H         1 UNK         0.0600 
    183 H183        5.4657  -14.5505  -46.2830 H         1 UNK         0.0600 
    184 H184        3.6402  -14.8027  -44.3918 H         1 UNK         0.3000 
    185 H185        1.8290  -13.9262  -42.2182 H         1 UNK         0.0600 
    186 H186        1.3892  -11.5398  -42.0237 H         1 UNK         0.0600 
    187 H187        1.2226  -11.3548  -43.7620 H         1 UNK         0.0600 
    188 H188        0.0221  -12.2667  -42.8518 H         1 UNK         0.0600 
    189 H189        1.1237  -15.1433  -43.9006 H         1 UNK         0.3000 
    190 H190       -1.4870  -18.8387  -48.3974 H         1 UNK         0.3000 
    191 H191       -3.0033  -19.8187  -50.6164 H         1 UNK         0.0600 
    192 H192       -3.8932  -18.3134  -48.1000 H         1 UNK         0.0600 
    193 H193       -4.8832  -18.5757  -49.5312 H         1 UNK         0.0600 
    194 H194       -3.4327  -17.5952  -49.6412 H         1 UNK         0.0600 
    195 H195       -3.0150  -20.6350  -47.1139 H         1 UNK         0.3000 
    196 H196       -5.0799  -22.5637  -47.1689 H         1 UNK         0.0600 
    197 H197       -4.0868  -23.3150  -45.0066 H         1 UNK         0.0600 
    198 H198       -4.2366  -21.5656  -45.0802 H         1 UNK         0.0600 
    199 H199       -2.6638  -22.3246  -45.3057 H         1 UNK         0.0600 
    200 H200       -1.5229  -22.9704  -47.5013 H         1 UNK         0.3000 
    201 H201       -1.4788  -25.7665  -47.8888 H         1 UNK         0.0600 
    202 H202        0.5316  -24.4310  -47.3236 H         1 UNK         0.0600 
    203 H203        0.4651  -23.6168  -48.8854 H         1 UNK         0.0600 
    204 H204        0.8079  -25.3404  -48.8016 H         1 UNK         0.0600 
    205 H205       -1.8318  -23.1119  -50.2620 H         1 UNK         0.3000 
    206 H206       -2.0650  -24.8433  -52.5819 H         1 UNK         0.0600 
    207 H207       -2.6374  -22.7010  -53.7176 H         1 UNK         0.0600 
    208 H208       -2.6974  -21.8821  -52.1626 H         1 UNK         0.0600 
    209 H209       -1.1739  -22.5363  -52.7577 H         1 UNK         0.0600 
    210 H210       -3.6529  -26.1207  -51.0691 H         1 UNK         0.3000 
    211 H211       -5.6633  -27.0542  -50.7992 H         1 UNK         0.0600 
    212 H212       -6.0641  -25.9420  -53.6246 H         1 UNK         0.0600 
    213 H213       -6.9567  -27.2909  -52.9275 H         1 UNK         0.0600 
    214 H214       -5.2315  -27.4352  -53.2092 H         1 UNK         0.0600 
    215 H215       -5.6289  -24.5186  -49.5584 H         1 UNK         0.3000 
    216 H216       -6.8607  -22.9778  -48.5550 H         1 UNK         0.0600 
    217 H217       -9.2219  -23.4390  -48.0055 H         1 UNK         0.0600 
    218 H218       -8.2545  -24.8909  -47.8014 H         1 UNK         0.0600 
    219 H219       -9.2969  -24.7138  -49.2120 H         1 UNK         0.0600 
    220 H220       -5.9854  -21.9392  -50.5981 H         1 UNK         0.3000 
    221 H221       -6.0302  -20.3576  -52.0986 H         1 UNK         0.0600 
    222 H222       -8.8375  -19.6467  -51.1007 H         1 UNK         0.0600 
    223 H223       -7.3243  -19.0912  -50.3860 H         1 UNK         0.0600 
    224 H224       -7.7587  -18.6032  -52.0160 H         1 UNK         0.0600 
    225 H225       -6.2659  -22.6741  -53.2263 H         1 UNK         0.3000 
    226 H226       -7.7209  -22.0909  -55.6979 H         1 UNK         0.0600 
    227 H227       -8.6677  -24.3838  -55.8490 H         1 UNK         0.0600 
    228 H228       -8.0051  -24.7997  -54.2691 H         1 UNK         0.0600 
    229 H229       -9.2860  -23.6047  -54.4068 H         1 UNK         0.0600 
    230 H230       -6.9254  -24.6170  -56.8667 H         1 UNK         0.3000 
    231 H231       -5.2424  -25.4862  -58.0477 H         1 UNK         0.0600 
    232 H232       -4.8625  -26.6652  -55.9262 H         1 UNK         0.0600 
    233 H233       -3.8372  -25.3763  -55.3161 H         1 UNK         0.0600 
    234 H234       -3.3129  -26.3577  -56.6854 H         1 UNK         0.0600 
    235 H235       -2.5709  -24.1676  -56.3380 H         1 UNK         0.3000 
    236 H236       -1.4373  -22.7800  -58.5401 H         1 UNK         0.0600 
    237 H237        0.2431  -22.0567  -56.8346 H         1 UNK         0.0600 
    238 H238       -0.7975  -22.6418  -55.5430 H         1 UNK         0.0600 
    239 H239       -0.0959  -23.7746  -56.6997 H         1 UNK         0.0600 
    240 H240       -3.6840  -21.6966  -56.0355 H         1 UNK         0.3000 
    241 H241       -3.3364  -18.8500  -56.6805 H         1 UNK         0.0600 
    242 H242       -4.8848  -21.3567  -58.4239 H         1 UNK         0.3800 
    243 H243       -6.1112  -20.3463  -59.1424 H         1 UNK         0.3800 
    244 H244       -5.1894  -18.4838  -55.0404 H         1 UNK         0.0800 
    245 H245       -5.3588  -20.2028  -54.8445 H         1 UNK         0.0800 
    246 H246       -2.3964  -17.5137  -54.8679 H         1 UNK         0.0800 
    247 H247       -3.6696  -17.0115  -53.7814 H         1 UNK         0.0800 
@<TRIPOS>BOND
     1    1    2 1    
     2    1  127 1    
     3    1  128 1    
     4    1  129 1    
     5    2    3 2    
     6    2    4 am   BACKBONE|DICT|INTERRES
     7    4    5 1    
     8    4  130 1    
     9    5    6 1    
    10    5   65 1    
    11    5  131 1    
    12    6    7 1    
    13    6  132 1    
    14    6  133 1    
    15    7    8 1    
    16    8    9 1    
    17    8  134 1    
    18    8  135 1    
    19    9   10 ar   
    20    9   14 ar   
    21   10   11 ar   
    22   10  136 1    
    23   11   12 ar   
    24   11  126 1    
    25   12   13 ar   
    26   12  137 1    
    27   13   14 ar   
    28   13   15 1    
    29   14  138 1    
    30   15   16 1    
    31   15  139 1    
    32   15  140 1    
    33   16   17 1    
    34   17   18 1    
    35   17  141 1    
    36   17  142 1    
    37   18   19 1    
    38   18   67 1    
    39   18  143 1    
    40   19   20 am   BACKBONE|DICT|INTERRES
    41   19  144 1    
    42   20   21 2    
    43   20   22 1    
    44   22   23 1    
    45   22   24 1    
    46   22  145 1    
    47   23  146 1    
    48   23  147 1    
    49   23  148 1    
    50   24   25 am   BACKBONE|DICT|INTERRES
    51   24  149 1    
    52   25   26 2    
    53   25   27 1    
    54   27   28 1    
    55   27   29 1    
    56   27  150 1    
    57   28  151 1    
    58   28  152 1    
    59   28  153 1    
    60   29   30 am   BACKBONE|DICT|INTERRES
    61   29  154 1    
    62   30   31 2    
    63   30   32 1    
    64   32   33 1    
    65   32   34 1    
    66   32  155 1    
    67   33  156 1    
    68   33  157 1    
    69   33  158 1    
    70   34   35 am   BACKBONE|DICT|INTERRES
    71   34  159 1    
    72   35   36 2    
    73   35   37 1    
    74   37   38 1    
    75   37   39 1    
    76   37  160 1    
    77   38  161 1    
    78   38  162 1    
    79   38  163 1    
    80   39   40 am   BACKBONE|DICT|INTERRES
    81   39  164 1    
    82   40   41 2    
    83   40   42 1    
    84   42   43 1    
    85   42   44 1    
    86   42  165 1    
    87   43  166 1    
    88   43  167 1    
    89   43  168 1    
    90   44   45 am   BACKBONE|DICT|INTERRES
    91   44  169 1    
    92   45   46 2    
    93   45   47 1    
    94   47   48 1    
    95   47   49 1    
    96   47  170 1    
    97   48  171 1    
    98   48  172 1    
    99   48  173 1    
   100   49   50 am   BACKBONE|DICT|INTERRES
   101   49  174 1    
   102   50   51 2    
   103   50   52 1    
   104   52   53 1    
   105   52   54 1    
   106   52  175 1    
   107   53  176 1    
   108   53  177 1    
   109   53  178 1    
   110   54   55 am   BACKBONE|DICT|INTERRES
   111   54  179 1    
   112   55   56 2    
   113   55   57 1    
   114   57   58 1    
   115   57   59 1    
   116   57  180 1    
   117   58  181 1    
   118   58  182 1    
   119   58  183 1    
   120   59   60 am   BACKBONE|DICT|INTERRES
   121   59  184 1    
   122   60   61 2    
   123   60   62 1    
   124   62   63 1    
   125   62   64 1    
   126   62  185 1    
   127   63  186 1    
   128   63  187 1    
   129   63  188 1    
   130   64   65 am   BACKBONE|DICT|INTERRES
   131   64  189 1    
   132   65   66 2    
   133   67   68 2    
   134   67   69 am   BACKBONE|DICT|INTERRES
   135   69   70 1    
   136   69  190 1    
   137   70   71 1    
   138   70   72 1    
   139   70  191 1    
   140   71  192 1    
   141   71  193 1    
   142   71  194 1    
   143   72   73 2    
   144   72   74 am   BACKBONE|DICT|INTERRES
   145   74   75 1    
   146   74  195 1    
   147   75   76 1    
   148   75   77 1    
   149   75  196 1    
   150   76  197 1    
   151   76  198 1    
   152   76  199 1    
   153   77   78 2    
   154   77   79 am   BACKBONE|DICT|INTERRES
   155   79   80 1    
   156   79  200 1    
   157   80   81 1    
   158   80   82 1    
   159   80  201 1    
   160   81  202 1    
   161   81  203 1    
   162   81  204 1    
   163   82   83 2    
   164   82   84 am   BACKBONE|DICT|INTERRES
   165   84   85 1    
   166   84  205 1    
   167   85   86 1    
   168   85   87 1    
   169   85  206 1    
   170   86  207 1    
   171   86  208 1    
   172   86  209 1    
   173   87   88 2    
   174   87   89 am   BACKBONE|DICT|INTERRES
   175   89   90 1    
   176   89  210 1    
   177   90   91 1    
   178   90   92 1    
   179   90  211 1    
   180   91  212 1    
   181   91  213 1    
   182   91  214 1    
   183   92   93 2    
   184   92   94 am   BACKBONE|DICT|INTERRES
   185   94   95 1    
   186   94  215 1    
   187   95   96 1    
   188   95   97 1    
   189   95  216 1    
   190   96  217 1    
   191   96  218 1    
   192   96  219 1    
   193   97   98 2    
   194   97   99 am   BACKBONE|DICT|INTERRES
   195   99  100 1    
   196   99  220 1    
   197  100  101 1    
   198  100  102 1    
   199  100  221 1    
   200  101  222 1    
   201  101  223 1    
   202  101  224 1    
   203  102  103 2    
   204  102  104 am   BACKBONE|DICT|INTERRES
   205  104  105 1    
   206  104  225 1    
   207  105  106 1    
   208  105  107 1    
   209  105  226 1    
   210  106  227 1    
   211  106  228 1    
   212  106  229 1    
   213  107  108 2    
   214  107  109 am   BACKBONE|DICT|INTERRES
   215  109  110 1    
   216  109  230 1    
   217  110  111 1    
   218  110  112 1    
   219  110  231 1    
   220  111  232 1    
   221  111  233 1    
   222  111  234 1    
   223  112  113 2    
   224  112  114 am   BACKBONE|DICT|INTERRES
   225  114  115 1    
   226  114  235 1    
   227  115  116 1    
   228  115  117 1    
   229  115  236 1    
   230  116  237 1    
   231  116  238 1    
   232  116  239 1    
   233  117  118 2    
   234  117  119 am   BACKBONE|DICT|INTERRES
   235  119  120 1    
   236  119  240 1    
   237  120  121 1    
   238  120  124 1    
   239  120  241 1    
   240  121  122 am   BACKBONE|DICT|INTERRES
   241  121  123 2    
   242  122  242 1    
   243  122  243 1    
   244  124  125 1    
   245  124  244 1    
   246  124  245 1    
   247  125  126 1    
   248  126  246 1    
   249  126  247 1    
@<TRIPOS>SUBSTRUCTURE
     1 UNK         1 GROUP             0       ****    0 ROOT    
