@<TRIPOS>MOLECULE
3R540
247   249    1
SMALL
USER_CHARGES


@<TRIPOS>ATOM
      1 CA          8.1424  -11.4388  -50.8926 C.3       0 UNK        -0.1800 
      2 C           6.8850  -11.8057  -50.1157 C.2       0 UNK         0.5000 
      3 O           5.8355  -12.0015  -50.7277 O.2       0 UNK        -0.5000 
      4 N           7.0070  -11.8903  -48.7824 N.am      1 UNK        -0.5000 
      5 CA          5.9739  -12.2142  -47.7852 C.3       1 UNK         0.1400 
      6 C6          5.7332  -13.7443  -47.6053 C.3       23 UNK        -0.0398 
      7 S7          4.8916  -14.6040  -48.9817 S.3       23 UNK        -0.2404 
      8 C8          3.7931  -15.7294  -48.0729 C.3       23 UNK        -0.0205 
      9 C9          2.9909  -16.6104  -49.0167 C.ar      23 UNK        -0.0193 
     10 C10         1.8524  -16.1062  -49.6506 C.ar      23 UNK        -0.1150 
     11 C11         1.0952  -16.9147  -50.5035 C.ar      23 UNK        -0.0193 
     12 C12         1.4838  -18.2406  -50.7190 C.ar      23 UNK        -0.1150 
     13 C13         2.6308  -18.7523  -50.1021 C.ar      23 UNK        -0.0193 
     14 C14         3.3782  -17.9327  -49.2508 C.ar      23 UNK        -0.1150 
     15 C15         3.0868  -20.1783  -50.3800 C.3       23 UNK        -0.0205 
     16 S16         2.8251  -21.2829  -48.9572 S.3       23 UNK        -0.2404 
     17 C17         1.0064  -21.3307  -48.8863 C.3       23 UNK        -0.0398 
     18 CA          0.4838  -22.4803  -47.9927 C.3       11 UNK         0.1400 
     19 N           0.7493  -22.2690  -46.5652 N.am      11 UNK        -0.5000 
     20 C           0.4903  -23.1654  -45.6010 C.2       10 UNK         0.5000 
     21 O           0.0563  -24.2974  -45.8179 O.2       10 UNK        -0.5000 
     22 CA          0.6941  -22.7078  -44.1453 C.3       10 UNK         0.1400 
     23 CB          2.1790  -22.7466  -43.7550 C.3       10 UNK        -0.1800 
     24 N           0.1451  -21.3749  -43.8929 N.am      10 UNK        -0.5000 
     25 C          -1.1561  -21.0608  -43.9771 C.2       9 UNK         0.5000 
     26 O          -2.0409  -21.8792  -44.2263 O.2       9 UNK        -0.5000 
     27 CA         -1.5288  -19.5753  -43.8069 C.3       9 UNK         0.1400 
     28 CB         -1.5860  -19.1830  -42.3234 C.3       9 UNK        -0.1800 
     29 N          -0.6154  -18.6824  -44.5202 N.am      9 UNK        -0.5000 
     30 C          -0.4467  -18.6814  -45.8505 C.2       8 UNK         0.5000 
     31 O          -1.0839  -19.3947  -46.6236 O.2       8 UNK        -0.5000 
     32 CA          0.6598  -17.7723  -46.4043 C.3       8 UNK         0.1400 
     33 CB          0.1493  -16.3334  -46.5460 C.3       8 UNK        -0.1800 
     34 N           1.8671  -17.8053  -45.5753 N.am      8 UNK        -0.5000 
     35 C           2.6384  -18.8927  -45.4240 C.2       7 UNK         0.5000 
     36 O           2.4209  -19.9638  -45.9849 O.2       7 UNK        -0.5000 
     37 CA          3.8120  -18.7904  -44.4328 C.3       7 UNK         0.1400 
     38 CB          5.0124  -18.0746  -45.0692 C.3       7 UNK        -0.1800 
     39 N           3.4414  -18.1053  -43.1965 N.am      7 UNK        -0.5000 
     40 C           2.5361  -18.5530  -42.3145 C.2       6 UNK         0.5000 
     41 O           1.9727  -19.6426  -42.4060 O.2       6 UNK        -0.5000 
     42 CA          2.1578  -17.5911  -41.1708 C.3       6 UNK         0.1400 
     43 CB          3.0610  -17.8201  -39.9502 C.3       6 UNK        -0.1800 
     44 N           2.2272  -16.1818  -41.5718 N.am      6 UNK        -0.5000 
     45 C           1.4635  -15.6315  -42.5252 C.2       5 UNK         0.5000 
     46 O           0.5833  -16.2483  -43.1304 O.2       5 UNK        -0.5000 
     47 CA          1.8156  -14.1860  -42.9218 C.3       5 UNK         0.1400 
     48 CB          2.9946  -14.1864  -43.9099 C.3       5 UNK        -0.1800 
     49 N           0.6884  -13.4740  -43.5254 N.am      5 UNK        -0.5000 
     50 C          -0.4044  -13.0825  -42.8523 C.2       4 UNK         0.5000 
     51 O          -0.5636  -13.2900  -41.6479 O.2       4 UNK        -0.5000 
     52 CA         -1.4873  -12.2921  -43.6166 C.3       4 UNK         0.1400 
     53 CB         -1.6097  -10.8657  -43.0545 C.3       4 UNK        -0.1800 
     54 N          -1.2299  -12.1944  -45.0528 N.am      4 UNK        -0.5000 
     55 C          -1.6244  -13.0855  -45.9711 C.2       3 UNK         0.5000 
     56 O          -2.2908  -14.0861  -45.7085 O.2       3 UNK        -0.5000 
     57 CA         -1.2080  -12.8072  -47.4319 C.3       3 UNK         0.1400 
     58 CB         -2.3826  -12.1882  -48.2048 C.3       3 UNK        -0.1800 
     59 N          -0.0422  -11.9243  -47.5694 N.am      3 UNK        -0.5000 
     60 C           1.1926  -12.2160  -47.1439 C.2       2 UNK         0.5000 
     61 O           1.4821  -13.2533  -46.5459 O.2       2 UNK        -0.5000 
     62 CA          2.2720  -11.1520  -47.3660 C.3       2 UNK         0.1400 
     63 CB          2.2287  -10.1034  -46.2384 C.3       2 UNK        -0.1800 
     64 N           3.5664  -11.8237  -47.3828 N.am      2 UNK        -0.5000 
     65 C           4.7058  -11.3241  -47.8724 C.2       1 UNK         0.5000 
     66 O           4.7931  -10.1800  -48.3279 O.2       1 UNK        -0.5000 
     67 C          -1.0120  -22.7266  -48.2619 C.2       11 UNK         0.5000 
     68 O          -1.3428  -23.6736  -48.9730 O.2       11 UNK        -0.5000 
     69 N          -1.8881  -21.9049  -47.6669 N.am      12 UNK        -0.5000 
     70 CA         -3.3396  -22.0318  -47.7798 C.3       12 UNK         0.1400 
     71 CB         -4.0268  -20.8227  -47.1292 C.3       12 UNK        -0.1800 
     72 C          -3.8774  -23.3483  -47.1973 C.2       12 UNK         0.5000 
     73 O          -4.7363  -23.9717  -47.8206 O.2       12 UNK        -0.5000 
     74 N          -3.3400  -23.7655  -46.0427 N.am      13 UNK        -0.5000 
     75 CA         -3.6471  -25.0427  -45.4007 C.3       13 UNK         0.1400 
     76 CB         -3.0113  -25.0885  -44.0031 C.3       13 UNK        -0.1800 
     77 C          -3.2036  -26.2470  -46.2502 C.2       13 UNK         0.5000 
     78 O          -3.9942  -27.1703  -46.4469 O.2       13 UNK        -0.5000 
     79 N          -1.9709  -26.1970  -46.7765 N.am      14 UNK        -0.5000 
     80 CA         -1.4018  -27.2148  -47.6649 C.3       14 UNK         0.1400 
     81 CB          0.0845  -26.9097  -47.9045 C.3       14 UNK        -0.1800 
     82 C          -2.1547  -27.3368  -49.0039 C.2       14 UNK         0.5000 
     83 O          -2.3400  -28.4473  -49.5023 O.2       14 UNK        -0.5000 
     84 N          -2.6037  -26.1955  -49.5399 N.am      15 UNK        -0.5000 
     85 CA         -3.4032  -26.0851  -50.7600 C.3       15 UNK         0.1400 
     86 CB         -3.2073  -24.6774  -51.3369 C.3       15 UNK        -0.1800 
     87 C          -4.9045  -26.3771  -50.5524 C.2       15 UNK         0.5000 
     88 O          -5.6613  -26.3157  -51.5234 O.2       15 UNK        -0.5000 
     89 N          -5.3132  -26.6613  -49.3054 N.am      16 UNK        -0.5000 
     90 CA         -6.6759  -26.9645  -48.8561 C.3       16 UNK         0.1400 
     91 CB         -7.1297  -28.3338  -49.4030 C.3       16 UNK        -0.1800 
     92 C          -7.6803  -25.8322  -49.1588 C.2       16 UNK         0.5000 
     93 O          -8.8184  -26.1016  -49.5479 O.2       16 UNK        -0.5000 
     94 N          -7.2239  -24.5810  -49.0010 N.am      17 UNK        -0.5000 
     95 CA         -7.9019  -23.2989  -49.2333 C.3       17 UNK         0.1400 
     96 CB         -9.1340  -23.1451  -48.3228 C.3       17 UNK        -0.1800 
     97 C          -8.2618  -23.0013  -50.7043 C.2       17 UNK         0.5000 
     98 O          -8.1054  -21.8616  -51.1418 O.2       17 UNK        -0.5000 
     99 N          -8.7268  -24.0137  -51.4448 N.am      18 UNK        -0.5000 
    100 CA        -9.2319  -23.9235  -52.8162 C.3       18 UNK         0.1400 
    101 CB        -9.7940  -25.2935  -53.2252 C.3       18 UNK        -0.1800 
    102 C         -8.2004  -23.4377  -53.8522 C.2       18 UNK         0.5000 
    103 O         -8.5870  -22.7856  -54.8230 O.2       18 UNK        -0.5000 
    104 N         -6.9196  -23.7554  -53.6282 N.am      19 UNK        -0.5000 
    105 CA        -5.8011  -23.3977  -54.5037 C.3       19 UNK         0.1400 
    106 CB        -5.1613  -24.6935  -55.0358 C.3       19 UNK        -0.1800 
    107 C         -4.7815  -22.4855  -53.7918 C.2       19 UNK         0.5000 
    108 O         -3.6265  -22.4227  -54.2143 O.2       19 UNK        -0.5000 
    109 N         -5.2060  -21.8068  -52.7141 N.am      20 UNK        -0.5000 
    110 CA        -4.3561  -20.9609  -51.8677 C.3       20 UNK         0.1400 
    111 CB        -5.1500  -20.5540  -50.6186 C.3       20 UNK        -0.1800 
    112 C         -3.8112  -19.6981  -52.5610 C.2       20 UNK         0.5000 
    113 O         -2.7761  -19.1817  -52.1396 O.2       20 UNK        -0.5000 
    114 N         -4.5360  -19.2076  -53.5770 N.am      21 UNK        -0.5000 
    115 CA        -4.3058  -17.9932  -54.3709 C.3       21 UNK         0.1400 
    116 CB        -2.9360  -18.0155  -55.0779 C.3       21 UNK        -0.1800 
    117 C         -4.5159  -16.6903  -53.5753 C.2       21 UNK         0.5000 
    118 O         -5.3321  -15.8630  -53.9831 O.2       21 UNK        -0.5000 
    119 N         -3.8046  -16.5413  -52.4527 N.am      22 UNK        -0.5000 
    120 CA        -3.9290  -15.4199  -51.5081 C.3       22 UNK         0.1400 
    121 C         -4.9408  -15.6639  -50.3491 C.2       22 UNK         0.5000 
    122 N         -5.6065  -16.8103  -50.2765 N.am      22 UNK        -0.7600 
    123 O         -5.1486  -14.7861  -49.5161 O.2       22 UNK        -0.5000 
    124 C124       -2.5462  -14.9338  -51.0050 C.3       23 UNK        -0.0398 
    125 S125       -1.5525  -16.1874  -50.1169 S.3       23 UNK        -0.2404 
    126 C126       -0.1129  -16.3324  -51.2206 C.3       23 UNK        -0.0205 
    127 H127        8.3874  -12.2279  -51.6036 H         1 UNK         0.0600 
    128 H128        9.0006  -11.2959  -50.2354 H         1 UNK         0.0600 
    129 H129        7.9834  -10.5149  -51.4488 H         1 UNK         0.0600 
    130 H130        7.9106  -11.6786  -48.3833 H         1 UNK         0.3000 
    131 H131        6.4287  -11.8907  -46.8477 H         1 UNK         0.0600 
    132 H132        5.1875  -13.9252  -46.6780 H         1 UNK         0.0800 
    133 H133        6.6946  -14.2386  -47.4603 H         1 UNK         0.0800 
    134 H134        4.3929  -16.3473  -47.4058 H         1 UNK         0.0800 
    135 H135        3.1182  -15.1527  -47.4415 H         1 UNK         0.0800 
    136 H136        1.5548  -15.0810  -49.4786 H         1 UNK         0.1150 
    137 H137        0.9038  -18.8668  -51.3825 H         1 UNK         0.1150 
    138 H138        4.2616  -18.3288  -48.7698 H         1 UNK         0.1150 
    139 H139        2.5785  -20.5860  -51.2552 H         1 UNK         0.0800 
    140 H140        4.1498  -20.1698  -50.6246 H         1 UNK         0.0800 
    141 H141        0.6410  -21.4430  -49.9091 H         1 UNK         0.0800 
    142 H142        0.6398  -20.3661  -48.5326 H         1 UNK         0.0800 
    143 H143        1.0062  -23.3947  -48.2821 H         1 UNK         0.0600 
    144 H144        1.1675  -21.3773  -46.3114 H         1 UNK         0.3000 
    145 H145        0.1606  -23.4104  -43.5018 H         1 UNK         0.0600 
    146 H146        2.5957  -23.7430  -43.9071 H         1 UNK         0.0600 
    147 H147        2.7723  -22.0496  -44.3463 H         1 UNK         0.0600 
    148 H148        2.3163  -22.4931  -42.7037 H         1 UNK         0.0600 
    149 H149        0.8079  -20.6519  -43.6303 H         1 UNK         0.3000 
    150 H150       -2.5246  -19.4330  -44.2317 H         1 UNK         0.0600 
    151 H151       -1.8765  -18.1392  -42.2017 H         1 UNK         0.0600 
    152 H152       -0.6248  -19.3223  -41.8298 H         1 UNK         0.0600 
    153 H153       -2.3181  -19.7902  -41.7897 H         1 UNK         0.0600 
    154 H154       -0.0768  -18.0269  -43.9640 H         1 UNK         0.3000 
    155 H155        0.9220  -18.1368  -47.3997 H         1 UNK         0.0600 
    156 H156       -0.7551  -16.3005  -47.1541 H         1 UNK         0.0600 
    157 H157        0.8857  -15.7019  -47.0345 H         1 UNK         0.0600 
    158 H158       -0.0913  -15.8835  -45.5840 H         1 UNK         0.0600 
    159 H159        2.0577  -16.9847  -45.0218 H         1 UNK         0.3000 
    160 H160        4.1178  -19.8075  -44.1785 H         1 UNK         0.0600 
    161 H161        5.2629  -18.5104  -46.0376 H         1 UNK         0.0600 
    162 H162        5.8969  -18.1584  -44.4377 H         1 UNK         0.0600 
    163 H163        4.8138  -17.0138  -45.2220 H         1 UNK         0.0600 
    164 H164        3.8648  -17.2053  -43.0298 H         1 UNK         0.3000 
    165 H165        1.1278  -17.8086  -40.8811 H         1 UNK         0.0600 
    166 H166        2.7544  -17.1969  -39.1100 H         1 UNK         0.0600 
    167 H167        3.0114  -18.8581  -39.6182 H         1 UNK         0.0600 
    168 H168        4.1051  -17.5961  -40.1725 H         1 UNK         0.0600 
    169 H169        2.9322  -15.6185  -41.1180 H         1 UNK         0.3000 
    170 H170        2.1158  -13.6426  -42.0234 H         1 UNK         0.0600 
    171 H171        3.2450  -13.1739  -44.2274 H         1 UNK         0.0600 
    172 H172        3.8900  -14.6121  -43.4558 H         1 UNK         0.0600 
    173 H173        2.7715  -14.7715  -44.8027 H         1 UNK         0.0600 
    174 H174        0.7363  -13.3205  -44.5253 H         1 UNK         0.3000 
    175 H175       -2.4383  -12.8031  -43.4524 H         1 UNK         0.0600 
    176 H176       -0.6814  -10.3054  -43.1729 H         1 UNK         0.0600 
    177 H177       -2.4034  -10.3111  -43.5556 H         1 UNK         0.0600 
    178 H178       -1.8504  -10.8811  -41.9907 H         1 UNK         0.0600 
    179 H179       -0.6917  -11.3990  -45.3617 H         1 UNK         0.3000 
    180 H180       -0.9585  -13.7660  -47.8915 H         1 UNK         0.0600 
    181 H181       -2.1228  -12.0129  -49.2486 H         1 UNK         0.0600 
    182 H182       -2.6898  -11.2350  -47.7726 H         1 UNK         0.0600 
    183 H183       -3.2506  -12.8492  -48.1908 H         1 UNK         0.0600 
    184 H184       -0.2037  -11.0426  -48.0348 H         1 UNK         0.3000 
    185 H185        2.1013  -10.6723  -48.3320 H         1 UNK         0.0600 
    186 H186        2.4038  -10.5578  -45.2621 H         1 UNK         0.0600 
    187 H187        2.9807   -9.3282  -46.3848 H         1 UNK         0.0600 
    188 H188        1.2591   -9.6057  -46.2008 H         1 UNK         0.0600 
    189 H189        3.5264  -12.7755  -47.0419 H         1 UNK         0.3000 
    190 H190       -1.5413  -21.1130  -47.1291 H         1 UNK         0.3000 
    191 H191       -3.5743  -22.0309  -48.8439 H         1 UNK         0.0600 
    192 H192       -3.8091  -20.7620  -46.0627 H         1 UNK         0.0600 
    193 H193       -5.1100  -20.8813  -47.2423 H         1 UNK         0.0600 
    194 H194       -3.7012  -19.8893  -47.5887 H         1 UNK         0.0600 
    195 H195       -2.6760  -23.1626  -45.5651 H         1 UNK         0.3000 
    196 H196       -4.7308  -25.1024  -45.2807 H         1 UNK         0.0600 
    197 H197       -3.2390  -26.0293  -43.5006 H         1 UNK         0.0600 
    198 H198       -3.3893  -24.2831  -43.3732 H         1 UNK         0.0600 
    199 H199       -1.9262  -24.9937  -44.0487 H         1 UNK         0.0600 
    200 H200       -1.3695  -25.4107  -46.5444 H         1 UNK         0.3000 
    201 H201       -1.4736  -28.1782  -47.1562 H         1 UNK         0.0600 
    202 H202        0.6410  -26.9021  -46.9672 H         1 UNK         0.0600 
    203 H203        0.2237  -25.9394  -48.3826 H         1 UNK         0.0600 
    204 H204        0.5404  -27.6629  -48.5482 H         1 UNK         0.0600 
    205 H205       -2.3403  -25.3176  -49.0998 H         1 UNK         0.3000 
    206 H206       -3.0297  -26.8062  -51.4897 H         1 UNK         0.0600 
    207 H207       -3.6951  -24.5907  -52.3041 H         1 UNK         0.0600 
    208 H208       -3.6253  -23.9126  -50.6813 H         1 UNK         0.0600 
    209 H209       -2.1520  -24.4519  -51.4911 H         1 UNK         0.0600 
    210 H210       -4.6149  -26.6487  -48.5727 H         1 UNK         0.3000 
    211 H211       -6.6270  -27.0424  -47.7691 H         1 UNK         0.0600 
    212 H212       -7.2485  -28.3175  -50.4869 H         1 UNK         0.0600 
    213 H213       -8.0871  -28.6298  -48.9729 H         1 UNK         0.0600 
    214 H214       -6.4095  -29.1139  -49.1562 H         1 UNK         0.0600 
    215 H215       -6.2641  -24.4845  -48.6708 H         1 UNK         0.3000 
    216 H216       -7.1843  -22.5369  -48.9282 H         1 UNK         0.0600 
    217 H217       -9.5658  -22.1482  -48.4196 H         1 UNK         0.0600 
    218 H218       -8.8685  -23.2836  -47.2747 H         1 UNK         0.0600 
    219 H219       -9.9171  -23.8627  -48.5689 H         1 UNK         0.0600 
    220 H220       -8.8263  -24.9117  -50.9781 H         1 UNK         0.3000 
    221 H221      -10.0532  -23.2041  -52.8143 H         1 UNK         0.0600 
    222 H222       -9.0226  -26.0647  -53.2047 H         1 UNK         0.0600 
    223 H223      -10.5972  -25.6056  -52.5574 H         1 UNK         0.0600 
    224 H224      -10.2046  -25.2642  -54.2354 H         1 UNK         0.0600 
    225 H225       -6.6944  -24.3057  -52.8090 H         1 UNK         0.3000 
    226 H226       -6.1540  -22.8283  -55.3655 H         1 UNK         0.0600 
    227 H227       -5.8851  -25.2800  -55.6019 H         1 UNK         0.0600 
    228 H228       -4.3273  -24.4817  -55.7060 H         1 UNK         0.0600 
    229 H229       -4.7872  -25.3228  -54.2284 H         1 UNK         0.0600 
    230 H230       -6.1754  -21.8966  -52.4363 H         1 UNK         0.3000 
    231 H231       -3.4957  -21.5543  -51.5515 H         1 UNK         0.0600 
    232 H232       -6.0446  -19.9862  -50.8769 H         1 UNK         0.0600 
    233 H233       -5.4642  -21.4290  -50.0526 H         1 UNK         0.0600 
    234 H234       -4.5480  -19.9323  -49.9549 H         1 UNK         0.0600 
    235 H235       -5.3808  -19.7102  -53.8096 H         1 UNK         0.3000 
    236 H236       -5.0679  -18.0086  -55.1518 H         1 UNK         0.0600 
    237 H237       -2.1053  -17.9641  -54.3738 H         1 UNK         0.0600 
    238 H238       -2.8154  -18.9214  -55.6719 H         1 UNK         0.0600 
    239 H239       -2.8374  -17.1665  -55.7553 H         1 UNK         0.0600 
    240 H240       -3.1873  -17.2997  -52.1742 H         1 UNK         0.3000 
    241 H241       -4.3539  -14.5739  -52.0514 H         1 UNK         0.0600 
    242 H242       -6.2674  -16.9514  -49.5291 H         1 UNK         0.3800 
    243 H243       -5.4632  -17.5256  -50.9682 H         1 UNK         0.3800 
    244 H244       -1.9802  -14.5563  -51.8569 H         1 UNK         0.0800 
    245 H245       -2.6678  -14.0748  -50.3463 H         1 UNK         0.0800 
    246 H246        0.1594  -15.3501  -51.6092 H         1 UNK         0.0800 
    247 H247       -0.3851  -16.9425  -52.0835 H         1 UNK         0.0800 
@<TRIPOS>BOND
     1    1    2 1    
     2    1  127 1    
     3    1  128 1    
     4    1  129 1    
     5    2    3 2    
     6    2    4 am   BACKBONE|DICT|INTERRES
     7    4    5 1    
     8    4  130 1    
     9    5    6 1    
    10    5   65 1    
    11    5  131 1    
    12    6    7 1    
    13    6  132 1    
    14    6  133 1    
    15    7    8 1    
    16    8    9 1    
    17    8  134 1    
    18    8  135 1    
    19    9   10 ar   
    20    9   14 ar   
    21   10   11 ar   
    22   10  136 1    
    23   11   12 ar   
    24   11  126 1    
    25   12   13 ar   
    26   12  137 1    
    27   13   14 ar   
    28   13   15 1    
    29   14  138 1    
    30   15   16 1    
    31   15  139 1    
    32   15  140 1    
    33   16   17 1    
    34   17   18 1    
    35   17  141 1    
    36   17  142 1    
    37   18   19 1    
    38   18   67 1    
    39   18  143 1    
    40   19   20 am   BACKBONE|DICT|INTERRES
    41   19  144 1    
    42   20   21 2    
    43   20   22 1    
    44   22   23 1    
    45   22   24 1    
    46   22  145 1    
    47   23  146 1    
    48   23  147 1    
    49   23  148 1    
    50   24   25 am   BACKBONE|DICT|INTERRES
    51   24  149 1    
    52   25   26 2    
    53   25   27 1    
    54   27   28 1    
    55   27   29 1    
    56   27  150 1    
    57   28  151 1    
    58   28  152 1    
    59   28  153 1    
    60   29   30 am   BACKBONE|DICT|INTERRES
    61   29  154 1    
    62   30   31 2    
    63   30   32 1    
    64   32   33 1    
    65   32   34 1    
    66   32  155 1    
    67   33  156 1    
    68   33  157 1    
    69   33  158 1    
    70   34   35 am   BACKBONE|DICT|INTERRES
    71   34  159 1    
    72   35   36 2    
    73   35   37 1    
    74   37   38 1    
    75   37   39 1    
    76   37  160 1    
    77   38  161 1    
    78   38  162 1    
    79   38  163 1    
    80   39   40 am   BACKBONE|DICT|INTERRES
    81   39  164 1    
    82   40   41 2    
    83   40   42 1    
    84   42   43 1    
    85   42   44 1    
    86   42  165 1    
    87   43  166 1    
    88   43  167 1    
    89   43  168 1    
    90   44   45 am   BACKBONE|DICT|INTERRES
    91   44  169 1    
    92   45   46 2    
    93   45   47 1    
    94   47   48 1    
    95   47   49 1    
    96   47  170 1    
    97   48  171 1    
    98   48  172 1    
    99   48  173 1    
   100   49   50 am   BACKBONE|DICT|INTERRES
   101   49  174 1    
   102   50   51 2    
   103   50   52 1    
   104   52   53 1    
   105   52   54 1    
   106   52  175 1    
   107   53  176 1    
   108   53  177 1    
   109   53  178 1    
   110   54   55 am   BACKBONE|DICT|INTERRES
   111   54  179 1    
   112   55   56 2    
   113   55   57 1    
   114   57   58 1    
   115   57   59 1    
   116   57  180 1    
   117   58  181 1    
   118   58  182 1    
   119   58  183 1    
   120   59   60 am   BACKBONE|DICT|INTERRES
   121   59  184 1    
   122   60   61 2    
   123   60   62 1    
   124   62   63 1    
   125   62   64 1    
   126   62  185 1    
   127   63  186 1    
   128   63  187 1    
   129   63  188 1    
   130   64   65 am   BACKBONE|DICT|INTERRES
   131   64  189 1    
   132   65   66 2    
   133   67   68 2    
   134   67   69 am   BACKBONE|DICT|INTERRES
   135   69   70 1    
   136   69  190 1    
   137   70   71 1    
   138   70   72 1    
   139   70  191 1    
   140   71  192 1    
   141   71  193 1    
   142   71  194 1    
   143   72   73 2    
   144   72   74 am   BACKBONE|DICT|INTERRES
   145   74   75 1    
   146   74  195 1    
   147   75   76 1    
   148   75   77 1    
   149   75  196 1    
   150   76  197 1    
   151   76  198 1    
   152   76  199 1    
   153   77   78 2    
   154   77   79 am   BACKBONE|DICT|INTERRES
   155   79   80 1    
   156   79  200 1    
   157   80   81 1    
   158   80   82 1    
   159   80  201 1    
   160   81  202 1    
   161   81  203 1    
   162   81  204 1    
   163   82   83 2    
   164   82   84 am   BACKBONE|DICT|INTERRES
   165   84   85 1    
   166   84  205 1    
   167   85   86 1    
   168   85   87 1    
   169   85  206 1    
   170   86  207 1    
   171   86  208 1    
   172   86  209 1    
   173   87   88 2    
   174   87   89 am   BACKBONE|DICT|INTERRES
   175   89   90 1    
   176   89  210 1    
   177   90   91 1    
   178   90   92 1    
   179   90  211 1    
   180   91  212 1    
   181   91  213 1    
   182   91  214 1    
   183   92   93 2    
   184   92   94 am   BACKBONE|DICT|INTERRES
   185   94   95 1    
   186   94  215 1    
   187   95   96 1    
   188   95   97 1    
   189   95  216 1    
   190   96  217 1    
   191   96  218 1    
   192   96  219 1    
   193   97   98 2    
   194   97   99 am   BACKBONE|DICT|INTERRES
   195   99  100 1    
   196   99  220 1    
   197  100  101 1    
   198  100  102 1    
   199  100  221 1    
   200  101  222 1    
   201  101  223 1    
   202  101  224 1    
   203  102  103 2    
   204  102  104 am   BACKBONE|DICT|INTERRES
   205  104  105 1    
   206  104  225 1    
   207  105  106 1    
   208  105  107 1    
   209  105  226 1    
   210  106  227 1    
   211  106  228 1    
   212  106  229 1    
   213  107  108 2    
   214  107  109 am   BACKBONE|DICT|INTERRES
   215  109  110 1    
   216  109  230 1    
   217  110  111 1    
   218  110  112 1    
   219  110  231 1    
   220  111  232 1    
   221  111  233 1    
   222  111  234 1    
   223  112  113 2    
   224  112  114 am   BACKBONE|DICT|INTERRES
   225  114  115 1    
   226  114  235 1    
   227  115  116 1    
   228  115  117 1    
   229  115  236 1    
   230  116  237 1    
   231  116  238 1    
   232  116  239 1    
   233  117  118 2    
   234  117  119 am   BACKBONE|DICT|INTERRES
   235  119  120 1    
   236  119  240 1    
   237  120  121 1    
   238  120  124 1    
   239  120  241 1    
   240  121  122 am   BACKBONE|DICT|INTERRES
   241  121  123 2    
   242  122  242 1    
   243  122  243 1    
   244  124  125 1    
   245  124  244 1    
   246  124  245 1    
   247  125  126 1    
   248  126  246 1    
   249  126  247 1    
@<TRIPOS>SUBSTRUCTURE
     1 UNK         1 GROUP             0       ****    0 ROOT    
