@<TRIPOS>MOLECULE
3R540
247   249    1
SMALL
USER_CHARGES


@<TRIPOS>ATOM
      1 CA          9.0554  -16.7515  -48.5686 C.3       0 UNK        -0.1800 
      2 C           7.7735  -17.3614  -48.0195 C.2       0 UNK         0.5000 
      3 O           7.8324  -18.2720  -47.1936 O.2       0 UNK        -0.5000 
      4 N           6.6165  -16.8609  -48.4717 N.am      1 UNK        -0.5000 
      5 CA          5.2819  -17.3119  -48.0532 C.3       1 UNK         0.1400 
      6 C6          4.2275  -17.0305  -49.1502 C.3       23 UNK        -0.0398 
      7 S7          3.9368  -15.2641  -49.5093 S.3       23 UNK        -0.2404 
      8 C8          3.0525  -15.3824  -51.0977 C.3       23 UNK        -0.0205 
      9 C9          1.6956  -16.0571  -50.9514 C.ar      23 UNK        -0.0193 
     10 C10         0.6165  -15.3464  -50.4218 C.ar      23 UNK        -0.1150 
     11 C11        -0.6362  -15.9513  -50.2895 C.ar      23 UNK        -0.0193 
     12 C12        -0.8065  -17.2807  -50.6891 C.ar      23 UNK        -0.1150 
     13 C13         0.2591  -17.9952  -51.2441 C.ar      23 UNK        -0.0193 
     14 C14         1.5095  -17.3800  -51.3649 C.ar      23 UNK        -0.1150 
     15 C15         0.0534  -19.4083  -51.7702 C.3       23 UNK        -0.0205 
     16 S16         0.6786  -20.6756  -50.6249 S.3       23 UNK        -0.2404 
     17 C17        -0.7731  -20.9543  -49.5547 C.3       23 UNK        -0.0398 
     18 CA         -0.5248  -22.0542  -48.4948 C.3       11 UNK         0.1400 
     19 N           0.7081  -21.8456  -47.7245 N.am      11 UNK        -0.5000 
     20 C           1.3112  -22.7857  -46.9835 C.2       10 UNK         0.5000 
     21 O           0.7852  -23.8555  -46.6780 O.2       10 UNK        -0.5000 
     22 CA          2.7448  -22.4821  -46.5203 C.3       10 UNK         0.1400 
     23 CB          3.6899  -22.2787  -47.7168 C.3       10 UNK        -0.1800 
     24 N           2.7756  -21.2997  -45.6697 N.am      10 UNK        -0.5000 
     25 C           2.4422  -21.2925  -44.3727 C.2       9 UNK         0.5000 
     26 O           2.1827  -22.3038  -43.7200 O.2       9 UNK        -0.5000 
     27 CA          2.3600  -19.9094  -43.7020 C.3       9 UNK         0.1400 
     28 CB          3.7153  -19.5148  -43.0984 C.3       9 UNK        -0.1800 
     29 N           1.9133  -18.8586  -44.6205 N.am      9 UNK        -0.5000 
     30 C           0.6938  -18.8122  -45.1725 C.2       8 UNK         0.5000 
     31 O          -0.1613  -19.6788  -44.9965 O.2       8 UNK        -0.5000 
     32 CA          0.4291  -17.6197  -46.1023 C.3       8 UNK         0.1400 
     33 CB          0.9004  -17.9100  -47.5358 C.3       8 UNK        -0.1800 
     34 N          -0.9525  -17.1277  -46.0463 N.am      8 UNK        -0.5000 
     35 C          -2.0754  -17.6973  -46.5144 C.2       7 UNK         0.5000 
     36 O          -2.1086  -18.7411  -47.1645 O.2       7 UNK        -0.5000 
     37 CA         -3.3953  -16.9422  -46.2512 C.3       7 UNK         0.1400 
     38 CB         -4.6242  -17.8753  -46.1965 C.3       7 UNK        -0.1800 
     39 N          -3.3401  -16.0399  -45.0961 N.am      7 UNK        -0.5000 
     40 C          -3.2930  -16.3644  -43.7942 C.2       6 UNK         0.5000 
     41 O          -3.3168  -17.5217  -43.3758 O.2       6 UNK        -0.5000 
     42 CA         -3.1976  -15.1952  -42.7895 C.3       6 UNK         0.1400 
     43 CB         -2.3175  -15.5519  -41.5778 C.3       6 UNK        -0.1800 
     44 N          -2.6561  -13.9925  -43.4240 N.am      6 UNK        -0.5000 
     45 C          -3.3652  -12.9321  -43.8339 C.2       5 UNK         0.5000 
     46 O          -4.5780  -12.8145  -43.6587 O.2       5 UNK        -0.5000 
     47 CA         -2.6018  -11.8225  -44.5899 C.3       5 UNK         0.1400 
     48 CB         -2.2972  -10.6474  -43.6484 C.3       5 UNK        -0.1800 
     49 N          -1.3483  -12.2714  -45.2035 N.am      5 UNK        -0.5000 
     50 C          -1.2475  -13.1608  -46.2018 C.2       4 UNK         0.5000 
     51 O          -2.2175  -13.6846  -46.7485 O.2       4 UNK        -0.5000 
     52 CA          0.1786  -13.5944  -46.6003 C.3       4 UNK         0.1400 
     53 CB          0.7479  -12.6594  -47.6772 C.3       4 UNK        -0.1800 
     54 N           1.1201  -13.6515  -45.4759 N.am      4 UNK        -0.5000 
     55 C           0.9555  -14.3397  -44.3397 C.2       3 UNK         0.5000 
     56 O          -0.0368  -15.0339  -44.1137 O.2       3 UNK        -0.5000 
     57 CA          2.0780  -14.2247  -43.2892 C.3       3 UNK         0.1400 
     58 CB          1.6651  -14.8215  -41.9316 C.3       3 UNK        -0.1800 
     59 N           3.3265  -14.8594  -43.7116 N.am      3 UNK        -0.5000 
     60 C           4.1688  -14.4122  -44.6522 C.2       2 UNK         0.5000 
     61 O           3.9539  -13.4142  -45.3429 O.2       2 UNK        -0.5000 
     62 CA          5.5013  -15.1676  -44.8256 C.3       2 UNK         0.1400 
     63 CB          5.8126  -16.1853  -43.7052 C.3       2 UNK        -0.1800 
     64 N           5.6159  -15.7942  -46.1422 N.am      2 UNK        -0.5000 
     65 C           4.8650  -16.7797  -46.6580 C.2       1 UNK         0.5000 
     66 O           3.9059  -17.2904  -46.0737 O.2       1 UNK        -0.5000 
     67 C          -1.7783  -22.3040  -47.6309 C.2       11 UNK         0.5000 
     68 O          -2.6961  -22.9778  -48.1032 O.2       11 UNK        -0.5000 
     69 N          -1.7901  -21.8388  -46.3731 N.am      12 UNK        -0.5000 
     70 CA         -2.8529  -22.1435  -45.4119 C.3       12 UNK         0.1400 
     71 CB         -2.7146  -21.2539  -44.1693 C.3       12 UNK        -0.1800 
     72 C          -2.9090  -23.6303  -45.0092 C.2       12 UNK         0.5000 
     73 O          -3.9733  -24.1007  -44.6078 O.2       12 UNK        -0.5000 
     74 N          -1.7817  -24.3424  -45.1375 N.am      13 UNK        -0.5000 
     75 CA         -1.6747  -25.7789  -44.9031 C.3       13 UNK         0.1400 
     76 CB         -0.4091  -26.0659  -44.0787 C.3       13 UNK        -0.1800 
     77 C          -1.6456  -26.5407  -46.2368 C.2       13 UNK         0.5000 
     78 O          -2.4406  -27.4604  -46.4286 O.2       13 UNK        -0.5000 
     79 N          -0.7377  -26.1407  -47.1381 N.am      14 UNK        -0.5000 
     80 CA         -0.4350  -26.8320  -48.3935 C.3       14 UNK         0.1400 
     81 CB          0.8649  -26.2593  -48.9800 C.3       14 UNK        -0.1800 
     82 C          -1.5646  -26.7679  -49.4357 C.2       14 UNK         0.5000 
     83 O          -1.7303  -27.7174  -50.2022 O.2       14 UNK        -0.5000 
     84 N          -2.3161  -25.6609  -49.4424 N.am      15 UNK        -0.5000 
     85 CA         -3.4487  -25.4175  -50.3378 C.3       15 UNK         0.1400 
     86 CB         -3.1089  -24.2124  -51.2295 C.3       15 UNK        -0.1800 
     87 C          -4.7538  -25.2026  -49.5450 C.2       15 UNK         0.5000 
     88 O          -5.7536  -24.7638  -50.1205 O.2       15 UNK        -0.5000 
     89 N          -4.7127  -25.4886  -48.2324 N.am      16 UNK        -0.5000 
     90 CA         -5.7954  -25.4129  -47.2427 C.3       16 UNK         0.1400 
     91 CB         -6.8453  -26.5030  -47.5412 C.3       16 UNK        -0.1800 
     92 C          -6.4450  -24.0176  -47.0938 C.2       16 UNK         0.5000 
     93 O          -7.5620  -23.9273  -46.5828 O.2       16 UNK        -0.5000 
     94 N          -5.7695  -22.9671  -47.5914 N.am      17 UNK        -0.5000 
     95 CA         -6.2754  -21.6025  -47.8091 C.3       17 UNK         0.1400 
     96 CB         -6.6367  -20.9184  -46.4720 C.3       17 UNK        -0.1800 
     97 C          -7.4482  -21.5237  -48.8194 C.2       17 UNK         0.5000 
     98 O          -8.0953  -20.4797  -48.9108 O.2       17 UNK        -0.5000 
     99 N          -7.7109  -22.6150  -49.5517 N.am      18 UNK        -0.5000 
    100 CA        -8.8661  -22.7867  -50.4313 C.3       18 UNK         0.1400 
    101 CB        -9.5709  -24.1054  -50.0740 C.3       18 UNK        -0.1800 
    102 C         -8.4380  -22.7875  -51.9035 C.2       18 UNK         0.5000 
    103 O         -9.0689  -22.1163  -52.7204 O.2       18 UNK        -0.5000 
    104 N         -7.3560  -23.5153  -52.2095 N.am      19 UNK        -0.5000 
    105 CA        -6.7294  -23.5571  -53.5328 C.3       19 UNK         0.1400 
    106 CB        -6.2162  -24.9848  -53.7871 C.3       19 UNK        -0.1800 
    107 C         -5.5994  -22.5151  -53.6701 C.2       19 UNK         0.5000 
    108 O         -4.9900  -22.4168  -54.7360 O.2       19 UNK        -0.5000 
    109 N         -5.3237  -21.7758  -52.5861 N.am      20 UNK        -0.5000 
    110 CA        -4.3138  -20.7257  -52.4956 C.3       20 UNK         0.1400 
    111 CB        -4.2210  -20.2660  -51.0304 C.3       20 UNK        -0.1800 
    112 C         -4.6364  -19.5290  -53.4098 C.2       20 UNK         0.5000 
    113 O         -5.8025  -19.1464  -53.5332 O.2       20 UNK        -0.5000 
    114 N         -3.5907  -18.9384  -53.9927 N.am      21 UNK        -0.5000 
    115 CA        -3.6417  -17.7043  -54.7657 C.3       21 UNK         0.1400 
    116 CB        -3.6525  -18.0260  -56.2690 C.3       21 UNK        -0.1800 
    117 C         -2.4104  -16.8829  -54.3711 C.2       21 UNK         0.5000 
    118 O         -1.2991  -17.4169  -54.3934 O.2       21 UNK        -0.5000 
    119 N         -2.6353  -15.6235  -53.9873 N.am      22 UNK        -0.5000 
    120 CA        -1.6133  -14.7346  -53.4069 C.3       22 UNK         0.1400 
    121 C         -0.8654  -13.8516  -54.4476 C.2       22 UNK         0.5000 
    122 N         -1.1791  -13.9289  -55.7352 N.am      22 UNK        -0.7600 
    123 O          0.0236  -13.0870  -54.0837 O.2       22 UNK        -0.5000 
    124 C124       -2.1905  -13.8773  -52.2461 C.3       23 UNK        -0.0398 
    125 S125       -3.0938  -14.8615  -50.9945 S.3       23 UNK        -0.2404 
    126 C126       -1.8100  -15.1587  -49.7387 C.3       23 UNK        -0.0205 
    127 H127        8.8515  -15.9579  -49.2879 H         1 UNK         0.0600 
    128 H128        9.6513  -17.5164  -49.0665 H         1 UNK         0.0600 
    129 H129        9.6484  -16.3305  -47.7567 H         1 UNK         0.0600 
    130 H130        6.6269  -16.1119  -49.1505 H         1 UNK         0.3000 
    131 H131        5.3268  -18.3980  -47.9454 H         1 UNK         0.0600 
    132 H132        3.2773  -17.4892  -48.8933 H         1 UNK         0.0800 
    133 H133        4.5386  -17.5211  -50.0736 H         1 UNK         0.0800 
    134 H134        2.9128  -14.3774  -51.4985 H         1 UNK         0.0800 
    135 H135        3.6723  -15.9135  -51.8217 H         1 UNK         0.0800 
    136 H136        0.7562  -14.3188  -50.1195 H         1 UNK         0.1150 
    137 H137       -1.7782  -17.7438  -50.5973 H         1 UNK         0.1150 
    138 H138        2.3347  -17.9309  -51.7937 H         1 UNK         0.1150 
    139 H139       -0.9992  -19.5894  -51.9903 H         1 UNK         0.0800 
    140 H140        0.5776  -19.5101  -52.7215 H         1 UNK         0.0800 
    141 H141       -1.6032  -21.2468  -50.1977 H         1 UNK         0.0800 
    142 H142       -1.0658  -20.0142  -49.0932 H         1 UNK         0.0800 
    143 H143       -0.3723  -22.9818  -49.0510 H         1 UNK         0.0600 
    144 H144        1.2009  -20.9882  -47.9197 H         1 UNK         0.3000 
    145 H145        3.1039  -23.3437  -45.9531 H         1 UNK         0.0600 
    146 H146        4.7211  -22.1586  -47.3840 H         1 UNK         0.0600 
    147 H147        3.6638  -23.1411  -48.3844 H         1 UNK         0.0600 
    148 H148        3.4271  -21.3994  -48.3062 H         1 UNK         0.0600 
    149 H149        2.9755  -20.4154  -46.1119 H         1 UNK         0.3000 
    150 H150        1.6318  -19.9796  -42.8911 H         1 UNK         0.0600 
    151 H151        4.0739  -20.2801  -42.4089 H         1 UNK         0.0600 
    152 H152        3.6379  -18.5844  -42.5360 H         1 UNK         0.0600 
    153 H153        4.4759  -19.3845  -43.8694 H         1 UNK         0.0600 
    154 H154        2.6044  -18.1667  -44.8979 H         1 UNK         0.3000 
    155 H155        1.0519  -16.8048  -45.7368 H         1 UNK         0.0600 
    156 H156        1.0266  -16.9840  -48.0942 H         1 UNK         0.0600 
    157 H157        0.2156  -18.5424  -48.0901 H         1 UNK         0.0600 
    158 H158        1.8589  -18.4260  -47.5275 H         1 UNK         0.0600 
    159 H159       -1.0655  -16.3049  -45.4668 H         1 UNK         0.3000 
    160 H160       -3.5390  -16.2898  -47.1119 H         1 UNK         0.0600 
    161 H161       -4.7602  -18.3934  -47.1466 H         1 UNK         0.0600 
    162 H162       -5.5389  -17.3167  -45.9993 H         1 UNK         0.0600 
    163 H163       -4.5218  -18.6394  -45.4260 H         1 UNK         0.0600 
    164 H164       -3.2779  -15.0577  -45.3344 H         1 UNK         0.3000 
    165 H165       -4.2086  -15.0051  -42.4245 H         1 UNK         0.0600 
    166 H166       -1.3159  -15.8557  -41.8832 H         1 UNK         0.0600 
    167 H167       -2.2193  -14.7060  -40.8975 H         1 UNK         0.0600 
    168 H168       -2.7493  -16.3758  -41.0086 H         1 UNK         0.0600 
    169 H169       -1.6687  -14.0421  -43.6529 H         1 UNK         0.3000 
    170 H170       -3.2551  -11.4631  -45.3877 H         1 UNK         0.0600 
    171 H171       -3.2115  -10.2624  -43.1945 H         1 UNK         0.0600 
    172 H172       -1.6287  -10.9436  -42.8390 H         1 UNK         0.0600 
    173 H173       -1.8309   -9.8212  -44.1855 H         1 UNK         0.0600 
    174 H174       -0.4959  -11.9014  -44.8093 H         1 UNK         0.3000 
    175 H175        0.1091  -14.5978  -47.0243 H         1 UNK         0.0600 
    176 H176        0.9271  -11.6578  -47.2847 H         1 UNK         0.0600 
    177 H177        1.6925  -13.0401  -48.0671 H         1 UNK         0.0600 
    178 H178        0.0637  -12.5605  -48.5202 H         1 UNK         0.0600 
    179 H179        2.0127  -13.1841  -45.6047 H         1 UNK         0.3000 
    180 H180        2.2694  -13.1604  -43.1377 H         1 UNK         0.0600 
    181 H181        1.4756  -15.8936  -42.0026 H         1 UNK         0.0600 
    182 H182        0.7550  -14.3504  -41.5578 H         1 UNK         0.0600 
    183 H183        2.4393  -14.6668  -41.1800 H         1 UNK         0.0600 
    184 H184        3.5833  -15.6992  -43.2148 H         1 UNK         0.3000 
    185 H185        6.2796  -14.4041  -44.7876 H         1 UNK         0.0600 
    186 H186        6.8007  -16.6240  -43.8446 H         1 UNK         0.0600 
    187 H187        5.8117  -15.7064  -42.7251 H         1 UNK         0.0600 
    188 H188        5.0942  -17.0027  -43.6781 H         1 UNK         0.0600 
    189 H189        6.3544  -15.4328  -46.7282 H         1 UNK         0.3000 
    190 H190       -1.0448  -21.2292  -46.0505 H         1 UNK         0.3000 
    191 H191       -3.8004  -21.9030  -45.8908 H         1 UNK         0.0600 
    192 H192       -3.5214  -21.4420  -43.4600 H         1 UNK         0.0600 
    193 H193       -2.7595  -20.1975  -44.4353 H         1 UNK         0.0600 
    194 H194       -1.7715  -21.4317  -43.6515 H         1 UNK         0.0600 
    195 H195       -0.9560  -23.8834  -45.5047 H         1 UNK         0.3000 
    196 H196       -2.5320  -26.1396  -44.3308 H         1 UNK         0.0600 
    197 H197       -0.2903  -27.1361  -43.9048 H         1 UNK         0.0600 
    198 H198       -0.4606  -25.5819  -43.1033 H         1 UNK         0.0600 
    199 H199        0.4936  -25.7107  -44.5772 H         1 UNK         0.0600 
    200 H200       -0.1343  -25.3524  -46.9085 H         1 UNK         0.3000 
    201 H201       -0.2651  -27.8850  -48.1595 H         1 UNK         0.0600 
    202 H202        1.6917  -26.3555  -48.2761 H         1 UNK         0.0600 
    203 H203        0.7625  -25.2035  -49.2328 H         1 UNK         0.0600 
    204 H204        1.1498  -26.7883  -49.8903 H         1 UNK         0.0600 
    205 H205       -2.1208  -24.9228  -48.7768 H         1 UNK         0.3000 
    206 H206       -3.6215  -26.2791  -50.9852 H         1 UNK         0.0600 
    207 H207       -2.1542  -24.3525  -51.7365 H         1 UNK         0.0600 
    208 H208       -3.8610  -24.0767  -52.0016 H         1 UNK         0.0600 
    209 H209       -3.0517  -23.2862  -50.6606 H         1 UNK         0.0600 
    210 H210       -3.8389  -25.8495  -47.8770 H         1 UNK         0.3000 
    211 H211       -5.3444  -25.6461  -46.2780 H         1 UNK         0.0600 
    212 H212       -7.3837  -26.3016  -48.4679 H         1 UNK         0.0600 
    213 H213       -7.5838  -26.5702  -46.7415 H         1 UNK         0.0600 
    214 H214       -6.3796  -27.4845  -47.6306 H         1 UNK         0.0600 
    215 H215       -4.8420  -23.1474  -47.9609 H         1 UNK         0.3000 
    216 H216       -5.4502  -21.0439  -48.2524 H         1 UNK         0.0600 
    217 H217       -5.8229  -20.9728  -45.7518 H         1 UNK         0.0600 
    218 H218       -7.5176  -21.3656  -46.0114 H         1 UNK         0.0600 
    219 H219       -6.8579  -19.8614  -46.6228 H         1 UNK         0.0600 
    220 H220       -7.0948  -23.4152  -49.4576 H         1 UNK         0.3000 
    221 H221       -9.5813  -21.9737  -50.2899 H         1 UNK         0.0600 
    222 H222       -8.9095  -24.9646  -50.1935 H         1 UNK         0.0600 
    223 H223       -9.9182  -24.0956  -49.0405 H         1 UNK         0.0600 
    224 H224      -10.4422  -24.2684  -50.7095 H         1 UNK         0.0600 
    225 H225       -6.8826  -24.0364  -51.4757 H         1 UNK         0.3000 
    226 H226       -7.4682  -23.3276  -54.3033 H         1 UNK         0.0600 
    227 H227       -7.0407  -25.6978  -53.7959 H         1 UNK         0.0600 
    228 H228       -5.7153  -25.0596  -54.7531 H         1 UNK         0.0600 
    229 H229       -5.5103  -25.3080  -53.0228 H         1 UNK         0.0600 
    230 H230       -5.9079  -21.9097  -51.7758 H         1 UNK         0.3000 
    231 H231       -3.3550  -21.1566  -52.7918 H         1 UNK         0.0600 
    232 H232       -3.4299  -19.5271  -50.9004 H         1 UNK         0.0600 
    233 H233       -4.0033  -21.0987  -50.3622 H         1 UNK         0.0600 
    234 H234       -5.1523  -19.8074  -50.6950 H         1 UNK         0.0600 
    235 H235       -2.6548  -19.2815  -53.8231 H         1 UNK         0.3000 
    236 H236       -4.5417  -17.1374  -54.5166 H         1 UNK         0.0600 
    237 H237       -4.5287  -18.6166  -56.5375 H         1 UNK         0.0600 
    238 H238       -3.6800  -17.1119  -56.8631 H         1 UNK         0.0600 
    239 H239       -2.7666  -18.5878  -56.5677 H         1 UNK         0.0600 
    240 H240       -3.5774  -15.2608  -53.9986 H         1 UNK         0.3000 
    241 H241       -0.8312  -15.3604  -52.9763 H         1 UNK         0.0600 
    242 H242       -1.8996  -14.5592  -56.0489 H         1 UNK         0.3800 
    243 H243       -0.6863  -13.3564  -56.4028 H         1 UNK         0.3800 
    244 H244       -1.3958  -13.3179  -51.7495 H         1 UNK         0.0800 
    245 H245       -2.8819  -13.1311  -52.6405 H         1 UNK         0.0800 
    246 H246       -2.2468  -15.7085  -48.9073 H         1 UNK         0.0800 
    247 H247       -1.4826  -14.2008  -49.3353 H         1 UNK         0.0800 
@<TRIPOS>BOND
     1    1    2 1    
     2    1  127 1    
     3    1  128 1    
     4    1  129 1    
     5    2    3 2    
     6    2    4 am   BACKBONE|DICT|INTERRES
     7    4    5 1    
     8    4  130 1    
     9    5    6 1    
    10    5   65 1    
    11    5  131 1    
    12    6    7 1    
    13    6  132 1    
    14    6  133 1    
    15    7    8 1    
    16    8    9 1    
    17    8  134 1    
    18    8  135 1    
    19    9   10 ar   
    20    9   14 ar   
    21   10   11 ar   
    22   10  136 1    
    23   11   12 ar   
    24   11  126 1    
    25   12   13 ar   
    26   12  137 1    
    27   13   14 ar   
    28   13   15 1    
    29   14  138 1    
    30   15   16 1    
    31   15  139 1    
    32   15  140 1    
    33   16   17 1    
    34   17   18 1    
    35   17  141 1    
    36   17  142 1    
    37   18   19 1    
    38   18   67 1    
    39   18  143 1    
    40   19   20 am   BACKBONE|DICT|INTERRES
    41   19  144 1    
    42   20   21 2    
    43   20   22 1    
    44   22   23 1    
    45   22   24 1    
    46   22  145 1    
    47   23  146 1    
    48   23  147 1    
    49   23  148 1    
    50   24   25 am   BACKBONE|DICT|INTERRES
    51   24  149 1    
    52   25   26 2    
    53   25   27 1    
    54   27   28 1    
    55   27   29 1    
    56   27  150 1    
    57   28  151 1    
    58   28  152 1    
    59   28  153 1    
    60   29   30 am   BACKBONE|DICT|INTERRES
    61   29  154 1    
    62   30   31 2    
    63   30   32 1    
    64   32   33 1    
    65   32   34 1    
    66   32  155 1    
    67   33  156 1    
    68   33  157 1    
    69   33  158 1    
    70   34   35 am   BACKBONE|DICT|INTERRES
    71   34  159 1    
    72   35   36 2    
    73   35   37 1    
    74   37   38 1    
    75   37   39 1    
    76   37  160 1    
    77   38  161 1    
    78   38  162 1    
    79   38  163 1    
    80   39   40 am   BACKBONE|DICT|INTERRES
    81   39  164 1    
    82   40   41 2    
    83   40   42 1    
    84   42   43 1    
    85   42   44 1    
    86   42  165 1    
    87   43  166 1    
    88   43  167 1    
    89   43  168 1    
    90   44   45 am   BACKBONE|DICT|INTERRES
    91   44  169 1    
    92   45   46 2    
    93   45   47 1    
    94   47   48 1    
    95   47   49 1    
    96   47  170 1    
    97   48  171 1    
    98   48  172 1    
    99   48  173 1    
   100   49   50 am   BACKBONE|DICT|INTERRES
   101   49  174 1    
   102   50   51 2    
   103   50   52 1    
   104   52   53 1    
   105   52   54 1    
   106   52  175 1    
   107   53  176 1    
   108   53  177 1    
   109   53  178 1    
   110   54   55 am   BACKBONE|DICT|INTERRES
   111   54  179 1    
   112   55   56 2    
   113   55   57 1    
   114   57   58 1    
   115   57   59 1    
   116   57  180 1    
   117   58  181 1    
   118   58  182 1    
   119   58  183 1    
   120   59   60 am   BACKBONE|DICT|INTERRES
   121   59  184 1    
   122   60   61 2    
   123   60   62 1    
   124   62   63 1    
   125   62   64 1    
   126   62  185 1    
   127   63  186 1    
   128   63  187 1    
   129   63  188 1    
   130   64   65 am   BACKBONE|DICT|INTERRES
   131   64  189 1    
   132   65   66 2    
   133   67   68 2    
   134   67   69 am   BACKBONE|DICT|INTERRES
   135   69   70 1    
   136   69  190 1    
   137   70   71 1    
   138   70   72 1    
   139   70  191 1    
   140   71  192 1    
   141   71  193 1    
   142   71  194 1    
   143   72   73 2    
   144   72   74 am   BACKBONE|DICT|INTERRES
   145   74   75 1    
   146   74  195 1    
   147   75   76 1    
   148   75   77 1    
   149   75  196 1    
   150   76  197 1    
   151   76  198 1    
   152   76  199 1    
   153   77   78 2    
   154   77   79 am   BACKBONE|DICT|INTERRES
   155   79   80 1    
   156   79  200 1    
   157   80   81 1    
   158   80   82 1    
   159   80  201 1    
   160   81  202 1    
   161   81  203 1    
   162   81  204 1    
   163   82   83 2    
   164   82   84 am   BACKBONE|DICT|INTERRES
   165   84   85 1    
   166   84  205 1    
   167   85   86 1    
   168   85   87 1    
   169   85  206 1    
   170   86  207 1    
   171   86  208 1    
   172   86  209 1    
   173   87   88 2    
   174   87   89 am   BACKBONE|DICT|INTERRES
   175   89   90 1    
   176   89  210 1    
   177   90   91 1    
   178   90   92 1    
   179   90  211 1    
   180   91  212 1    
   181   91  213 1    
   182   91  214 1    
   183   92   93 2    
   184   92   94 am   BACKBONE|DICT|INTERRES
   185   94   95 1    
   186   94  215 1    
   187   95   96 1    
   188   95   97 1    
   189   95  216 1    
   190   96  217 1    
   191   96  218 1    
   192   96  219 1    
   193   97   98 2    
   194   97   99 am   BACKBONE|DICT|INTERRES
   195   99  100 1    
   196   99  220 1    
   197  100  101 1    
   198  100  102 1    
   199  100  221 1    
   200  101  222 1    
   201  101  223 1    
   202  101  224 1    
   203  102  103 2    
   204  102  104 am   BACKBONE|DICT|INTERRES
   205  104  105 1    
   206  104  225 1    
   207  105  106 1    
   208  105  107 1    
   209  105  226 1    
   210  106  227 1    
   211  106  228 1    
   212  106  229 1    
   213  107  108 2    
   214  107  109 am   BACKBONE|DICT|INTERRES
   215  109  110 1    
   216  109  230 1    
   217  110  111 1    
   218  110  112 1    
   219  110  231 1    
   220  111  232 1    
   221  111  233 1    
   222  111  234 1    
   223  112  113 2    
   224  112  114 am   BACKBONE|DICT|INTERRES
   225  114  115 1    
   226  114  235 1    
   227  115  116 1    
   228  115  117 1    
   229  115  236 1    
   230  116  237 1    
   231  116  238 1    
   232  116  239 1    
   233  117  118 2    
   234  117  119 am   BACKBONE|DICT|INTERRES
   235  119  120 1    
   236  119  240 1    
   237  120  121 1    
   238  120  124 1    
   239  120  241 1    
   240  121  122 am   BACKBONE|DICT|INTERRES
   241  121  123 2    
   242  122  242 1    
   243  122  243 1    
   244  124  125 1    
   245  124  244 1    
   246  124  245 1    
   247  125  126 1    
   248  126  246 1    
   249  126  247 1    
@<TRIPOS>SUBSTRUCTURE
     1 UNK         1 GROUP             0       ****    0 ROOT    
