@<TRIPOS>MOLECULE
3R540
247   249    1
SMALL
USER_CHARGES


@<TRIPOS>ATOM
      1 CA          4.2183  -19.9236  -50.0195 C.3       0 UNK        -0.1800 
      2 C           3.7500  -19.6191  -48.6043 C.2       0 UNK         0.5000 
      3 O           3.6466  -20.5309  -47.7854 O.2       0 UNK        -0.5000 
      4 N           3.4772  -18.3408  -48.3102 N.am      1 UNK        -0.5000 
      5 CA          3.0680  -17.8656  -46.9828 C.3       1 UNK         0.1400 
      6 C6          2.2481  -16.5525  -47.0483 C.3       23 UNK        -0.0398 
      7 S7          3.0814  -15.1496  -47.8735 S.3       23 UNK        -0.2404 
      8 C8          1.6665  -14.2708  -48.6425 C.3       23 UNK        -0.0205 
      9 C9          0.8908  -15.0529  -49.7071 C.ar      23 UNK        -0.0193 
     10 C10        -0.4324  -14.6928  -49.9948 C.ar      23 UNK        -0.1150 
     11 C11        -1.1762  -15.3917  -50.9544 C.ar      23 UNK        -0.0193 
     12 C12        -0.5865  -16.4677  -51.6232 C.ar      23 UNK        -0.1150 
     13 C13         0.7171  -16.8588  -51.3231 C.ar      23 UNK        -0.0193 
     14 C14         1.4635  -16.1241  -50.4016 C.ar      23 UNK        -0.1150 
     15 C15         1.2940  -18.1246  -51.9321 C.3       23 UNK        -0.0205 
     16 S16         0.6507  -19.6538  -51.1555 S.3       23 UNK        -0.2404 
     17 C17        -0.0576  -19.1349  -49.5439 C.3       23 UNK        -0.0398 
     18 CA         -0.1527  -20.2946  -48.5297 C.3       11 UNK         0.1400 
     19 N          -0.3038  -19.8249  -47.1487 N.am      11 UNK        -0.5000 
     20 C          -0.1040  -20.6088  -46.0786 C.2       10 UNK         0.5000 
     21 O           0.2692  -21.7800  -46.1493 O.2       10 UNK        -0.5000 
     22 CA         -0.4332  -20.0053  -44.7037 C.3       10 UNK         0.1400 
     23 CB          0.7283  -19.1498  -44.1736 C.3       10 UNK        -0.1800 
     24 N          -1.6719  -19.2254  -44.7367 N.am      10 UNK        -0.5000 
     25 C          -2.8906  -19.7792  -44.8302 C.2       9 UNK         0.5000 
     26 O          -3.0812  -20.9948  -44.8554 O.2       9 UNK        -0.5000 
     27 CA         -4.0993  -18.8328  -44.9573 C.3       9 UNK         0.1400 
     28 CB         -4.7038  -18.5198  -43.5817 C.3       9 UNK        -0.1800 
     29 N          -3.7877  -17.5865  -45.6555 N.am      9 UNK        -0.5000 
     30 C          -3.4907  -17.5156  -46.9615 C.2       8 UNK         0.5000 
     31 O          -3.4256  -18.4969  -47.7000 O.2       8 UNK        -0.5000 
     32 CA         -3.1588  -16.1241  -47.5295 C.3       8 UNK         0.1400 
     33 CB         -4.4533  -15.3913  -47.9142 C.3       8 UNK        -0.1800 
     34 N          -2.3901  -15.2706  -46.6233 N.am      8 UNK        -0.5000 
     35 C          -1.2591  -15.6051  -45.9889 C.2       7 UNK         0.5000 
     36 O          -0.7209  -16.7086  -46.0886 O.2       7 UNK        -0.5000 
     37 CA         -0.6467  -14.5509  -45.0451 C.3       7 UNK         0.1400 
     38 CB         -1.2571  -13.1404  -45.1938 C.3       7 UNK        -0.1800 
     39 N          -0.6956  -14.9640  -43.6407 N.am      7 UNK        -0.5000 
     40 C          -1.7606  -15.4007  -42.9463 C.2       6 UNK         0.5000 
     41 O          -2.8765  -15.5805  -43.4369 O.2       6 UNK        -0.5000 
     42 CA         -1.5555  -15.6751  -41.4406 C.3       6 UNK         0.1400 
     43 CB         -1.3584  -17.1763  -41.1824 C.3       6 UNK        -0.1800 
     44 N          -0.4176  -14.9565  -40.8666 N.am      6 UNK        -0.5000 
     45 C          -0.3392  -13.6290  -40.7003 C.2       5 UNK         0.5000 
     46 O          -1.2756  -12.8568  -40.9078 O.2       5 UNK        -0.5000 
     47 CA          1.0270  -13.0672  -40.2533 C.3       5 UNK         0.1400 
     48 CB          1.0170  -12.7661  -38.7468 C.3       5 UNK        -0.1800 
     49 N           2.1669  -13.9431  -40.5567 N.am      5 UNK        -0.5000 
     50 C           2.5606  -14.3007  -41.7867 C.2       4 UNK         0.5000 
     51 O           1.9724  -13.9668  -42.8183 O.2       4 UNK        -0.5000 
     52 CA          3.7706  -15.2479  -41.8670 C.3       4 UNK         0.1400 
     53 CB          3.3005  -16.7080  -41.7717 C.3       4 UNK        -0.1800 
     54 N           4.5171  -15.0657  -43.1116 N.am      4 UNK        -0.5000 
     55 C           5.2527  -13.9818  -43.4038 C.2       3 UNK         0.5000 
     56 O           5.4262  -13.0538  -42.6109 O.2       3 UNK        -0.5000 
     57 CA          5.8913  -13.9112  -44.8109 C.3       3 UNK         0.1400 
     58 CB          7.1939  -13.0840  -44.8372 C.3       3 UNK        -0.1800 
     59 N           6.0916  -15.2210  -45.4396 N.am      3 UNK        -0.5000 
     60 C           6.8580  -16.2335  -45.0033 C.2       2 UNK         0.5000 
     61 O           7.5973  -16.1604  -44.0205 O.2       2 UNK        -0.5000 
     62 CA          6.7583  -17.5572  -45.7972 C.3       2 UNK         0.1400 
     63 CB          7.0319  -18.7945  -44.9169 C.3       2 UNK        -0.1800 
     64 N           5.4890  -17.7178  -46.5229 N.am      2 UNK        -0.5000 
     65 C           4.2506  -17.7315  -46.0009 C.2       1 UNK         0.5000 
     66 O           4.0158  -17.5973  -44.8006 O.2       1 UNK        -0.5000 
     67 C          -1.2477  -21.3167  -48.8996 C.2       11 UNK         0.5000 
     68 O          -0.9325  -22.3283  -49.5219 O.2       11 UNK        -0.5000 
     69 N          -2.4935  -21.0846  -48.4573 N.am      12 UNK        -0.5000 
     70 CA         -3.6079  -22.0239  -48.6031 C.3       12 UNK         0.1400 
     71 CB         -4.9041  -21.3904  -48.0799 C.3       12 UNK        -0.1800 
     72 C          -3.3438  -23.3709  -47.9090 C.2       12 UNK         0.5000 
     73 O          -3.5971  -24.4153  -48.5070 O.2       12 UNK        -0.5000 
     74 N          -2.7970  -23.3326  -46.6847 N.am      13 UNK        -0.5000 
     75 CA         -2.3710  -24.5163  -45.9362 C.3       13 UNK         0.1400 
     76 CB         -1.9637  -24.1174  -44.5102 C.3       13 UNK        -0.1800 
     77 C          -1.2388  -25.2858  -46.6413 C.2       13 UNK         0.5000 
     78 O          -1.3289  -26.5076  -46.7681 O.2       13 UNK        -0.5000 
     79 N          -0.2255  -24.5590  -47.1367 N.am      14 UNK        -0.5000 
     80 CA          0.8833  -25.1058  -47.9263 C.3       14 UNK         0.1400 
     81 CB          1.9297  -24.0079  -48.1725 C.3       14 UNK        -0.1800 
     82 C           0.4256  -25.7345  -49.2586 C.2       14 UNK         0.5000 
     83 O           0.9731  -26.7572  -49.6711 O.2       14 UNK        -0.5000 
     84 N          -0.5997  -25.1379  -49.8791 N.am      15 UNK        -0.5000 
     85 CA         -1.2615  -25.6061  -51.0970 C.3       15 UNK         0.1400 
     86 CB         -1.8641  -24.3927  -51.8250 C.3       15 UNK        -0.1800 
     87 C          -2.3255  -26.6997  -50.8469 C.2       15 UNK         0.5000 
     88 O          -3.0482  -27.0486  -51.7806 O.2       15 UNK        -0.5000 
     89 N          -2.4076  -27.2255  -49.6148 N.am      16 UNK        -0.5000 
     90 CA         -3.2835  -28.3127  -49.1655 C.3       16 UNK         0.1400 
     91 CB         -2.9425  -29.6332  -49.8887 C.3       16 UNK        -0.1800 
     92 C          -4.7822  -27.9511  -49.2242 C.2       16 UNK         0.5000 
     93 O          -5.5951  -28.7344  -49.7184 O.2       16 UNK        -0.5000 
     94 N          -5.1094  -26.7651  -48.6944 N.am      17 UNK        -0.5000 
     95 CA         -6.4441  -26.1731  -48.5511 C.3       17 UNK         0.1400 
     96 CB         -7.3918  -27.0815  -47.7388 C.3       17 UNK        -0.1800 
     97 C          -7.0565  -25.6846  -49.8791 C.2       17 UNK         0.5000 
     98 O          -8.2755  -25.5240  -49.9692 O.2       17 UNK        -0.5000 
     99 N          -6.2038  -25.4158  -50.8754 N.am      18 UNK        -0.5000 
    100 CA        -6.5660  -24.7122  -52.1051 C.3       18 UNK         0.1400 
    101 CB        -5.5158  -25.0250  -53.1810 C.3       18 UNK        -0.1800 
    102 C         -6.6590  -23.1926  -51.8613 C.2       18 UNK         0.5000 
    103 O         -6.1796  -22.6973  -50.8398 O.2       18 UNK        -0.5000 
    104 N         -7.2483  -22.4694  -52.8225 N.am      19 UNK        -0.5000 
    105 CA        -7.4251  -21.0125  -52.7760 C.3       19 UNK         0.1400 
    106 CB        -8.4035  -20.5958  -53.8854 C.3       19 UNK        -0.1800 
    107 C         -6.1128  -20.2086  -52.8931 C.2       19 UNK         0.5000 
    108 O         -6.1003  -19.0275  -52.5437 O.2       19 UNK        -0.5000 
    109 N         -5.0519  -20.8462  -53.4164 N.am      20 UNK        -0.5000 
    110 CA        -3.6792  -20.3364  -53.5611 C.3       20 UNK         0.1400 
    111 CB        -3.0230  -20.1849  -52.1743 C.3       20 UNK        -0.1800 
    112 C         -3.5506  -19.0586  -54.4232 C.2       20 UNK         0.5000 
    113 O         -2.5519  -18.3457  -54.3206 O.2       20 UNK        -0.5000 
    114 N         -4.5674  -18.8014  -55.2606 N.am      21 UNK        -0.5000 
    115 CA        -4.7630  -17.6146  -56.1001 C.3       21 UNK         0.1400 
    116 CB        -3.6684  -17.5164  -57.1838 C.3       21 UNK        -0.1800 
    117 C         -4.9332  -16.3022  -55.2997 C.2       21 UNK         0.5000 
    118 O         -4.7225  -15.2230  -55.8567 O.2       21 UNK        -0.5000 
    119 N         -5.3297  -16.4021  -54.0223 N.am      22 UNK        -0.5000 
    120 CA        -5.5432  -15.2504  -53.1275 C.3       22 UNK         0.1400 
    121 C         -6.8990  -14.5134  -53.3369 C.2       22 UNK         0.5000 
    122 N         -7.8285  -15.0328  -54.1300 N.am      22 UNK        -0.7600 
    123 O         -7.1087  -13.4416  -52.7753 O.2       22 UNK        -0.5000 
    124 C124       -5.3463  -15.6170  -51.6332 C.3       23 UNK        -0.0398 
    125 S125       -3.7481  -16.4176  -51.2742 S.3       23 UNK        -0.2404 
    126 C126       -2.6126  -14.9892  -51.2697 C.3       23 UNK        -0.0205 
    127 H127        5.1964  -20.4039  -49.9949 H         1 UNK         0.0600 
    128 H128        4.2997  -19.0203  -50.6238 H         1 UNK         0.0600 
    129 H129        3.5186  -20.6013  -50.5084 H         1 UNK         0.0600 
    130 H130        3.5935  -17.6261  -49.0133 H         1 UNK         0.3000 
    131 H131        2.4101  -18.6231  -46.5534 H         1 UNK         0.0600 
    132 H132        1.3189  -16.7581  -47.5756 H         1 UNK         0.0800 
    133 H133        1.9531  -16.2366  -46.0464 H         1 UNK         0.0800 
    134 H134        2.0413  -13.3547  -49.1001 H         1 UNK         0.0800 
    135 H135        0.9862  -13.9612  -47.8479 H         1 UNK         0.0800 
    136 H136       -0.8851  -13.8642  -49.4683 H         1 UNK         0.1150 
    137 H137       -1.1582  -17.0341  -52.3457 H         1 UNK         0.1150 
    138 H138        2.4801  -16.4225  -50.2010 H         1 UNK         0.1150 
    139 H139        1.0675  -18.1508  -52.9990 H         1 UNK         0.0800 
    140 H140        2.3816  -18.1209  -51.8561 H         1 UNK         0.0800 
    141 H141       -1.0305  -18.6649  -49.7023 H         1 UNK         0.0800 
    142 H142        0.5915  -18.3699  -49.1228 H         1 UNK         0.0800 
    143 H143        0.8006  -20.8268  -48.5671 H         1 UNK         0.0600 
    144 H144       -0.6382  -18.8802  -47.0070 H         1 UNK         0.3000 
    145 H145       -0.5694  -20.8371  -44.0089 H         1 UNK         0.0600 
    146 H146        0.8506  -18.2243  -44.7336 H         1 UNK         0.0600 
    147 H147        1.6729  -19.6926  -44.2302 H         1 UNK         0.0600 
    148 H148        0.5752  -18.8888  -43.1284 H         1 UNK         0.0600 
    149 H149       -1.5789  -18.2204  -44.8183 H         1 UNK         0.3000 
    150 H150       -4.8627  -19.3541  -45.5371 H         1 UNK         0.0600 
    151 H151       -4.0130  -17.9599  -42.9542 H         1 UNK         0.0600 
    152 H152       -5.6171  -17.9325  -43.6780 H         1 UNK         0.0600 
    153 H153       -4.9615  -19.4368  -43.0501 H         1 UNK         0.0600 
    154 H154       -3.7445  -16.7442  -45.0931 H         1 UNK         0.3000 
    155 H155       -2.5576  -16.2739  -48.4277 H         1 UNK         0.0600 
    156 H156       -5.0545  -15.1502  -47.0367 H         1 UNK         0.0600 
    157 H157       -4.2408  -14.4613  -48.4410 H         1 UNK         0.0600 
    158 H158       -5.0705  -16.0043  -48.5718 H         1 UNK         0.0600 
    159 H159       -2.7756  -14.3555  -46.4430 H         1 UNK         0.3000 
    160 H160        0.4090  -14.4812  -45.3096 H         1 UNK         0.0600 
    161 H161       -2.3043  -13.1101  -44.8904 H         1 UNK         0.0600 
    162 H162       -1.1913  -12.7854  -46.2232 H         1 UNK         0.0600 
    163 H163       -0.7185  -12.4223  -44.5749 H         1 UNK         0.0600 
    164 H164        0.1772  -14.8330  -43.1411 H         1 UNK         0.3000 
    165 H165       -2.4621  -15.3526  -40.9246 H         1 UNK         0.0600 
    166 H166       -1.3558  -17.3930  -40.1140 H         1 UNK         0.0600 
    167 H167       -2.1562  -17.7686  -41.6289 H         1 UNK         0.0600 
    168 H168       -0.4151  -17.5304  -41.5956 H         1 UNK         0.0600 
    169 H169        0.3990  -15.5068  -40.6475 H         1 UNK         0.3000 
    170 H170        1.1799  -12.1281  -40.7892 H         1 UNK         0.0600 
    171 H171        0.1991  -12.0922  -38.4877 H         1 UNK         0.0600 
    172 H172        0.8932  -13.6745  -38.1559 H         1 UNK         0.0600 
    173 H173        1.9433  -12.2841  -38.4338 H         1 UNK         0.0600 
    174 H174        2.6940  -14.2752  -39.7615 H         1 UNK         0.3000 
    175 H175        4.4418  -15.0396  -41.0312 H         1 UNK         0.0600 
    176 H176        2.5894  -16.9544  -42.5617 H         1 UNK         0.0600 
    177 H177        4.1399  -17.3993  -41.8518 H         1 UNK         0.0600 
    178 H178        2.8100  -16.9025  -40.8173 H         1 UNK         0.0600 
    179 H179        4.4112  -15.7958  -43.8068 H         1 UNK         0.3000 
    180 H180        5.1638  -13.3915  -45.4362 H         1 UNK         0.0600 
    181 H181        7.9508  -13.4975  -44.1702 H         1 UNK         0.0600 
    182 H182        7.0114  -12.0553  -44.5245 H         1 UNK         0.0600 
    183 H183        7.6161  -13.0449  -45.8413 H         1 UNK         0.0600 
    184 H184        5.5234  -15.3958  -46.2565 H         1 UNK         0.3000 
    185 H185        7.5408  -17.5121  -46.5558 H         1 UNK         0.0600 
    186 H186        8.0356  -18.7604  -44.4918 H         1 UNK         0.0600 
    187 H187        6.3277  -18.8637  -44.0871 H         1 UNK         0.0600 
    188 H188        6.9582  -19.7146  -45.4965 H         1 UNK         0.0600 
    189 H189        5.5701  -17.8189  -47.5245 H         1 UNK         0.3000 
    190 H190       -2.7078  -20.1971  -48.0091 H         1 UNK         0.3000 
    191 H191       -3.7360  -22.2238  -49.6680 H         1 UNK         0.0600 
    192 H192       -4.8330  -21.1441  -47.0218 H         1 UNK         0.0600 
    193 H193       -5.7464  -22.0726  -48.2000 H         1 UNK         0.0600 
    194 H194       -5.1455  -20.4789  -48.6271 H         1 UNK         0.0600 
    195 H195       -2.6654  -22.4355  -46.2296 H         1 UNK         0.3000 
    196 H196       -3.2296  -25.1872  -45.8640 H         1 UNK         0.0600 
    197 H197       -1.6520  -24.9896  -43.9345 H         1 UNK         0.0600 
    198 H198       -2.7965  -23.6578  -43.9778 H         1 UNK         0.0600 
    199 H199       -1.1353  -23.4091  -44.5082 H         1 UNK         0.0600 
    200 H200       -0.2083  -23.5588  -46.9614 H         1 UNK         0.3000 
    201 H201        1.3522  -25.8939  -47.3337 H         1 UNK         0.0600 
    202 H202        2.2948  -23.5902  -47.2340 H         1 UNK         0.0600 
    203 H203        1.5240  -23.1882  -48.7653 H         1 UNK         0.0600 
    204 H204        2.7921  -24.4040  -48.7099 H         1 UNK         0.0600 
    205 H205       -0.9356  -24.2537  -49.5063 H         1 UNK         0.3000 
    206 H206       -0.5061  -26.0440  -51.7523 H         1 UNK         0.0600 
    207 H207       -1.1184  -23.6123  -51.9783 H         1 UNK         0.0600 
    208 H208       -2.2352  -24.6741  -52.8103 H         1 UNK         0.0600 
    209 H209       -2.6922  -23.9579  -51.2637 H         1 UNK         0.0600 
    210 H210       -1.8037  -26.8396  -48.8993 H         1 UNK         0.3000 
    211 H211       -3.0553  -28.4590  -48.1087 H         1 UNK         0.0600 
    212 H212       -3.1895  -29.5932  -50.9498 H         1 UNK         0.0600 
    213 H213       -3.4967  -30.4675  -49.4572 H         1 UNK         0.0600 
    214 H214       -1.8820  -29.8686  -49.7993 H         1 UNK         0.0600 
    215 H215       -4.3518  -26.1407  -48.4269 H         1 UNK         0.3000 
    216 H216       -6.2910  -25.2689  -47.9602 H         1 UNK         0.0600 
    217 H217       -8.3073  -26.5515  -47.4739 H         1 UNK         0.0600 
    218 H218       -6.9267  -27.4060  -46.8079 H         1 UNK         0.0600 
    219 H219       -7.6837  -27.9703  -48.2983 H         1 UNK         0.0600 
    220 H220       -5.2177  -25.5486  -50.7030 H         1 UNK         0.3000 
    221 H221       -7.5380  -25.0711  -52.4499 H         1 UNK         0.0600 
    222 H222       -4.5428  -24.6135  -52.9182 H         1 UNK         0.0600 
    223 H223       -5.3979  -26.1003  -53.3184 H         1 UNK         0.0600 
    224 H224       -5.8001  -24.6049  -54.1462 H         1 UNK         0.0600 
    225 H225       -7.6177  -22.9408  -53.6358 H         1 UNK         0.3000 
    226 H226       -7.8726  -20.7568  -51.8132 H         1 UNK         0.0600 
    227 H227       -9.3691  -21.0873  -53.7648 H         1 UNK         0.0600 
    228 H228       -8.5850  -19.5202  -53.8646 H         1 UNK         0.0600 
    229 H229       -8.0203  -20.8450  -54.8756 H         1 UNK         0.0600 
    230 H230       -5.1901  -21.8043  -53.7029 H         1 UNK         0.3000 
    231 H231       -3.1244  -21.1060  -54.0992 H         1 UNK         0.0600 
    232 H232       -1.9921  -19.8465  -52.2625 H         1 UNK         0.0600 
    233 H233       -3.0024  -21.1373  -51.6460 H         1 UNK         0.0600 
    234 H234       -3.5492  -19.4643  -51.5482 H         1 UNK         0.0600 
    235 H235       -5.3324  -19.4605  -55.2599 H         1 UNK         0.3000 
    236 H236       -5.7128  -17.7693  -56.6137 H         1 UNK         0.0600 
    237 H237       -3.9071  -16.7409  -57.9125 H         1 UNK         0.0600 
    238 H238       -2.6953  -17.2724  -56.7572 H         1 UNK         0.0600 
    239 H239       -3.5699  -18.4535  -57.7317 H         1 UNK         0.0600 
    240 H240       -5.4768  -17.3182  -53.6122 H         1 UNK         0.3000 
    241 H241       -4.7801  -14.5086  -53.3687 H         1 UNK         0.0600 
    242 H242       -8.6999  -14.5434  -54.2620 H         1 UNK         0.3800 
    243 H243       -7.6708  -15.9120  -54.5951 H         1 UNK         0.3800 
    244 H244       -5.4358  -14.7317  -51.0013 H         1 UNK         0.0800 
    245 H245       -6.1339  -16.3004  -51.3111 H         1 UNK         0.0800 
    246 H246       -2.9704  -14.2507  -50.5515 H         1 UNK         0.0800 
    247 H247       -2.6298  -14.5113  -52.2496 H         1 UNK         0.0800 
@<TRIPOS>BOND
     1    1    2 1    
     2    1  127 1    
     3    1  128 1    
     4    1  129 1    
     5    2    3 2    
     6    2    4 am   BACKBONE|DICT|INTERRES
     7    4    5 1    
     8    4  130 1    
     9    5    6 1    
    10    5   65 1    
    11    5  131 1    
    12    6    7 1    
    13    6  132 1    
    14    6  133 1    
    15    7    8 1    
    16    8    9 1    
    17    8  134 1    
    18    8  135 1    
    19    9   10 ar   
    20    9   14 ar   
    21   10   11 ar   
    22   10  136 1    
    23   11   12 ar   
    24   11  126 1    
    25   12   13 ar   
    26   12  137 1    
    27   13   14 ar   
    28   13   15 1    
    29   14  138 1    
    30   15   16 1    
    31   15  139 1    
    32   15  140 1    
    33   16   17 1    
    34   17   18 1    
    35   17  141 1    
    36   17  142 1    
    37   18   19 1    
    38   18   67 1    
    39   18  143 1    
    40   19   20 am   BACKBONE|DICT|INTERRES
    41   19  144 1    
    42   20   21 2    
    43   20   22 1    
    44   22   23 1    
    45   22   24 1    
    46   22  145 1    
    47   23  146 1    
    48   23  147 1    
    49   23  148 1    
    50   24   25 am   BACKBONE|DICT|INTERRES
    51   24  149 1    
    52   25   26 2    
    53   25   27 1    
    54   27   28 1    
    55   27   29 1    
    56   27  150 1    
    57   28  151 1    
    58   28  152 1    
    59   28  153 1    
    60   29   30 am   BACKBONE|DICT|INTERRES
    61   29  154 1    
    62   30   31 2    
    63   30   32 1    
    64   32   33 1    
    65   32   34 1    
    66   32  155 1    
    67   33  156 1    
    68   33  157 1    
    69   33  158 1    
    70   34   35 am   BACKBONE|DICT|INTERRES
    71   34  159 1    
    72   35   36 2    
    73   35   37 1    
    74   37   38 1    
    75   37   39 1    
    76   37  160 1    
    77   38  161 1    
    78   38  162 1    
    79   38  163 1    
    80   39   40 am   BACKBONE|DICT|INTERRES
    81   39  164 1    
    82   40   41 2    
    83   40   42 1    
    84   42   43 1    
    85   42   44 1    
    86   42  165 1    
    87   43  166 1    
    88   43  167 1    
    89   43  168 1    
    90   44   45 am   BACKBONE|DICT|INTERRES
    91   44  169 1    
    92   45   46 2    
    93   45   47 1    
    94   47   48 1    
    95   47   49 1    
    96   47  170 1    
    97   48  171 1    
    98   48  172 1    
    99   48  173 1    
   100   49   50 am   BACKBONE|DICT|INTERRES
   101   49  174 1    
   102   50   51 2    
   103   50   52 1    
   104   52   53 1    
   105   52   54 1    
   106   52  175 1    
   107   53  176 1    
   108   53  177 1    
   109   53  178 1    
   110   54   55 am   BACKBONE|DICT|INTERRES
   111   54  179 1    
   112   55   56 2    
   113   55   57 1    
   114   57   58 1    
   115   57   59 1    
   116   57  180 1    
   117   58  181 1    
   118   58  182 1    
   119   58  183 1    
   120   59   60 am   BACKBONE|DICT|INTERRES
   121   59  184 1    
   122   60   61 2    
   123   60   62 1    
   124   62   63 1    
   125   62   64 1    
   126   62  185 1    
   127   63  186 1    
   128   63  187 1    
   129   63  188 1    
   130   64   65 am   BACKBONE|DICT|INTERRES
   131   64  189 1    
   132   65   66 2    
   133   67   68 2    
   134   67   69 am   BACKBONE|DICT|INTERRES
   135   69   70 1    
   136   69  190 1    
   137   70   71 1    
   138   70   72 1    
   139   70  191 1    
   140   71  192 1    
   141   71  193 1    
   142   71  194 1    
   143   72   73 2    
   144   72   74 am   BACKBONE|DICT|INTERRES
   145   74   75 1    
   146   74  195 1    
   147   75   76 1    
   148   75   77 1    
   149   75  196 1    
   150   76  197 1    
   151   76  198 1    
   152   76  199 1    
   153   77   78 2    
   154   77   79 am   BACKBONE|DICT|INTERRES
   155   79   80 1    
   156   79  200 1    
   157   80   81 1    
   158   80   82 1    
   159   80  201 1    
   160   81  202 1    
   161   81  203 1    
   162   81  204 1    
   163   82   83 2    
   164   82   84 am   BACKBONE|DICT|INTERRES
   165   84   85 1    
   166   84  205 1    
   167   85   86 1    
   168   85   87 1    
   169   85  206 1    
   170   86  207 1    
   171   86  208 1    
   172   86  209 1    
   173   87   88 2    
   174   87   89 am   BACKBONE|DICT|INTERRES
   175   89   90 1    
   176   89  210 1    
   177   90   91 1    
   178   90   92 1    
   179   90  211 1    
   180   91  212 1    
   181   91  213 1    
   182   91  214 1    
   183   92   93 2    
   184   92   94 am   BACKBONE|DICT|INTERRES
   185   94   95 1    
   186   94  215 1    
   187   95   96 1    
   188   95   97 1    
   189   95  216 1    
   190   96  217 1    
   191   96  218 1    
   192   96  219 1    
   193   97   98 2    
   194   97   99 am   BACKBONE|DICT|INTERRES
   195   99  100 1    
   196   99  220 1    
   197  100  101 1    
   198  100  102 1    
   199  100  221 1    
   200  101  222 1    
   201  101  223 1    
   202  101  224 1    
   203  102  103 2    
   204  102  104 am   BACKBONE|DICT|INTERRES
   205  104  105 1    
   206  104  225 1    
   207  105  106 1    
   208  105  107 1    
   209  105  226 1    
   210  106  227 1    
   211  106  228 1    
   212  106  229 1    
   213  107  108 2    
   214  107  109 am   BACKBONE|DICT|INTERRES
   215  109  110 1    
   216  109  230 1    
   217  110  111 1    
   218  110  112 1    
   219  110  231 1    
   220  111  232 1    
   221  111  233 1    
   222  111  234 1    
   223  112  113 2    
   224  112  114 am   BACKBONE|DICT|INTERRES
   225  114  115 1    
   226  114  235 1    
   227  115  116 1    
   228  115  117 1    
   229  115  236 1    
   230  116  237 1    
   231  116  238 1    
   232  116  239 1    
   233  117  118 2    
   234  117  119 am   BACKBONE|DICT|INTERRES
   235  119  120 1    
   236  119  240 1    
   237  120  121 1    
   238  120  124 1    
   239  120  241 1    
   240  121  122 am   BACKBONE|DICT|INTERRES
   241  121  123 2    
   242  122  242 1    
   243  122  243 1    
   244  124  125 1    
   245  124  244 1    
   246  124  245 1    
   247  125  126 1    
   248  126  246 1    
   249  126  247 1    
@<TRIPOS>SUBSTRUCTURE
     1 UNK         1 GROUP             0       ****    0 ROOT    
