@<TRIPOS>MOLECULE
3R540
247   249    1
SMALL
USER_CHARGES


@<TRIPOS>ATOM
      1 CA         -6.8365  -13.5786  -49.8119 C.3       0 UNK        -0.1800 
      2 C          -5.8347  -14.5736  -49.2428 C.2       0 UNK         0.5000 
      3 O          -6.2335  -15.6400  -48.7742 O.2       0 UNK        -0.5000 
      4 N          -4.5403  -14.2297  -49.2955 N.am      1 UNK        -0.5000 
      5 CA         -3.4113  -15.0044  -48.7637 C.3       1 UNK         0.1400 
      6 C6         -3.3239  -16.4375  -49.3702 C.3       23 UNK        -0.0398 
      7 S7         -1.6107  -16.9668  -49.6933 S.3       23 UNK        -0.2404 
      8 C8         -1.9180  -18.6832  -50.2014 C.3       23 UNK        -0.0205 
      9 C9         -0.6773  -19.3237  -50.7972 C.ar      23 UNK        -0.0193 
     10 C10        -0.6091  -19.5502  -52.1738 C.ar      23 UNK        -0.1150 
     11 C11         0.5257  -20.1294  -52.7451 C.ar      23 UNK        -0.0193 
     12 C12         1.5878  -20.5054  -51.9178 C.ar      23 UNK        -0.1150 
     13 C13         1.5377  -20.2795  -50.5396 C.ar      23 UNK        -0.0193 
     14 C14         0.3980  -19.6914  -49.9811 C.ar      23 UNK        -0.1150 
     15 C15         2.7375  -20.6392  -49.6761 C.3       23 UNK        -0.0205 
     16 S16         2.5306  -22.2462  -48.8459 S.3       23 UNK        -0.2404 
     17 C17         2.0564  -21.7112  -47.1691 C.3       23 UNK        -0.0398 
     18 CA          1.0608  -22.6645  -46.4689 C.3       11 UNK         0.1400 
     19 N           1.0379  -22.4373  -45.0218 N.am      11 UNK        -0.5000 
     20 C           0.3679  -23.1796  -44.1291 C.2       10 UNK         0.5000 
     21 O          -0.2678  -24.1936  -44.4180 O.2       10 UNK        -0.5000 
     22 CA          0.3641  -22.6674  -42.6761 C.3       10 UNK         0.1400 
     23 CB          1.6690  -23.0384  -41.9562 C.3       10 UNK        -0.1800 
     24 N           0.1510  -21.2207  -42.5958 N.am      10 UNK        -0.5000 
     25 C          -0.9666  -20.6001  -43.0003 C.2       9 UNK         0.5000 
     26 O          -1.9601  -21.1901  -43.4232 O.2       9 UNK        -0.5000 
     27 CA         -0.9551  -19.0623  -42.9873 C.3       9 UNK         0.1400 
     28 CB         -1.2296  -18.5153  -41.5792 C.3       9 UNK        -0.1800 
     29 N           0.2938  -18.5050  -43.5083 N.am      9 UNK        -0.5000 
     30 C           0.7302  -18.6618  -44.7659 C.2       8 UNK         0.5000 
     31 O           0.0891  -19.2342  -45.6433 O.2       8 UNK        -0.5000 
     32 CA          2.1355  -18.1357  -45.0948 C.3       8 UNK         0.1400 
     33 CB          2.0923  -16.6463  -45.4659 C.3       8 UNK        -0.1800 
     34 N           3.0706  -18.3621  -43.9929 N.am      8 UNK        -0.5000 
     35 C           3.5109  -19.5734  -43.6208 C.2       7 UNK         0.5000 
     36 O           3.2078  -20.6157  -44.2006 O.2       7 UNK        -0.5000 
     37 CA          4.3994  -19.6347  -42.3649 C.3       7 UNK         0.1400 
     38 CB          5.8621  -19.3314  -42.7213 C.3       7 UNK        -0.1800 
     39 N           3.9525  -18.7112  -41.3219 N.am      7 UNK        -0.5000 
     40 C           2.7957  -18.8238  -40.6530 C.2       6 UNK         0.5000 
     41 O           2.0165  -19.7664  -40.7935 O.2       6 UNK        -0.5000 
     42 CA          2.4248  -17.6549  -39.7166 C.3       6 UNK         0.1400 
     43 CB          3.0005  -17.8844  -38.3116 C.3       6 UNK        -0.1800 
     44 N           2.8736  -16.3512  -40.2219 N.am      6 UNK        -0.5000 
     45 C           2.4560  -15.8087  -41.3734 C.2       5 UNK         0.5000 
     46 O           1.6160  -16.3363  -42.1031 O.2       5 UNK        -0.5000 
     47 CA          3.1550  -14.5212  -41.8279 C.3       5 UNK         0.1400 
     48 CB          4.5682  -14.8640  -42.3495 C.3       5 UNK        -0.1800 
     49 N           2.3600  -13.8868  -42.8801 N.am      5 UNK        -0.5000 
     50 C           2.6045  -12.6900  -43.4292 C.2       4 UNK         0.5000 
     51 O           3.5109  -11.9420  -43.0595 O.2       4 UNK        -0.5000 
     52 CA          1.6974  -12.2404  -44.5920 C.3       4 UNK         0.1400 
     53 CB          2.2545  -12.7366  -45.9352 C.3       4 UNK        -0.1800 
     54 N           0.3002  -12.6581  -44.4704 N.am      4 UNK        -0.5000 
     55 C          -0.5512  -12.2164  -43.5350 C.2       3 UNK         0.5000 
     56 O          -0.2275  -11.4436  -42.6320 O.2       3 UNK        -0.5000 
     57 CA         -2.0201  -12.6791  -43.6321 C.3       3 UNK         0.1400 
     58 CB         -2.9158  -11.5204  -44.0986 C.3       3 UNK        -0.1800 
     59 N          -2.2614  -13.8288  -44.5088 N.am      3 UNK        -0.5000 
     60 C          -1.8422  -15.0777  -44.2860 C.2       2 UNK         0.5000 
     61 O          -1.0711  -15.3734  -43.3768 O.2       2 UNK        -0.5000 
     62 CA         -2.3716  -16.1915  -45.2116 C.3       2 UNK         0.1400 
     63 CB         -3.6788  -16.7783  -44.6434 C.3       2 UNK        -0.1800 
     64 N          -2.5262  -15.8506  -46.6338 N.am      2 UNK        -0.5000 
     65 C          -3.3806  -14.9963  -47.2148 C.2       1 UNK         0.5000 
     66 O          -4.0977  -14.2157  -46.5830 O.2       1 UNK        -0.5000 
     67 C          -0.3525  -22.5743  -47.0804 C.2       11 UNK         0.5000 
     68 O          -0.7649  -23.4897  -47.7914 O.2       11 UNK        -0.5000 
     69 N          -1.0884  -21.5050  -46.7447 N.am      12 UNK        -0.5000 
     70 CA         -2.4670  -21.2707  -47.1665 C.3       12 UNK         0.1400 
     71 CB         -2.9327  -19.8882  -46.6847 C.3       12 UNK        -0.1800 
     72 C          -3.4352  -22.3622  -46.6879 C.2       12 UNK         0.5000 
     73 O          -4.2717  -22.7994  -47.4754 O.2       12 UNK        -0.5000 
     74 N          -3.2878  -22.8077  -45.4334 N.am      13 UNK        -0.5000 
     75 CA         -4.0619  -23.9052  -44.8541 C.3       13 UNK         0.1400 
     76 CB         -3.7695  -24.0068  -43.3495 C.3       13 UNK        -0.1800 
     77 C          -3.8030  -25.2508  -45.5568 C.2       13 UNK         0.5000 
     78 O          -4.7548  -25.9829  -45.8293 O.2       13 UNK        -0.5000 
     79 N          -2.5299  -25.5385  -45.8610 N.am      14 UNK        -0.5000 
     80 CA         -2.1007  -26.7438  -46.5706 C.3       14 UNK         0.1400 
     81 CB         -0.5749  -26.8862  -46.4576 C.3       14 UNK        -0.1800 
     82 C          -2.5431  -26.7614  -48.0459 C.2       14 UNK         0.5000 
     83 O          -3.0144  -27.7924  -48.5273 O.2       14 UNK        -0.5000 
     84 N          -2.3877  -25.6232  -48.7340 N.am      15 UNK        -0.5000 
     85 CA         -2.7015  -25.4588  -50.1548 C.3       15 UNK         0.1400 
     86 CB         -1.8527  -24.3053  -50.7147 C.3       15 UNK        -0.1800 
     87 C          -4.1931  -25.1983  -50.4396 C.2       15 UNK         0.5000 
     88 O          -4.5785  -25.1856  -51.6092 O.2       15 UNK        -0.5000 
     89 N          -4.9911  -24.9361  -49.3930 N.am      16 UNK        -0.5000 
     90 CA         -6.3849  -24.4705  -49.4368 C.3       16 UNK         0.1400 
     91 CB         -7.3190  -25.5727  -49.9774 C.3       16 UNK        -0.1800 
     92 C          -6.5108  -23.1306  -50.1970 C.2       16 UNK         0.5000 
     93 O          -7.3812  -22.9717  -51.0534 O.2       16 UNK        -0.5000 
     94 N          -5.5749  -22.2201  -49.8920 N.am      17 UNK        -0.5000 
     95 CA         -5.3055  -20.9168  -50.5126 C.3       17 UNK         0.1400 
     96 CB         -6.5149  -19.9713  -50.3730 C.3       17 UNK        -0.1800 
     97 C          -4.7793  -20.9797  -51.9656 C.2       17 UNK         0.5000 
     98 O          -4.5487  -19.9230  -52.5544 O.2       17 UNK        -0.5000 
     99 N          -4.5629  -22.1926  -52.5001 N.am      18 UNK        -0.5000 
    100 CA        -4.0973  -22.5080  -53.8546 C.3       18 UNK         0.1400 
    101 CB        -2.6391  -22.0355  -54.0432 C.3       18 UNK        -0.1800 
    102 C         -5.0497  -21.9922  -54.9596 C.2       18 UNK         0.5000 
    103 O         -6.2232  -21.7194  -54.6945 O.2       18 UNK        -0.5000 
    104 N         -4.5403  -21.8954  -56.1955 N.am      19 UNK        -0.5000 
    105 CA        -5.2588  -21.3332  -57.3441 C.3       19 UNK         0.1400 
    106 CB        -4.5686  -21.7911  -58.6383 C.3       19 UNK        -0.1800 
    107 C         -5.3427  -19.7939  -57.2942 C.2       19 UNK         0.5000 
    108 O         -6.2760  -19.2140  -57.8507 O.2       19 UNK        -0.5000 
    109 N         -4.3701  -19.1685  -56.6249 N.am      20 UNK        -0.5000 
    110 CA        -4.2485  -17.7399  -56.3716 C.3       20 UNK         0.1400 
    111 CB        -3.7187  -17.0206  -57.6252 C.3       20 UNK        -0.1800 
    112 C         -3.2846  -17.5704  -55.1900 C.2       20 UNK         0.5000 
    113 O         -2.4928  -18.4781  -54.9219 O.2       20 UNK        -0.5000 
    114 N         -3.3472  -16.4141  -54.5194 N.am      21 UNK        -0.5000 
    115 CA        -2.5465  -16.0567  -53.3443 C.3       21 UNK         0.1400 
    116 CB        -3.2161  -14.8563  -52.6501 C.3       21 UNK        -0.1800 
    117 C         -1.0633  -15.7866  -53.6857 C.2       21 UNK         0.5000 
    118 O         -0.5962  -14.6516  -53.5745 O.2       21 UNK        -0.5000 
    119 N         -0.3623  -16.8322  -54.1358 N.am      22 UNK        -0.5000 
    120 CA         1.0344  -16.7970  -54.5920 C.3       22 UNK         0.1400 
    121 C          2.1064  -16.6426  -53.4707 C.2       22 UNK         0.5000 
    122 N          1.7667  -16.8023  -52.1972 N.am      22 UNK        -0.7600 
    123 O          3.2615  -16.3453  -53.7638 O.2       22 UNK        -0.5000 
    124 C124        1.3156  -17.9392  -55.6137 C.3       23 UNK        -0.0398 
    125 S125        2.0323  -19.5067  -54.9957 S.3       23 UNK        -0.2404 
    126 C126        0.6078  -20.3642  -54.2480 C.3       23 UNK        -0.0205 
    127 H127       -7.4071  -14.0402  -50.6178 H         1 UNK         0.0600 
    128 H128       -6.3455  -12.6898  -50.2092 H         1 UNK         0.0600 
    129 H129       -7.5339  -13.2636  -49.0356 H         1 UNK         0.0600 
    130 H130       -4.2967  -13.3217  -49.6651 H         1 UNK         0.3000 
    131 H131       -2.5299  -14.4426  -49.0767 H         1 UNK         0.0600 
    132 H132       -3.8441  -16.4753  -50.3276 H         1 UNK         0.0800 
    133 H133       -3.8317  -17.1734  -48.7429 H         1 UNK         0.0800 
    134 H134       -2.2517  -19.2627  -49.3451 H         1 UNK         0.0800 
    135 H135       -2.7365  -18.7028  -50.9220 H         1 UNK         0.0800 
    136 H136       -1.4460  -19.2767  -52.7975 H         1 UNK         0.1150 
    137 H137        2.4671  -20.9568  -52.3555 H         1 UNK         0.1150 
    138 H138        0.3491  -19.5093  -48.9166 H         1 UNK         0.1150 
    139 H139        3.6354  -20.6889  -50.2941 H         1 UNK         0.0800 
    140 H140        2.9271  -19.8472  -48.9504 H         1 UNK         0.0800 
    141 H141        1.6620  -20.6956  -47.1948 H         1 UNK         0.0800 
    142 H142        2.9819  -21.6580  -46.5952 H         1 UNK         0.0800 
    143 H143        1.4137  -23.6879  -46.6141 H         1 UNK         0.0600 
    144 H144        1.5776  -21.6472  -44.6827 H         1 UNK         0.3000 
    145 H145       -0.4617  -23.1556  -42.1545 H         1 UNK         0.0600 
    146 H146        1.6414  -22.7332  -40.9100 H         1 UNK         0.0600 
    147 H147        1.8330  -24.1165  -41.9775 H         1 UNK         0.0600 
    148 H148        2.5354  -22.5650  -42.4182 H         1 UNK         0.0600 
    149 H149        0.9055  -20.6647  -42.2056 H         1 UNK         0.3000 
    150 H150       -1.7630  -18.7315  -43.6392 H         1 UNK         0.0600 
    151 H151       -2.1980  -18.8573  -41.2125 H         1 UNK         0.0600 
    152 H152       -1.2457  -17.4255  -41.5748 H         1 UNK         0.0600 
    153 H153       -0.4758  -18.8406  -40.8634 H         1 UNK         0.0600 
    154 H154        0.8424  -17.9320  -42.8734 H         1 UNK         0.3000 
    155 H155        2.5035  -18.6842  -45.9643 H         1 UNK         0.0600 
    156 H156        1.4935  -16.4912  -46.3643 H         1 UNK         0.0600 
    157 H157        1.6488  -16.0412  -44.6766 H         1 UNK         0.0600 
    158 H158        3.0906  -16.2586  -45.6690 H         1 UNK         0.0600 
    159 H159        3.3088  -17.5617  -43.4281 H         1 UNK         0.3000 
    160 H160        4.3465  -20.6506  -41.9674 H         1 UNK         0.0600 
    161 H161        5.9838  -18.3166  -43.1024 H         1 UNK         0.0600 
    162 H162        6.2263  -20.0163  -43.4883 H         1 UNK         0.0600 
    163 H163        6.5108  -19.4439  -41.8525 H         1 UNK         0.0600 
    164 H164        4.5399  -17.9124  -41.1359 H         1 UNK         0.3000 
    165 H165        1.3361  -17.6269  -39.6392 H         1 UNK         0.0600 
    166 H166        2.6763  -17.1060  -37.6206 H         1 UNK         0.0600 
    167 H167        2.6650  -18.8391  -37.9041 H         1 UNK         0.0600 
    168 H168        4.0911  -17.8954  -38.3187 H         1 UNK         0.0600 
    169 H169        3.5714  -15.8695  -39.6730 H         1 UNK         0.3000 
    170 H170        3.2234  -13.8422  -40.9759 H         1 UNK         0.0600 
    171 H171        4.5251  -15.4911  -43.2408 H         1 UNK         0.0600 
    172 H172        5.1348  -13.9684  -42.6025 H         1 UNK         0.0600 
    173 H173        5.1520  -15.3985  -41.5994 H         1 UNK         0.0600 
    174 H174        1.5619  -14.4327  -43.1852 H         1 UNK         0.3000 
    175 H175        1.7130  -11.1485  -44.6084 H         1 UNK         0.0600 
    176 H176        1.6888  -12.3275  -46.7724 H         1 UNK         0.0600 
    177 H177        2.2233  -13.8233  -46.0083 H         1 UNK         0.0600 
    178 H178        3.2929  -12.4290  -46.0656 H         1 UNK         0.0600 
    179 H179       -0.0537  -13.2917  -45.1709 H         1 UNK         0.3000 
    180 H180       -2.3296  -12.9626  -42.6241 H         1 UNK         0.0600 
    181 H181       -3.9684  -11.8039  -44.0814 H         1 UNK         0.0600 
    182 H182       -2.6694  -11.2083  -45.1142 H         1 UNK         0.0600 
    183 H183       -2.8049  -10.6501  -43.4504 H         1 UNK         0.0600 
    184 H184       -2.9272  -13.6984  -45.2669 H         1 UNK         0.3000 
    185 H185       -1.6227  -16.9816  -45.1954 H         1 UNK         0.0600 
    186 H186       -3.5412  -17.1246  -43.6185 H         1 UNK         0.0600 
    187 H187       -4.4812  -16.0403  -44.6264 H         1 UNK         0.0600 
    188 H188       -4.0227  -17.6275  -45.2321 H         1 UNK         0.0600 
    189 H189       -1.9396  -16.3920  -47.2556 H         1 UNK         0.3000 
    190 H190       -0.6633  -20.7726  -46.1790 H         1 UNK         0.3000 
    191 H191       -2.4767  -21.2828  -48.2575 H         1 UNK         0.0600 
    192 H192       -2.2638  -19.0977  -47.0238 H         1 UNK         0.0600 
    193 H193       -3.9297  -19.6576  -47.0620 H         1 UNK         0.0600 
    194 H194       -2.9731  -19.8384  -45.5966 H         1 UNK         0.0600 
    195 H195       -2.6119  -22.3531  -44.8254 H         1 UNK         0.3000 
    196 H196       -5.1203  -23.6660  -44.9769 H         1 UNK         0.0600 
    197 H197       -4.3483  -24.8099  -42.8918 H         1 UNK         0.0600 
    198 H198       -4.0318  -23.0823  -42.8348 H         1 UNK         0.0600 
    199 H199       -2.7158  -24.2085  -43.1557 H         1 UNK         0.0600 
    200 H200       -1.7993  -24.8958  -45.5711 H         1 UNK         0.3000 
    201 H201       -2.5560  -27.6052  -46.0774 H         1 UNK         0.0600 
    202 H202       -0.2631  -26.9597  -45.4155 H         1 UNK         0.0600 
    203 H203       -0.0561  -26.0354  -46.9006 H         1 UNK         0.0600 
    204 H204       -0.2267  -27.7859  -46.9663 H         1 UNK         0.0600 
    205 H205       -1.9391  -24.8306  -48.2775 H         1 UNK         0.3000 
    206 H206       -2.4220  -26.3717  -50.6846 H         1 UNK         0.0600 
    207 H207       -0.7906  -24.4673  -50.5292 H         1 UNK         0.0600 
    208 H208       -1.9815  -24.2166  -51.7934 H         1 UNK         0.0600 
    209 H209       -2.1275  -23.3481  -50.2690 H         1 UNK         0.0600 
    210 H210       -4.5589  -24.9151  -48.4785 H         1 UNK         0.3000 
    211 H211       -6.6743  -24.2678  -48.4046 H         1 UNK         0.0600 
    212 H212       -7.1231  -25.7959  -51.0264 H         1 UNK         0.0600 
    213 H213       -8.3637  -25.2701  -49.8982 H         1 UNK         0.0600 
    214 H214       -7.2049  -26.4969  -49.4109 H         1 UNK         0.0600 
    215 H215       -4.9529  -22.4673  -49.1238 H         1 UNK         0.3000 
    216 H216       -4.4927  -20.4855  -49.9274 H         1 UNK         0.0600 
    217 H217       -6.2565  -18.9579  -50.6830 H         1 UNK         0.0600 
    218 H218       -6.8550  -19.9150  -49.3390 H         1 UNK         0.0600 
    219 H219       -7.3549  -20.2945  -50.9881 H         1 UNK         0.0600 
    220 H220       -4.8233  -23.0003  -51.9493 H         1 UNK         0.3000 
    221 H221       -4.1070  -23.5963  -53.9253 H         1 UNK         0.0600 
    222 H222       -2.5826  -20.9532  -54.1442 H         1 UNK         0.0600 
    223 H223       -2.0152  -22.3155  -53.1951 H         1 UNK         0.0600 
    224 H224       -2.1847  -22.4758  -54.9307 H         1 UNK         0.0600 
    225 H225       -3.5794  -22.1631  -56.3506 H         1 UNK         0.3000 
    226 H226       -6.2792  -21.7226  -57.3465 H         1 UNK         0.0600 
    227 H227       -4.5558  -22.8785  -58.7153 H         1 UNK         0.0600 
    228 H228       -5.0933  -21.4104  -59.5157 H         1 UNK         0.0600 
    229 H229       -3.5384  -21.4372  -58.6931 H         1 UNK         0.0600 
    230 H230       -3.6622  -19.7157  -56.1507 H         1 UNK         0.3000 
    231 H231       -5.2246  -17.3388  -56.0915 H         1 UNK         0.0600 
    232 H232       -2.7453  -17.4089  -57.9276 H         1 UNK         0.0600 
    233 H233       -3.6050  -15.9510  -57.4456 H         1 UNK         0.0600 
    234 H234       -4.4007  -17.1354  -58.4677 H         1 UNK         0.0600 
    235 H235       -3.9982  -15.7101  -54.8352 H         1 UNK         0.3000 
    236 H236       -2.5695  -16.8979  -52.6495 H         1 UNK         0.0600 
    237 H237       -4.2336  -15.0949  -52.3401 H         1 UNK         0.0600 
    238 H238       -2.6637  -14.5644  -51.7564 H         1 UNK         0.0600 
    239 H239       -3.2621  -13.9855  -53.3051 H         1 UNK         0.0600 
    240 H240       -0.8599  -17.7074  -54.2645 H         1 UNK         0.3000 
    241 H241        1.1191  -15.8711  -55.1647 H         1 UNK         0.0600 
    242 H242        0.8302  -17.0782  -51.9495 H         1 UNK         0.3800 
    243 H243        2.4661  -16.6947  -51.4813 H         1 UNK         0.3800 
    244 H244        2.0316  -17.5638  -56.3463 H         1 UNK         0.0800 
    245 H245        0.4208  -18.1654  -56.1959 H         1 UNK         0.0800 
    246 H246        0.7135  -21.4354  -54.4234 H         1 UNK         0.0800 
    247 H247       -0.3117  -20.0627  -54.7503 H         1 UNK         0.0800 
@<TRIPOS>BOND
     1    1    2 1    
     2    1  127 1    
     3    1  128 1    
     4    1  129 1    
     5    2    3 2    
     6    2    4 am   BACKBONE|DICT|INTERRES
     7    4    5 1    
     8    4  130 1    
     9    5    6 1    
    10    5   65 1    
    11    5  131 1    
    12    6    7 1    
    13    6  132 1    
    14    6  133 1    
    15    7    8 1    
    16    8    9 1    
    17    8  134 1    
    18    8  135 1    
    19    9   10 ar   
    20    9   14 ar   
    21   10   11 ar   
    22   10  136 1    
    23   11   12 ar   
    24   11  126 1    
    25   12   13 ar   
    26   12  137 1    
    27   13   14 ar   
    28   13   15 1    
    29   14  138 1    
    30   15   16 1    
    31   15  139 1    
    32   15  140 1    
    33   16   17 1    
    34   17   18 1    
    35   17  141 1    
    36   17  142 1    
    37   18   19 1    
    38   18   67 1    
    39   18  143 1    
    40   19   20 am   BACKBONE|DICT|INTERRES
    41   19  144 1    
    42   20   21 2    
    43   20   22 1    
    44   22   23 1    
    45   22   24 1    
    46   22  145 1    
    47   23  146 1    
    48   23  147 1    
    49   23  148 1    
    50   24   25 am   BACKBONE|DICT|INTERRES
    51   24  149 1    
    52   25   26 2    
    53   25   27 1    
    54   27   28 1    
    55   27   29 1    
    56   27  150 1    
    57   28  151 1    
    58   28  152 1    
    59   28  153 1    
    60   29   30 am   BACKBONE|DICT|INTERRES
    61   29  154 1    
    62   30   31 2    
    63   30   32 1    
    64   32   33 1    
    65   32   34 1    
    66   32  155 1    
    67   33  156 1    
    68   33  157 1    
    69   33  158 1    
    70   34   35 am   BACKBONE|DICT|INTERRES
    71   34  159 1    
    72   35   36 2    
    73   35   37 1    
    74   37   38 1    
    75   37   39 1    
    76   37  160 1    
    77   38  161 1    
    78   38  162 1    
    79   38  163 1    
    80   39   40 am   BACKBONE|DICT|INTERRES
    81   39  164 1    
    82   40   41 2    
    83   40   42 1    
    84   42   43 1    
    85   42   44 1    
    86   42  165 1    
    87   43  166 1    
    88   43  167 1    
    89   43  168 1    
    90   44   45 am   BACKBONE|DICT|INTERRES
    91   44  169 1    
    92   45   46 2    
    93   45   47 1    
    94   47   48 1    
    95   47   49 1    
    96   47  170 1    
    97   48  171 1    
    98   48  172 1    
    99   48  173 1    
   100   49   50 am   BACKBONE|DICT|INTERRES
   101   49  174 1    
   102   50   51 2    
   103   50   52 1    
   104   52   53 1    
   105   52   54 1    
   106   52  175 1    
   107   53  176 1    
   108   53  177 1    
   109   53  178 1    
   110   54   55 am   BACKBONE|DICT|INTERRES
   111   54  179 1    
   112   55   56 2    
   113   55   57 1    
   114   57   58 1    
   115   57   59 1    
   116   57  180 1    
   117   58  181 1    
   118   58  182 1    
   119   58  183 1    
   120   59   60 am   BACKBONE|DICT|INTERRES
   121   59  184 1    
   122   60   61 2    
   123   60   62 1    
   124   62   63 1    
   125   62   64 1    
   126   62  185 1    
   127   63  186 1    
   128   63  187 1    
   129   63  188 1    
   130   64   65 am   BACKBONE|DICT|INTERRES
   131   64  189 1    
   132   65   66 2    
   133   67   68 2    
   134   67   69 am   BACKBONE|DICT|INTERRES
   135   69   70 1    
   136   69  190 1    
   137   70   71 1    
   138   70   72 1    
   139   70  191 1    
   140   71  192 1    
   141   71  193 1    
   142   71  194 1    
   143   72   73 2    
   144   72   74 am   BACKBONE|DICT|INTERRES
   145   74   75 1    
   146   74  195 1    
   147   75   76 1    
   148   75   77 1    
   149   75  196 1    
   150   76  197 1    
   151   76  198 1    
   152   76  199 1    
   153   77   78 2    
   154   77   79 am   BACKBONE|DICT|INTERRES
   155   79   80 1    
   156   79  200 1    
   157   80   81 1    
   158   80   82 1    
   159   80  201 1    
   160   81  202 1    
   161   81  203 1    
   162   81  204 1    
   163   82   83 2    
   164   82   84 am   BACKBONE|DICT|INTERRES
   165   84   85 1    
   166   84  205 1    
   167   85   86 1    
   168   85   87 1    
   169   85  206 1    
   170   86  207 1    
   171   86  208 1    
   172   86  209 1    
   173   87   88 2    
   174   87   89 am   BACKBONE|DICT|INTERRES
   175   89   90 1    
   176   89  210 1    
   177   90   91 1    
   178   90   92 1    
   179   90  211 1    
   180   91  212 1    
   181   91  213 1    
   182   91  214 1    
   183   92   93 2    
   184   92   94 am   BACKBONE|DICT|INTERRES
   185   94   95 1    
   186   94  215 1    
   187   95   96 1    
   188   95   97 1    
   189   95  216 1    
   190   96  217 1    
   191   96  218 1    
   192   96  219 1    
   193   97   98 2    
   194   97   99 am   BACKBONE|DICT|INTERRES
   195   99  100 1    
   196   99  220 1    
   197  100  101 1    
   198  100  102 1    
   199  100  221 1    
   200  101  222 1    
   201  101  223 1    
   202  101  224 1    
   203  102  103 2    
   204  102  104 am   BACKBONE|DICT|INTERRES
   205  104  105 1    
   206  104  225 1    
   207  105  106 1    
   208  105  107 1    
   209  105  226 1    
   210  106  227 1    
   211  106  228 1    
   212  106  229 1    
   213  107  108 2    
   214  107  109 am   BACKBONE|DICT|INTERRES
   215  109  110 1    
   216  109  230 1    
   217  110  111 1    
   218  110  112 1    
   219  110  231 1    
   220  111  232 1    
   221  111  233 1    
   222  111  234 1    
   223  112  113 2    
   224  112  114 am   BACKBONE|DICT|INTERRES
   225  114  115 1    
   226  114  235 1    
   227  115  116 1    
   228  115  117 1    
   229  115  236 1    
   230  116  237 1    
   231  116  238 1    
   232  116  239 1    
   233  117  118 2    
   234  117  119 am   BACKBONE|DICT|INTERRES
   235  119  120 1    
   236  119  240 1    
   237  120  121 1    
   238  120  124 1    
   239  120  241 1    
   240  121  122 am   BACKBONE|DICT|INTERRES
   241  121  123 2    
   242  122  242 1    
   243  122  243 1    
   244  124  125 1    
   245  124  244 1    
   246  124  245 1    
   247  125  126 1    
   248  126  246 1    
   249  126  247 1    
@<TRIPOS>SUBSTRUCTURE
     1 UNK         1 GROUP             0       ****    0 ROOT    
