@<TRIPOS>MOLECULE
3R540
247   249    1
SMALL
USER_CHARGES


@<TRIPOS>ATOM
      1 CA          6.2498  -15.7349  -50.0082 C.3       0 UNK        -0.1800 
      2 C           5.0331  -16.1293  -49.1849 C.2       0 UNK         0.5000 
      3 O           4.9414  -15.7671  -48.0118 O.2       0 UNK        -0.5000 
      4 N           4.0835  -16.8524  -49.7926 N.am      1 UNK        -0.5000 
      5 CA          2.8501  -17.3238  -49.1492 C.3       1 UNK         0.1400 
      6 C6          2.0804  -18.3369  -50.0303 C.3       23 UNK        -0.0398 
      7 S7          1.5432  -17.6647  -51.6440 S.3       23 UNK        -0.2404 
      8 C8         -0.2003  -18.1844  -51.7290 C.3       23 UNK        -0.0205 
      9 C9         -1.0595  -17.5741  -50.6308 C.ar      23 UNK        -0.0193 
     10 C10        -1.3886  -16.2158  -50.6666 C.ar      23 UNK        -0.1150 
     11 C11        -2.1843  -15.6512  -49.6650 C.ar      23 UNK        -0.0193 
     12 C12        -2.6302  -16.4543  -48.6105 C.ar      23 UNK        -0.1150 
     13 C13        -2.3109  -17.8124  -48.5638 C.ar      23 UNK        -0.0193 
     14 C14        -1.5385  -18.3711  -49.5864 C.ar      23 UNK        -0.1150 
     15 C15        -2.8159  -18.6773  -47.4177 C.3       23 UNK        -0.0205 
     16 S16        -1.8985  -18.4148  -45.8633 S.3       23 UNK        -0.2404 
     17 C17        -0.1764  -18.8413  -46.3136 C.3       23 UNK        -0.0398 
     18 CA          0.2901  -20.2919  -46.0314 C.3       11 UNK         0.1400 
     19 N           0.6358  -20.5288  -44.6245 N.am      11 UNK        -0.5000 
     20 C           1.5206  -21.4584  -44.2288 C.2       10 UNK         0.5000 
     21 O           2.1063  -22.2132  -45.0059 O.2       10 UNK        -0.5000 
     22 CA          1.7985  -21.5750  -42.7204 C.3       10 UNK         0.1400 
     23 CB          2.8302  -20.5240  -42.2815 C.3       10 UNK        -0.1800 
     24 N           0.5837  -21.4332  -41.9213 N.am      10 UNK        -0.5000 
     25 C          -0.3460  -22.3895  -41.7779 C.2       9 UNK         0.5000 
     26 O          -0.2422  -23.5156  -42.2646 O.2       9 UNK        -0.5000 
     27 CA         -1.6166  -22.0305  -40.9753 C.3       9 UNK         0.1400 
     28 CB         -1.4636  -22.4577  -39.5080 C.3       9 UNK        -0.1800 
     29 N          -1.9599  -20.6072  -41.0236 N.am      9 UNK        -0.5000 
     30 C          -2.2435  -19.9334  -42.1456 C.2       8 UNK         0.5000 
     31 O          -2.3514  -20.4776  -43.2440 O.2       8 UNK        -0.5000 
     32 CA         -2.3723  -18.3984  -42.0498 C.3       8 UNK         0.1400 
     33 CB         -3.8506  -17.9842  -42.0382 C.3       8 UNK        -0.1800 
     34 N          -1.6817  -17.7361  -40.9331 N.am      8 UNK        -0.5000 
     35 C          -0.3964  -17.8827  -40.5800 C.2       7 UNK         0.5000 
     36 O           0.3497  -18.7424  -41.0469 O.2       7 UNK        -0.5000 
     37 CA          0.1526  -16.8418  -39.5940 C.3       7 UNK         0.1400 
     38 CB          1.4650  -17.2873  -38.9247 C.3       7 UNK        -0.1800 
     39 N           0.3977  -15.6356  -40.3723 N.am      7 UNK        -0.5000 
     40 C          -0.0604  -14.4082  -40.0967 C.2       6 UNK         0.5000 
     41 O          -0.6413  -14.1140  -39.0514 O.2       6 UNK        -0.5000 
     42 CA          0.1300  -13.3305  -41.1890 C.3       6 UNK         0.1400 
     43 CB          1.4051  -12.5158  -40.9254 C.3       6 UNK        -0.1800 
     44 N           0.1961  -13.8866  -42.5433 N.am      6 UNK        -0.5000 
     45 C          -0.7880  -14.5764  -43.1387 C.2       5 UNK         0.5000 
     46 O          -1.9275  -14.6607  -42.6793 O.2       5 UNK        -0.5000 
     47 CA         -0.4453  -15.3473  -44.4299 C.3       5 UNK         0.1400 
     48 CB         -1.1424  -14.7162  -45.6445 C.3       5 UNK        -0.1800 
     49 N           0.9826  -15.5025  -44.7255 N.am      5 UNK        -0.5000 
     50 C           1.9100  -16.0781  -43.9460 C.2       4 UNK         0.5000 
     51 O           1.6725  -16.5373  -42.8312 O.2       4 UNK        -0.5000 
     52 CA          3.3561  -16.1099  -44.4778 C.3       4 UNK         0.1400 
     53 CB          3.6643  -17.4776  -45.1056 C.3       4 UNK        -0.1800 
     54 N           3.6455  -15.0502  -45.4481 N.am      4 UNK        -0.5000 
     55 C           3.6286  -13.7347  -45.1813 C.2       3 UNK         0.5000 
     56 O           3.4036  -13.2659  -44.0647 O.2       3 UNK        -0.5000 
     57 CA          3.8481  -12.7884  -46.3742 C.3       3 UNK         0.1400 
     58 CB          5.3446  -12.6106  -46.6743 C.3       3 UNK        -0.1800 
     59 N           3.1558  -13.2853  -47.5646 N.am      3 UNK        -0.5000 
     60 C           1.8530  -13.0826  -47.8107 C.2       2 UNK         0.5000 
     61 O           1.1390  -12.3529  -47.1236 O.2       2 UNK        -0.5000 
     62 CA          1.2283  -13.8265  -49.0079 C.3       2 UNK         0.1400 
     63 CB          1.1328  -12.9094  -50.2356 C.3       2 UNK        -0.1800 
     64 N           1.9462  -15.0457  -49.3766 N.am      2 UNK        -0.5000 
     65 C           1.9535  -16.1699  -48.6470 C.2       1 UNK         0.5000 
     66 O           1.3478  -16.2917  -47.5847 O.2       1 UNK        -0.5000 
     67 C          -0.6798  -21.3495  -46.5935 C.2       11 UNK         0.5000 
     68 O          -0.7336  -21.5199  -47.8116 O.2       11 UNK        -0.5000 
     69 N          -1.4230  -22.0382  -45.7133 N.am      12 UNK        -0.5000 
     70 CA         -2.4466  -23.0355  -46.0384 C.3       12 UNK         0.1400 
     71 CB         -2.9879  -23.6474  -44.7382 C.3       12 UNK        -0.1800 
     72 C          -1.9773  -24.1448  -46.9992 C.2       12 UNK         0.5000 
     73 O          -2.7492  -24.5633  -47.8608 O.2       12 UNK        -0.5000 
     74 N          -0.7067  -24.5521  -46.8782 N.am      13 UNK        -0.5000 
     75 CA         -0.0519  -25.5264  -47.7530 C.3       13 UNK         0.1400 
     76 CB          1.3117  -25.8951  -47.1494 C.3       13 UNK        -0.1800 
     77 C           0.1158  -25.0467  -49.2104 C.2       13 UNK         0.5000 
     78 O           0.1420  -25.8807  -50.1155 O.2       13 UNK        -0.5000 
     79 N           0.2210  -23.7261  -49.4155 N.am      14 UNK        -0.5000 
     80 CA          0.2907  -23.0947  -50.7341 C.3       14 UNK         0.1400 
     81 CB          1.1416  -21.8191  -50.6404 C.3       14 UNK        -0.1800 
     82 C          -1.1072  -22.7660  -51.2866 C.2       14 UNK         0.5000 
     83 O          -1.2624  -22.6499  -52.5017 O.2       14 UNK        -0.5000 
     84 N          -2.0999  -22.6113  -50.4002 N.am      15 UNK        -0.5000 
     85 CA         -3.4960  -22.3969  -50.7677 C.3       15 UNK         0.1400 
     86 CB         -4.2587  -21.7643  -49.5957 C.3       15 UNK        -0.1800 
     87 C          -4.1821  -23.6897  -51.2350 C.2       15 UNK         0.5000 
     88 O          -4.8404  -23.6731  -52.2776 O.2       15 UNK        -0.5000 
     89 N          -4.0222  -24.7640  -50.4485 N.am      16 UNK        -0.5000 
     90 CA         -4.6590  -26.0720  -50.6127 C.3       16 UNK         0.1400 
     91 CB         -4.1634  -27.0142  -49.5030 C.3       16 UNK        -0.1800 
     92 C          -4.4349  -26.6905  -52.0048 C.2       16 UNK         0.5000 
     93 O          -3.3286  -27.1449  -52.3020 O.2       16 UNK        -0.5000 
     94 N          -5.4960  -26.6706  -52.8257 N.am      17 UNK        -0.5000 
     95 CA         -5.5606  -27.1512  -54.2118 C.3       17 UNK         0.1400 
     96 CB         -5.4268  -28.6881  -54.2587 C.3       17 UNK        -0.1800 
     97 C          -4.5767  -26.4352  -55.1649 C.2       17 UNK         0.5000 
     98 O          -4.1450  -27.0260  -56.1572 O.2       17 UNK        -0.5000 
     99 N          -4.2385  -25.1792  -54.8498 N.am      18 UNK        -0.5000 
    100 CA        -3.2673  -24.3716  -55.5753 C.3       18 UNK         0.1400 
    101 CB        -1.8573  -24.6202  -55.0070 C.3       18 UNK        -0.1800 
    102 C         -3.7260  -22.9061  -55.5769 C.2       18 UNK         0.5000 
    103 O         -4.6019  -22.5668  -56.3741 O.2       18 UNK        -0.5000 
    104 N         -3.1426  -22.0559  -54.7187 N.am      19 UNK        -0.5000 
    105 CA        -3.3829  -20.6076  -54.7180 C.3       19 UNK         0.1400 
    106 CB        -2.2793  -19.9032  -53.9165 C.3       19 UNK        -0.1800 
    107 C         -4.7708  -20.1775  -54.2034 C.2       19 UNK         0.5000 
    108 O         -5.1529  -19.0291  -54.4274 O.2       19 UNK        -0.5000 
    109 N         -5.4862  -21.0750  -53.5067 N.am      20 UNK        -0.5000 
    110 CA        -6.8531  -20.9088  -52.9925 C.3       20 UNK         0.1400 
    111 CB        -7.8586  -20.8963  -54.1623 C.3       20 UNK        -0.1800 
    112 C         -7.0354  -19.7060  -52.0368 C.2       20 UNK         0.5000 
    113 O         -8.1296  -19.1455  -51.9642 O.2       20 UNK        -0.5000 
    114 N         -5.9560  -19.3554  -51.3207 N.am      21 UNK        -0.5000 
    115 CA        -5.7980  -18.2196  -50.4098 C.3       21 UNK         0.1400 
    116 CB        -6.7764  -18.2961  -49.2205 C.3       21 UNK        -0.1800 
    117 C         -5.8617  -16.8762  -51.1619 C.2       21 UNK         0.5000 
    118 O         -6.9285  -16.2705  -51.2797 O.2       21 UNK        -0.5000 
    119 N         -4.6918  -16.4462  -51.6478 N.am      22 UNK        -0.5000 
    120 CA        -4.4352  -15.1570  -52.3145 C.3       22 UNK         0.1400 
    121 C         -4.9701  -15.0503  -53.7757 C.2       22 UNK         0.5000 
    122 N         -5.3312  -16.1369  -54.4457 N.am      22 UNK        -0.7600 
    123 O         -5.0349  -13.9582  -54.3342 O.2       22 UNK        -0.5000 
    124 C124       -4.8219  -13.9062  -51.4656 C.3       23 UNK        -0.0398 
    125 S125       -4.3590  -13.9147  -49.6950 S.3       23 UNK        -0.2404 
    126 C126       -2.5549  -14.1743  -49.7086 C.3       23 UNK        -0.0205 
    127 H127        6.3429  -14.6495  -50.0417 H         1 UNK         0.0600 
    128 H128        6.1834  -16.1039  -51.0319 H         1 UNK         0.0600 
    129 H129        7.1543  -16.1419  -49.5565 H         1 UNK         0.0600 
    130 H130        4.1949  -17.1089  -50.7637 H         1 UNK         0.3000 
    131 H131        3.1654  -17.8694  -48.2582 H         1 UNK         0.0600 
    132 H132        2.7173  -19.1998  -50.2285 H         1 UNK         0.0800 
    133 H133        1.2261  -18.7317  -49.4816 H         1 UNK         0.0800 
    134 H134       -0.2516  -19.2736  -51.7036 H         1 UNK         0.0800 
    135 H135       -0.5968  -17.8801  -52.6975 H         1 UNK         0.0800 
    136 H136       -1.0206  -15.6008  -51.4758 H         1 UNK         0.1150 
    137 H137       -3.2325  -16.0209  -47.8243 H         1 UNK         0.1150 
    138 H138       -1.2954  -19.4244  -49.5573 H         1 UNK         0.1150 
    139 H139       -3.8695  -18.4569  -47.2407 H         1 UNK         0.0800 
    140 H140       -2.7732  -19.7320  -47.6832 H         1 UNK         0.0800 
    141 H141        0.4784  -18.1466  -45.7886 H         1 UNK         0.0800 
    142 H142       -0.0218  -18.6165  -47.3665 H         1 UNK         0.0800 
    143 H143        1.2122  -20.4141  -46.6046 H         1 UNK         0.0600 
    144 H144        0.1606  -19.9675  -43.9323 H         1 UNK         0.3000 
    145 H145        2.2247  -22.5627  -42.5320 H         1 UNK         0.0600 
    146 H146        3.0563  -20.6128  -41.2188 H         1 UNK         0.0600 
    147 H147        3.7673  -20.6460  -42.8261 H         1 UNK         0.0600 
    148 H148        2.4764  -19.5083  -42.4628 H         1 UNK         0.0600 
    149 H149        0.4255  -20.5174  -41.5041 H         1 UNK         0.3000 
    150 H150       -2.4476  -22.5888  -41.4116 H         1 UNK         0.0600 
    151 H151       -1.2322  -23.5211  -39.4327 H         1 UNK         0.0600 
    152 H152       -2.3834  -22.2862  -38.9485 H         1 UNK         0.0600 
    153 H153       -0.6605  -21.9107  -39.0123 H         1 UNK         0.0600 
    154 H154       -1.8660  -20.0854  -40.1650 H         1 UNK         0.3000 
    155 H155       -1.9231  -17.9988  -42.9586 H         1 UNK         0.0600 
    156 H156       -4.3490  -18.3021  -41.1217 H         1 UNK         0.0600 
    157 H157       -3.9573  -16.9025  -42.1241 H         1 UNK         0.0600 
    158 H158       -4.3882  -18.4277  -42.8776 H         1 UNK         0.0600 
    159 H159       -2.1986  -16.9862  -40.4966 H         1 UNK         0.3000 
    160 H160       -0.5991  -16.6714  -38.8206 H         1 UNK         0.0600 
    161 H161        2.2566  -17.4525  -39.6572 H         1 UNK         0.0600 
    162 H162        1.3253  -18.2179  -38.3735 H         1 UNK         0.0600 
    163 H163        1.8177  -16.5371  -38.2169 H         1 UNK         0.0600 
    164 H164        0.8444  -15.8024  -41.2720 H         1 UNK         0.3000 
    165 H165       -0.7277  -12.6566  -41.1430 H         1 UNK         0.0600 
    166 H166        1.5123  -11.7059  -41.6474 H         1 UNK         0.0600 
    167 H167        1.3838  -12.0655  -39.9321 H         1 UNK         0.0600 
    168 H168        2.2987  -13.1385  -40.9863 H         1 UNK         0.0600 
    169 H169        1.0991  -13.8617  -42.9972 H         1 UNK         0.3000 
    170 H170       -0.8418  -16.3507  -44.2893 H         1 UNK         0.0600 
    171 H171       -2.2229  -14.6790  -45.5012 H         1 UNK         0.0600 
    172 H172       -0.7980  -13.6972  -45.8195 H         1 UNK         0.0600 
    173 H173       -0.9584  -15.2949  -46.5494 H         1 UNK         0.0600 
    174 H174        1.2696  -15.2332  -45.6581 H         1 UNK         0.3000 
    175 H175        4.0227  -15.9678  -43.6248 H         1 UNK         0.0600 
    176 H176        2.9865  -17.7042  -45.9272 H         1 UNK         0.0600 
    177 H177        4.6843  -17.5188  -45.4884 H         1 UNK         0.0600 
    178 H178        3.5595  -18.2756  -44.3700 H         1 UNK         0.0600 
    179 H179        3.8957  -15.3493  -46.3854 H         1 UNK         0.3000 
    180 H180        3.4457  -11.8092  -46.1056 H         1 UNK         0.0600 
    181 H181        5.8300  -13.5556  -46.9172 H         1 UNK         0.0600 
    182 H182        5.8643  -12.1904  -45.8124 H         1 UNK         0.0600 
    183 H183        5.5000  -11.9295  -47.5110 H         1 UNK         0.0600 
    184 H184        3.6682  -13.9342  -48.1466 H         1 UNK         0.3000 
    185 H185        0.2170  -14.1112  -48.7144 H         1 UNK         0.0600 
    186 H186        0.5686  -12.0050  -50.0042 H         1 UNK         0.0600 
    187 H187        2.1188  -12.6023  -50.5861 H         1 UNK         0.0600 
    188 H188        0.6218  -13.4076  -51.0598 H         1 UNK         0.0600 
    189 H189        2.4750  -15.0269  -50.2362 H         1 UNK         0.3000 
    190 H190       -1.3696  -21.7602  -44.7409 H         1 UNK         0.3000 
    191 H191       -3.2639  -22.5025  -46.5259 H         1 UNK         0.0600 
    192 H192       -2.2028  -24.1536  -44.1755 H         1 UNK         0.0600 
    193 H193       -3.7692  -24.3799  -44.9455 H         1 UNK         0.0600 
    194 H194       -3.4235  -22.8840  -44.0934 H         1 UNK         0.0600 
    195 H195       -0.1381  -24.1358  -46.1546 H         1 UNK         0.3000 
    196 H196       -0.6716  -26.4254  -47.7748 H         1 UNK         0.0600 
    197 H197        1.8241  -26.6370  -47.7634 H         1 UNK         0.0600 
    198 H198        1.1997  -26.3215  -46.1524 H         1 UNK         0.0600 
    199 H199        1.9647  -25.0247  -47.0713 H         1 UNK         0.0600 
    200 H200        0.1354  -23.0947  -48.6262 H         1 UNK         0.3000 
    201 H201        0.7757  -23.7715  -51.4406 H         1 UNK         0.0600 
    202 H202        2.1407  -22.0374  -50.2633 H         1 UNK         0.0600 
    203 H203        0.6883  -21.0797  -49.9811 H         1 UNK         0.0600 
    204 H204        1.2584  -21.3555  -51.6208 H         1 UNK         0.0600 
    205 H205       -1.8827  -22.6840  -49.4155 H         1 UNK         0.3000 
    206 H206       -3.5291  -21.6908  -51.5968 H         1 UNK         0.0600 
    207 H207       -5.3222  -21.6734  -49.8196 H         1 UNK         0.0600 
    208 H208       -4.1725  -22.3584  -48.6872 H         1 UNK         0.0600 
    209 H209       -3.8855  -20.7639  -49.3845 H         1 UNK         0.0600 
    210 H210       -3.4611  -24.6601  -49.6068 H         1 UNK         0.3000 
    211 H211       -5.7314  -25.9288  -50.4671 H         1 UNK         0.0600 
    212 H212       -3.0772  -27.1160  -49.5184 H         1 UNK         0.0600 
    213 H213       -4.5905  -28.0117  -49.6140 H         1 UNK         0.0600 
    214 H214       -4.4501  -26.6471  -48.5175 H         1 UNK         0.0600 
    215 H215       -6.3423  -26.2339  -52.4873 H         1 UNK         0.3000 
    216 H216       -6.5587  -26.8992  -54.5727 H         1 UNK         0.0600 
    217 H217       -5.6227  -29.0690  -55.2617 H         1 UNK         0.0600 
    218 H218       -6.1400  -29.1668  -53.5878 H         1 UNK         0.0600 
    219 H219       -4.4264  -29.0159  -53.9745 H         1 UNK         0.0600 
    220 H220       -4.6373  -24.7544  -54.0183 H         1 UNK         0.3000 
    221 H221       -3.2535  -24.6684  -56.6263 H         1 UNK         0.0600 
    222 H222       -1.8600  -24.6274  -53.9181 H         1 UNK         0.0600 
    223 H223       -1.4818  -25.5914  -55.3291 H         1 UNK         0.0600 
    224 H224       -1.1417  -23.8704  -55.3466 H         1 UNK         0.0600 
    225 H225       -2.4423  -22.3999  -54.0663 H         1 UNK         0.3000 
    226 H226       -3.3097  -20.2607  -55.7509 H         1 UNK         0.0600 
    227 H227       -1.2884  -20.1713  -54.2836 H         1 UNK         0.0600 
    228 H228       -2.3752  -18.8202  -54.0017 H         1 UNK         0.0600 
    229 H229       -2.3235  -20.1517  -52.8569 H         1 UNK         0.0600 
    230 H230       -5.0852  -21.9955  -53.3607 H         1 UNK         0.3000 
    231 H231       -7.0586  -21.7975  -52.3942 H         1 UNK         0.0600 
    232 H232       -8.8866  -20.9262  -53.7995 H         1 UNK         0.0600 
    233 H233       -7.7197  -21.7626  -54.8094 H         1 UNK         0.0600 
    234 H234       -7.7524  -20.0004  -54.7748 H         1 UNK         0.0600 
    235 H235       -5.1129  -19.8755  -51.5057 H         1 UNK         0.3000 
    236 H236       -4.7952  -18.3095  -49.9904 H         1 UNK         0.0600 
    237 H237       -6.6737  -19.2414  -48.6876 H         1 UNK         0.0600 
    238 H238       -6.5750  -17.4963  -48.5070 H         1 UNK         0.0600 
    239 H239       -7.8162  -18.1970  -49.5319 H         1 UNK         0.0600 
    240 H240       -3.8718  -17.0157  -51.5015 H         1 UNK         0.3000 
    241 H241       -3.3534  -15.1230  -52.4370 H         1 UNK         0.0600 
    242 H242       -5.6637  -16.0343  -55.3907 H         1 UNK         0.3800 
    243 H243       -5.2603  -17.0699  -54.0546 H         1 UNK         0.3800 
    244 H244       -4.3851  -13.0099  -51.9088 H         1 UNK         0.0800 
    245 H245       -5.9017  -13.7552  -51.5071 H         1 UNK         0.0800 
    246 H246       -2.1155  -13.6765  -50.5742 H         1 UNK         0.0800 
    247 H247       -2.1352  -13.6882  -48.8273 H         1 UNK         0.0800 
@<TRIPOS>BOND
     1    1    2 1    
     2    1  127 1    
     3    1  128 1    
     4    1  129 1    
     5    2    3 2    
     6    2    4 am   BACKBONE|DICT|INTERRES
     7    4    5 1    
     8    4  130 1    
     9    5    6 1    
    10    5   65 1    
    11    5  131 1    
    12    6    7 1    
    13    6  132 1    
    14    6  133 1    
    15    7    8 1    
    16    8    9 1    
    17    8  134 1    
    18    8  135 1    
    19    9   10 ar   
    20    9   14 ar   
    21   10   11 ar   
    22   10  136 1    
    23   11   12 ar   
    24   11  126 1    
    25   12   13 ar   
    26   12  137 1    
    27   13   14 ar   
    28   13   15 1    
    29   14  138 1    
    30   15   16 1    
    31   15  139 1    
    32   15  140 1    
    33   16   17 1    
    34   17   18 1    
    35   17  141 1    
    36   17  142 1    
    37   18   19 1    
    38   18   67 1    
    39   18  143 1    
    40   19   20 am   BACKBONE|DICT|INTERRES
    41   19  144 1    
    42   20   21 2    
    43   20   22 1    
    44   22   23 1    
    45   22   24 1    
    46   22  145 1    
    47   23  146 1    
    48   23  147 1    
    49   23  148 1    
    50   24   25 am   BACKBONE|DICT|INTERRES
    51   24  149 1    
    52   25   26 2    
    53   25   27 1    
    54   27   28 1    
    55   27   29 1    
    56   27  150 1    
    57   28  151 1    
    58   28  152 1    
    59   28  153 1    
    60   29   30 am   BACKBONE|DICT|INTERRES
    61   29  154 1    
    62   30   31 2    
    63   30   32 1    
    64   32   33 1    
    65   32   34 1    
    66   32  155 1    
    67   33  156 1    
    68   33  157 1    
    69   33  158 1    
    70   34   35 am   BACKBONE|DICT|INTERRES
    71   34  159 1    
    72   35   36 2    
    73   35   37 1    
    74   37   38 1    
    75   37   39 1    
    76   37  160 1    
    77   38  161 1    
    78   38  162 1    
    79   38  163 1    
    80   39   40 am   BACKBONE|DICT|INTERRES
    81   39  164 1    
    82   40   41 2    
    83   40   42 1    
    84   42   43 1    
    85   42   44 1    
    86   42  165 1    
    87   43  166 1    
    88   43  167 1    
    89   43  168 1    
    90   44   45 am   BACKBONE|DICT|INTERRES
    91   44  169 1    
    92   45   46 2    
    93   45   47 1    
    94   47   48 1    
    95   47   49 1    
    96   47  170 1    
    97   48  171 1    
    98   48  172 1    
    99   48  173 1    
   100   49   50 am   BACKBONE|DICT|INTERRES
   101   49  174 1    
   102   50   51 2    
   103   50   52 1    
   104   52   53 1    
   105   52   54 1    
   106   52  175 1    
   107   53  176 1    
   108   53  177 1    
   109   53  178 1    
   110   54   55 am   BACKBONE|DICT|INTERRES
   111   54  179 1    
   112   55   56 2    
   113   55   57 1    
   114   57   58 1    
   115   57   59 1    
   116   57  180 1    
   117   58  181 1    
   118   58  182 1    
   119   58  183 1    
   120   59   60 am   BACKBONE|DICT|INTERRES
   121   59  184 1    
   122   60   61 2    
   123   60   62 1    
   124   62   63 1    
   125   62   64 1    
   126   62  185 1    
   127   63  186 1    
   128   63  187 1    
   129   63  188 1    
   130   64   65 am   BACKBONE|DICT|INTERRES
   131   64  189 1    
   132   65   66 2    
   133   67   68 2    
   134   67   69 am   BACKBONE|DICT|INTERRES
   135   69   70 1    
   136   69  190 1    
   137   70   71 1    
   138   70   72 1    
   139   70  191 1    
   140   71  192 1    
   141   71  193 1    
   142   71  194 1    
   143   72   73 2    
   144   72   74 am   BACKBONE|DICT|INTERRES
   145   74   75 1    
   146   74  195 1    
   147   75   76 1    
   148   75   77 1    
   149   75  196 1    
   150   76  197 1    
   151   76  198 1    
   152   76  199 1    
   153   77   78 2    
   154   77   79 am   BACKBONE|DICT|INTERRES
   155   79   80 1    
   156   79  200 1    
   157   80   81 1    
   158   80   82 1    
   159   80  201 1    
   160   81  202 1    
   161   81  203 1    
   162   81  204 1    
   163   82   83 2    
   164   82   84 am   BACKBONE|DICT|INTERRES
   165   84   85 1    
   166   84  205 1    
   167   85   86 1    
   168   85   87 1    
   169   85  206 1    
   170   86  207 1    
   171   86  208 1    
   172   86  209 1    
   173   87   88 2    
   174   87   89 am   BACKBONE|DICT|INTERRES
   175   89   90 1    
   176   89  210 1    
   177   90   91 1    
   178   90   92 1    
   179   90  211 1    
   180   91  212 1    
   181   91  213 1    
   182   91  214 1    
   183   92   93 2    
   184   92   94 am   BACKBONE|DICT|INTERRES
   185   94   95 1    
   186   94  215 1    
   187   95   96 1    
   188   95   97 1    
   189   95  216 1    
   190   96  217 1    
   191   96  218 1    
   192   96  219 1    
   193   97   98 2    
   194   97   99 am   BACKBONE|DICT|INTERRES
   195   99  100 1    
   196   99  220 1    
   197  100  101 1    
   198  100  102 1    
   199  100  221 1    
   200  101  222 1    
   201  101  223 1    
   202  101  224 1    
   203  102  103 2    
   204  102  104 am   BACKBONE|DICT|INTERRES
   205  104  105 1    
   206  104  225 1    
   207  105  106 1    
   208  105  107 1    
   209  105  226 1    
   210  106  227 1    
   211  106  228 1    
   212  106  229 1    
   213  107  108 2    
   214  107  109 am   BACKBONE|DICT|INTERRES
   215  109  110 1    
   216  109  230 1    
   217  110  111 1    
   218  110  112 1    
   219  110  231 1    
   220  111  232 1    
   221  111  233 1    
   222  111  234 1    
   223  112  113 2    
   224  112  114 am   BACKBONE|DICT|INTERRES
   225  114  115 1    
   226  114  235 1    
   227  115  116 1    
   228  115  117 1    
   229  115  236 1    
   230  116  237 1    
   231  116  238 1    
   232  116  239 1    
   233  117  118 2    
   234  117  119 am   BACKBONE|DICT|INTERRES
   235  119  120 1    
   236  119  240 1    
   237  120  121 1    
   238  120  124 1    
   239  120  241 1    
   240  121  122 am   BACKBONE|DICT|INTERRES
   241  121  123 2    
   242  122  242 1    
   243  122  243 1    
   244  124  125 1    
   245  124  244 1    
   246  124  245 1    
   247  125  126 1    
   248  126  246 1    
   249  126  247 1    
@<TRIPOS>SUBSTRUCTURE
     1 UNK         1 GROUP             0       ****    0 ROOT    
