@<TRIPOS>MOLECULE
3R540
247   249    1
SMALL
USER_CHARGES


@<TRIPOS>ATOM
      1 CA         -0.3188  -10.4495  -48.7824 C.3       0 UNK        -0.1800 
      2 C          -0.3351  -11.9036  -48.3349 C.2       0 UNK         0.5000 
      3 O          -1.4062  -12.4280  -48.0310 O.2       0 UNK        -0.5000 
      4 N           0.8493  -12.5322  -48.2827 N.am      1 UNK        -0.5000 
      5 CA          1.1477  -13.9082  -47.8563 C.3       1 UNK         0.1400 
      6 C6          1.1355  -14.9626  -48.9998 C.3       23 UNK        -0.0398 
      7 S7         -0.4007  -15.1173  -49.9826 S.3       23 UNK        -0.2404 
      8 C8         -0.9259  -16.8350  -49.6668 C.3       23 UNK        -0.0205 
      9 C9          0.0937  -17.8653  -50.1300 C.ar      23 UNK        -0.0193 
     10 C10         0.2193  -18.1754  -51.4851 C.ar      23 UNK        -0.1150 
     11 C11         1.1312  -19.1461  -51.9094 C.ar      23 UNK        -0.0193 
     12 C12         1.9258  -19.8083  -50.9667 C.ar      23 UNK        -0.1150 
     13 C13         1.8077  -19.5075  -49.6060 C.ar      23 UNK        -0.0193 
     14 C14         0.8889  -18.5361  -49.1975 C.ar      23 UNK        -0.1150 
     15 C15         2.6783  -20.2101  -48.5690 C.3       23 UNK        -0.0205 
     16 S16         2.1992  -21.9426  -48.2358 S.3       23 UNK        -0.2404 
     17 C17         0.3769  -21.8932  -48.2387 C.3       23 UNK        -0.0398 
     18 CA         -0.2773  -22.8623  -47.2295 C.3       11 UNK         0.1400 
     19 N          -0.0733  -22.4650  -45.8317 N.am      11 UNK        -0.5000 
     20 C          -0.4421  -23.2035  -44.7712 C.2       10 UNK         0.5000 
     21 O          -0.9575  -24.3177  -44.8740 O.2       10 UNK        -0.5000 
     22 CA         -0.2809  -22.5832  -43.3676 C.3       10 UNK         0.1400 
     23 CB          1.0521  -23.0171  -42.7429 C.3       10 UNK        -0.1800 
     24 N          -0.3657  -21.1219  -43.3529 N.am      10 UNK        -0.5000 
     25 C          -1.4032  -20.3989  -43.7993 C.2       9 UNK         0.5000 
     26 O          -2.4563  -20.8963  -44.1955 O.2       9 UNK        -0.5000 
     27 CA         -1.2127  -18.8725  -43.8953 C.3       9 UNK         0.1400 
     28 CB         -1.9263  -18.1604  -42.7379 C.3       9 UNK        -0.1800 
     29 N           0.1897  -18.4437  -43.9600 N.am      9 UNK        -0.5000 
     30 C           1.0520  -18.8004  -44.9243 C.2       8 UNK         0.5000 
     31 O           0.7430  -19.5272  -45.8669 O.2       8 UNK        -0.5000 
     32 CA          2.5064  -18.3190  -44.7893 C.3       8 UNK         0.1400 
     33 CB          2.7097  -16.9744  -45.4974 C.3       8 UNK        -0.1800 
     34 N           2.9108  -18.1981  -43.3899 N.am      8 UNK        -0.5000 
     35 C           3.2941  -19.2311  -42.6261 C.2       7 UNK         0.5000 
     36 O           3.4146  -20.3823  -43.0432 O.2       7 UNK        -0.5000 
     37 CA          3.5574  -18.9320  -41.1381 C.3       7 UNK         0.1400 
     38 CB          5.0122  -18.4869  -40.9259 C.3       7 UNK        -0.1800 
     39 N           2.6580  -17.9087  -40.6030 N.am      7 UNK        -0.5000 
     40 C           1.3336  -18.0586  -40.4560 C.2       6 UNK         0.5000 
     41 O           0.7380  -19.1100  -40.6888 O.2       6 UNK        -0.5000 
     42 CA          0.5386  -16.8143  -40.0121 C.3       6 UNK         0.1400 
     43 CB          0.3258  -16.8269  -38.4913 C.3       6 UNK        -0.1800 
     44 N           1.1791  -15.5537  -40.3992 N.am      6 UNK        -0.5000 
     45 C           1.3224  -15.1233  -41.6597 C.2       5 UNK         0.5000 
     46 O           0.9139  -15.7404  -42.6459 O.2       5 UNK        -0.5000 
     47 CA          2.1405  -13.8393  -41.8401 C.3       5 UNK         0.1400 
     48 CB          3.5810  -14.1792  -42.2611 C.3       5 UNK        -0.1800 
     49 N           1.5327  -12.9691  -42.8423 N.am      5 UNK        -0.5000 
     50 C           1.5959  -11.6306  -42.8124 C.2       4 UNK         0.5000 
     51 O           2.1403  -10.9955  -41.9077 O.2       4 UNK        -0.5000 
     52 CA          0.9533  -10.8569  -43.9756 C.3       4 UNK         0.1400 
     53 CB          1.9325  -10.7343  -45.1545 C.3       4 UNK        -0.1800 
     54 N          -0.2837  -11.4817  -44.4376 N.am      4 UNK        -0.5000 
     55 C          -1.5093  -11.1612  -44.0001 C.2       3 UNK         0.5000 
     56 O          -1.7217  -10.3107  -43.1349 O.2       3 UNK        -0.5000 
     57 CA         -2.7072  -11.8873  -44.6440 C.3       3 UNK         0.1400 
     58 CB         -3.4219  -10.9615  -45.6408 C.3       3 UNK        -0.1800 
     59 N          -2.3132  -13.1144  -45.3355 N.am      3 UNK        -0.5000 
     60 C          -2.1374  -14.2948  -44.7267 C.2       2 UNK         0.5000 
     61 O          -2.3791  -14.4878  -43.5354 O.2       2 UNK        -0.5000 
     62 CA         -1.5807  -15.4501  -45.5830 C.3       2 UNK         0.1400 
     63 CB         -2.7318  -16.3051  -46.1361 C.3       2 UNK        -0.1800 
     64 N          -0.7283  -15.0170  -46.6937 N.am      2 UNK        -0.5000 
     65 C           0.4115  -14.3279  -46.5665 C.2       1 UNK         0.5000 
     66 O           0.8687  -13.9763  -45.4799 O.2       1 UNK        -0.5000 
     67 C          -1.7681  -23.0440  -47.5859 C.2       11 UNK         0.5000 
     68 O          -2.0735  -23.8715  -48.4433 O.2       11 UNK        -0.5000 
     69 N          -2.6797  -22.3222  -46.9156 N.am      12 UNK        -0.5000 
     70 CA         -4.1264  -22.4563  -47.1149 C.3       12 UNK         0.1400 
     71 CB         -4.8506  -21.2749  -46.4533 C.3       12 UNK        -0.1800 
     72 C          -4.6888  -23.8022  -46.6120 C.2       12 UNK         0.5000 
     73 O          -5.7686  -24.1987  -47.0495 O.2       12 UNK        -0.5000 
     74 N          -3.9464  -24.4874  -45.7321 N.am      13 UNK        -0.5000 
     75 CA         -4.2335  -25.8483  -45.2892 C.3       13 UNK         0.1400 
     76 CB         -3.9696  -25.9562  -43.7786 C.3       13 UNK        -0.1800 
     77 C          -3.3809  -26.8665  -46.0655 C.2       13 UNK         0.5000 
     78 O          -3.9148  -27.8762  -46.5249 O.2       13 UNK        -0.5000 
     79 N          -2.0721  -26.5969  -46.1805 N.am      14 UNK        -0.5000 
     80 CA         -1.0844  -27.5251  -46.7318 C.3       14 UNK         0.1400 
     81 CB          0.3227  -27.0779  -46.3058 C.3       14 UNK        -0.1800 
     82 C          -1.1584  -27.6911  -48.2601 C.2       14 UNK         0.5000 
     83 O          -1.0383  -28.8168  -48.7460 O.2       14 UNK        -0.5000 
     84 N          -1.3319  -26.5801  -48.9867 N.am      15 UNK        -0.5000 
     85 CA         -1.3627  -26.5434  -50.4509 C.3       15 UNK         0.1400 
     86 CB         -0.3900  -25.4609  -50.9496 C.3       15 UNK        -0.1800 
     87 C          -2.7759  -26.2703  -50.9878 C.2       15 UNK         0.5000 
     88 O          -3.0989  -26.7258  -52.0848 O.2       15 UNK        -0.5000 
     89 N          -3.5777  -25.5058  -50.2314 N.am      16 UNK        -0.5000 
     90 CA         -4.9525  -25.0530  -50.4936 C.3       16 UNK         0.1400 
     91 CB         -5.9156  -26.2370  -50.6958 C.3       16 UNK        -0.1800 
     92 C          -5.0793  -24.0209  -51.6315 C.2       16 UNK         0.5000 
     93 O          -5.8766  -23.0895  -51.5144 O.2       16 UNK        -0.5000 
     94 N          -4.2569  -24.1577  -52.6806 N.am      17 UNK        -0.5000 
     95 CA         -4.1630  -23.2686  -53.8431 C.3       17 UNK         0.1400 
     96 CB         -3.1446  -23.8532  -54.8323 C.3       17 UNK        -0.1800 
     97 C          -3.7986  -21.8115  -53.4961 C.2       17 UNK         0.5000 
     98 O          -4.0981  -20.9088  -54.2779 O.2       17 UNK        -0.5000 
     99 N          -3.2101  -21.5959  -52.3115 N.am      18 UNK        -0.5000 
    100 CA        -2.9217  -20.2922  -51.7117 C.3       18 UNK         0.1400 
    101 CB        -2.2420  -20.5144  -50.3573 C.3       18 UNK        -0.1800 
    102 C         -4.1519  -19.3798  -51.5519 C.2       18 UNK         0.5000 
    103 O         -3.9960  -18.1600  -51.5871 O.2       18 UNK        -0.5000 
    104 N         -5.3539  -19.9688  -51.4568 N.am      19 UNK        -0.5000 
    105 CA        -6.6347  -19.2556  -51.4796 C.3       19 UNK         0.1400 
    106 CB        -7.7633  -20.2500  -51.1697 C.3       19 UNK        -0.1800 
    107 C         -6.9100  -18.5218  -52.8117 C.2       19 UNK         0.5000 
    108 O         -7.6630  -17.5477  -52.8189 O.2       19 UNK        -0.5000 
    109 N         -6.2794  -18.9835  -53.9002 N.am      20 UNK        -0.5000 
    110 CA        -6.2938  -18.3712  -55.2290 C.3       20 UNK         0.1400 
    111 CB        -6.6805  -19.4529  -56.2531 C.3       20 UNK        -0.1800 
    112 C         -4.9294  -17.7348  -55.5761 C.2       20 UNK         0.5000 
    113 O         -4.7084  -17.3856  -56.7359 O.2       20 UNK        -0.5000 
    114 N         -4.0397  -17.6039  -54.5780 N.am      21 UNK        -0.5000 
    115 CA        -2.6574  -17.1163  -54.6617 C.3       21 UNK         0.1400 
    116 CB        -2.6118  -15.6368  -55.0972 C.3       21 UNK        -0.1800 
    117 C         -1.7215  -18.0242  -55.4926 C.2       21 UNK         0.5000 
    118 O         -0.7287  -17.5413  -56.0404 O.2       21 UNK        -0.5000 
    119 N         -2.0332  -19.3264  -55.5340 N.am      22 UNK        -0.5000 
    120 CA        -1.2998  -20.3935  -56.2364 C.3       22 UNK         0.1400 
    121 C         -1.3473  -20.2761  -57.7925 C.2       22 UNK         0.5000 
    122 N         -0.5993  -21.0971  -58.5192 N.am      22 UNK        -0.7600 
    123 O         -2.0897  -19.4821  -58.3656 O.2       22 UNK        -0.5000 
    124 C124        0.1377  -20.6277  -55.6820 C.3       23 UNK        -0.0398 
    125 S125        0.1868  -20.8512  -53.8686 S.3       23 UNK        -0.2404 
    126 C126        1.2590  -19.4621  -53.3894 C.3       23 UNK        -0.0205 
    127 H127       -0.9508  -10.3212  -49.6610 H         1 UNK         0.0600 
    128 H128        0.6868  -10.1119  -49.0338 H         1 UNK         0.0600 
    129 H129       -0.7033   -9.8103  -47.9877 H         1 UNK         0.0600 
    130 H130        1.6670  -12.0000  -48.5445 H         1 UNK         0.3000 
    131 H131        2.1920  -13.8538  -47.5433 H         1 UNK         0.0600 
    132 H132        1.9247  -14.7103  -49.7090 H         1 UNK         0.0800 
    133 H133        1.4245  -15.9337  -48.6009 H         1 UNK         0.0800 
    134 H134       -1.8700  -17.0087  -50.1853 H         1 UNK         0.0800 
    135 H135       -1.1377  -16.9692  -48.6077 H         1 UNK         0.0800 
    136 H136       -0.3967  -17.6613  -52.2085 H         1 UNK         0.1150 
    137 H137        2.6325  -20.5595  -51.2902 H         1 UNK         0.1150 
    138 H138        0.7877  -18.3045  -48.1473 H         1 UNK         0.1150 
    139 H139        3.7154  -20.1959  -48.9063 H         1 UNK         0.0800 
    140 H140        2.6672  -19.6575  -47.6305 H         1 UNK         0.0800 
    141 H141        0.0883  -22.1553  -49.2569 H         1 UNK         0.0800 
    142 H142        0.0196  -20.8791  -48.0608 H         1 UNK         0.0800 
    143 H143        0.1903  -23.8400  -47.3578 H         1 UNK         0.0600 
    144 H144        0.3207  -21.5414  -45.6842 H         1 UNK         0.3000 
    145 H145       -1.0932  -22.9649  -42.7461 H         1 UNK         0.0600 
    146 H146        1.1611  -22.6271  -41.7306 H         1 UNK         0.0600 
    147 H147        1.9021  -22.6681  -43.3305 H         1 UNK         0.0600 
    148 H148        1.1193  -24.1041  -42.6825 H         1 UNK         0.0600 
    149 H149        0.4534  -20.6240  -43.0339 H         1 UNK         0.3000 
    150 H150       -1.6838  -18.5605  -44.8270 H         1 UNK         0.0600 
    151 H151       -3.0040  -18.3175  -42.7953 H         1 UNK         0.0600 
    152 H152       -1.7535  -17.0846  -42.7596 H         1 UNK         0.0600 
    153 H153       -1.5977  -18.5368  -41.7701 H         1 UNK         0.0600 
    154 H154        0.5043  -17.8006  -43.2442 H         1 UNK         0.3000 
    155 H155        3.1444  -19.0563  -45.2812 H         1 UNK         0.0600 
    156 H156        2.3754  -17.0205  -46.5342 H         1 UNK         0.0600 
    157 H157        3.7616  -16.6892  -45.5058 H         1 UNK         0.0600 
    158 H158        2.1544  -16.1801  -45.0018 H         1 UNK         0.0600 
    159 H159        2.8010  -17.2893  -42.9642 H         1 UNK         0.3000 
    160 H160        3.3949  -19.8556  -40.5783 H         1 UNK         0.0600 
    161 H161        5.2292  -17.5532  -41.4466 H         1 UNK         0.0600 
    162 H162        5.7084  -19.2397  -41.2981 H         1 UNK         0.0600 
    163 H163        5.2295  -18.3402  -39.8678 H         1 UNK         0.0600 
    164 H164        3.0692  -17.0182  -40.3670 H         1 UNK         0.3000 
    165 H165       -0.4402  -16.8548  -40.4928 H         1 UNK         0.0600 
    166 H166       -0.2977  -15.9911  -38.1731 H         1 UNK         0.0600 
    167 H167       -0.1755  -17.7428  -38.1751 H         1 UNK         0.0600 
    168 H168        1.2713  -16.7668  -37.9509 H         1 UNK         0.0600 
    169 H169        1.5527  -14.9944  -39.6456 H         1 UNK         0.3000 
    170 H170        2.1691  -13.3225  -40.8783 H         1 UNK         0.0600 
    171 H171        3.6073  -14.6745  -43.2328 H         1 UNK         0.0600 
    172 H172        4.1942  -13.2805  -42.3291 H         1 UNK         0.0600 
    173 H173        4.0581  -14.8424  -41.5386 H         1 UNK         0.0600 
    174 H174        1.0957  -13.4408  -43.6310 H         1 UNK         0.3000 
    175 H175        0.7399   -9.8454  -43.6231 H         1 UNK         0.0600 
    176 H176        2.2298  -11.7085  -45.5423 H         1 UNK         0.0600 
    177 H177        1.4929  -10.1667  -45.9748 H         1 UNK         0.0600 
    178 H178        2.8418  -10.2145  -44.8504 H         1 UNK         0.0600 
    179 H179       -0.1801  -12.2531  -45.0847 H         1 UNK         0.3000 
    180 H180       -3.4131  -12.1326  -43.8477 H         1 UNK         0.0600 
    181 H181       -4.2827  -11.4557  -46.0915 H         1 UNK         0.0600 
    182 H182       -2.7579  -10.6444  -46.4454 H         1 UNK         0.0600 
    183 H183       -3.7872  -10.0614  -45.1447 H         1 UNK         0.0600 
    184 H184       -2.0800  -13.0246  -46.3218 H         1 UNK         0.3000 
    185 H185       -0.9681  -16.0685  -44.9257 H         1 UNK         0.0600 
    186 H186       -3.3410  -15.7456  -46.8471 H         1 UNK         0.0600 
    187 H187       -2.3607  -17.1964  -46.6404 H         1 UNK         0.0600 
    188 H188       -3.3901  -16.6408  -45.3335 H         1 UNK         0.0600 
    189 H189       -1.0807  -15.1685  -47.6289 H         1 UNK         0.3000 
    190 H190       -2.3827  -21.7024  -46.1705 H         1 UNK         0.3000 
    191 H191       -4.3231  -22.4069  -48.1880 H         1 UNK         0.0600 
    192 H192       -5.9136  -21.2866  -46.6971 H         1 UNK         0.0600 
    193 H193       -4.4490  -20.3207  -46.7951 H         1 UNK         0.0600 
    194 H194       -4.7669  -21.3078  -45.3670 H         1 UNK         0.0600 
    195 H195       -3.0638  -24.0938  -45.4331 H         1 UNK         0.3000 
    196 H196       -5.2845  -26.0909  -45.4606 H         1 UNK         0.0600 
    197 H197       -4.6103  -25.2741  -43.2196 H         1 UNK         0.0600 
    198 H198       -2.9346  -25.7226  -43.5268 H         1 UNK         0.0600 
    199 H199       -4.1757  -26.9648  -43.4181 H         1 UNK         0.0600 
    200 H200       -1.7011  -25.7590  -45.7393 H         1 UNK         0.3000 
    201 H201       -1.2660  -28.5065  -46.2881 H         1 UNK         0.0600 
    202 H202        0.4102  -27.0331  -45.2200 H         1 UNK         0.0600 
    203 H203        0.5713  -26.0930  -46.7007 H         1 UNK         0.0600 
    204 H204        1.0802  -27.7759  -46.6645 H         1 UNK         0.0600 
    205 H205       -1.4666  -25.6925  -48.5152 H         1 UNK         0.3000 
    206 H206       -1.0363  -27.4991  -50.8661 H         1 UNK         0.0600 
    207 H207       -0.6762  -24.4646  -50.6121 H         1 UNK         0.0600 
    208 H208        0.6244  -25.6527  -50.5996 H         1 UNK         0.0600 
    209 H209       -0.3581  -25.4381  -52.0397 H         1 UNK         0.0600 
    210 H210       -3.1527  -25.0930  -49.4066 H         1 UNK         0.3000 
    211 H211       -5.2642  -24.5366  -49.5870 H         1 UNK         0.0600 
    212 H212       -5.7011  -26.7899  -51.6105 H         1 UNK         0.0600 
    213 H213       -6.9471  -25.8890  -50.7622 H         1 UNK         0.0600 
    214 H214       -5.8612  -26.9342  -49.8596 H         1 UNK         0.0600 
    215 H215       -3.6708  -24.9869  -52.6926 H         1 UNK         0.3000 
    216 H216       -5.1430  -23.2527  -54.3237 H         1 UNK         0.0600 
    217 H217       -3.1283  -23.2801  -55.7596 H         1 UNK         0.0600 
    218 H218       -3.3943  -24.8812  -55.0957 H         1 UNK         0.0600 
    219 H219       -2.1344  -23.8481  -54.4202 H         1 UNK         0.0600 
    220 H220       -2.9965  -22.4042  -51.7472 H         1 UNK         0.3000 
    221 H221       -2.2227  -19.7704  -52.3675 H         1 UNK         0.0600 
    222 H222       -2.8060  -21.2050  -49.7316 H         1 UNK         0.0600 
    223 H223       -1.2426  -20.9170  -50.5072 H         1 UNK         0.0600 
    224 H224       -2.1362  -19.5831  -49.8012 H         1 UNK         0.0600 
    225 H225       -5.4053  -20.9816  -51.4504 H         1 UNK         0.3000 
    226 H226       -6.6131  -18.5032  -50.6886 H         1 UNK         0.0600 
    227 H227       -7.6115  -20.7312  -50.2033 H         1 UNK         0.0600 
    228 H228       -8.7303  -19.7467  -51.1347 H         1 UNK         0.0600 
    229 H229       -7.8267  -21.0328  -51.9268 H         1 UNK         0.0600 
    230 H230       -5.6595  -19.7817  -53.8060 H         1 UNK         0.3000 
    231 H231       -7.0390  -17.5749  -55.2753 H         1 UNK         0.0600 
    232 H232       -6.7701  -19.0333  -57.2558 H         1 UNK         0.0600 
    233 H233       -7.6415  -19.9039  -56.0053 H         1 UNK         0.0600 
    234 H234       -5.9370  -20.2499  -56.2951 H         1 UNK         0.0600 
    235 H235       -4.3312  -17.8867  -53.6499 H         1 UNK         0.3000 
    236 H236       -2.2738  -17.1592  -53.6419 H         1 UNK         0.0600 
    237 H237       -2.9029  -15.5111  -56.1402 H         1 UNK         0.0600 
    238 H238       -3.2750  -15.0250  -54.4858 H         1 UNK         0.0600 
    239 H239       -1.6062  -15.2289  -54.9889 H         1 UNK         0.0600 
    240 H240       -2.8828  -19.6362  -55.0736 H         1 UNK         0.3000 
    241 H241       -1.8723  -21.2942  -56.0205 H         1 UNK         0.0600 
    242 H242       -0.6454  -21.0304  -59.5245 H         1 UNK         0.3800 
    243 H243        0.0009  -21.7903  -58.1013 H         1 UNK         0.3800 
    244 H244        0.7952  -19.8094  -55.9784 H         1 UNK         0.0800 
    245 H245        0.5718  -21.5287  -56.1160 H         1 UNK         0.0800 
    246 H246        2.2942  -19.7022  -53.6362 H         1 UNK         0.0800 
    247 H247        1.0007  -18.5770  -53.9728 H         1 UNK         0.0800 
@<TRIPOS>BOND
     1    1    2 1    
     2    1  127 1    
     3    1  128 1    
     4    1  129 1    
     5    2    3 2    
     6    2    4 am   BACKBONE|DICT|INTERRES
     7    4    5 1    
     8    4  130 1    
     9    5    6 1    
    10    5   65 1    
    11    5  131 1    
    12    6    7 1    
    13    6  132 1    
    14    6  133 1    
    15    7    8 1    
    16    8    9 1    
    17    8  134 1    
    18    8  135 1    
    19    9   10 ar   
    20    9   14 ar   
    21   10   11 ar   
    22   10  136 1    
    23   11   12 ar   
    24   11  126 1    
    25   12   13 ar   
    26   12  137 1    
    27   13   14 ar   
    28   13   15 1    
    29   14  138 1    
    30   15   16 1    
    31   15  139 1    
    32   15  140 1    
    33   16   17 1    
    34   17   18 1    
    35   17  141 1    
    36   17  142 1    
    37   18   19 1    
    38   18   67 1    
    39   18  143 1    
    40   19   20 am   BACKBONE|DICT|INTERRES
    41   19  144 1    
    42   20   21 2    
    43   20   22 1    
    44   22   23 1    
    45   22   24 1    
    46   22  145 1    
    47   23  146 1    
    48   23  147 1    
    49   23  148 1    
    50   24   25 am   BACKBONE|DICT|INTERRES
    51   24  149 1    
    52   25   26 2    
    53   25   27 1    
    54   27   28 1    
    55   27   29 1    
    56   27  150 1    
    57   28  151 1    
    58   28  152 1    
    59   28  153 1    
    60   29   30 am   BACKBONE|DICT|INTERRES
    61   29  154 1    
    62   30   31 2    
    63   30   32 1    
    64   32   33 1    
    65   32   34 1    
    66   32  155 1    
    67   33  156 1    
    68   33  157 1    
    69   33  158 1    
    70   34   35 am   BACKBONE|DICT|INTERRES
    71   34  159 1    
    72   35   36 2    
    73   35   37 1    
    74   37   38 1    
    75   37   39 1    
    76   37  160 1    
    77   38  161 1    
    78   38  162 1    
    79   38  163 1    
    80   39   40 am   BACKBONE|DICT|INTERRES
    81   39  164 1    
    82   40   41 2    
    83   40   42 1    
    84   42   43 1    
    85   42   44 1    
    86   42  165 1    
    87   43  166 1    
    88   43  167 1    
    89   43  168 1    
    90   44   45 am   BACKBONE|DICT|INTERRES
    91   44  169 1    
    92   45   46 2    
    93   45   47 1    
    94   47   48 1    
    95   47   49 1    
    96   47  170 1    
    97   48  171 1    
    98   48  172 1    
    99   48  173 1    
   100   49   50 am   BACKBONE|DICT|INTERRES
   101   49  174 1    
   102   50   51 2    
   103   50   52 1    
   104   52   53 1    
   105   52   54 1    
   106   52  175 1    
   107   53  176 1    
   108   53  177 1    
   109   53  178 1    
   110   54   55 am   BACKBONE|DICT|INTERRES
   111   54  179 1    
   112   55   56 2    
   113   55   57 1    
   114   57   58 1    
   115   57   59 1    
   116   57  180 1    
   117   58  181 1    
   118   58  182 1    
   119   58  183 1    
   120   59   60 am   BACKBONE|DICT|INTERRES
   121   59  184 1    
   122   60   61 2    
   123   60   62 1    
   124   62   63 1    
   125   62   64 1    
   126   62  185 1    
   127   63  186 1    
   128   63  187 1    
   129   63  188 1    
   130   64   65 am   BACKBONE|DICT|INTERRES
   131   64  189 1    
   132   65   66 2    
   133   67   68 2    
   134   67   69 am   BACKBONE|DICT|INTERRES
   135   69   70 1    
   136   69  190 1    
   137   70   71 1    
   138   70   72 1    
   139   70  191 1    
   140   71  192 1    
   141   71  193 1    
   142   71  194 1    
   143   72   73 2    
   144   72   74 am   BACKBONE|DICT|INTERRES
   145   74   75 1    
   146   74  195 1    
   147   75   76 1    
   148   75   77 1    
   149   75  196 1    
   150   76  197 1    
   151   76  198 1    
   152   76  199 1    
   153   77   78 2    
   154   77   79 am   BACKBONE|DICT|INTERRES
   155   79   80 1    
   156   79  200 1    
   157   80   81 1    
   158   80   82 1    
   159   80  201 1    
   160   81  202 1    
   161   81  203 1    
   162   81  204 1    
   163   82   83 2    
   164   82   84 am   BACKBONE|DICT|INTERRES
   165   84   85 1    
   166   84  205 1    
   167   85   86 1    
   168   85   87 1    
   169   85  206 1    
   170   86  207 1    
   171   86  208 1    
   172   86  209 1    
   173   87   88 2    
   174   87   89 am   BACKBONE|DICT|INTERRES
   175   89   90 1    
   176   89  210 1    
   177   90   91 1    
   178   90   92 1    
   179   90  211 1    
   180   91  212 1    
   181   91  213 1    
   182   91  214 1    
   183   92   93 2    
   184   92   94 am   BACKBONE|DICT|INTERRES
   185   94   95 1    
   186   94  215 1    
   187   95   96 1    
   188   95   97 1    
   189   95  216 1    
   190   96  217 1    
   191   96  218 1    
   192   96  219 1    
   193   97   98 2    
   194   97   99 am   BACKBONE|DICT|INTERRES
   195   99  100 1    
   196   99  220 1    
   197  100  101 1    
   198  100  102 1    
   199  100  221 1    
   200  101  222 1    
   201  101  223 1    
   202  101  224 1    
   203  102  103 2    
   204  102  104 am   BACKBONE|DICT|INTERRES
   205  104  105 1    
   206  104  225 1    
   207  105  106 1    
   208  105  107 1    
   209  105  226 1    
   210  106  227 1    
   211  106  228 1    
   212  106  229 1    
   213  107  108 2    
   214  107  109 am   BACKBONE|DICT|INTERRES
   215  109  110 1    
   216  109  230 1    
   217  110  111 1    
   218  110  112 1    
   219  110  231 1    
   220  111  232 1    
   221  111  233 1    
   222  111  234 1    
   223  112  113 2    
   224  112  114 am   BACKBONE|DICT|INTERRES
   225  114  115 1    
   226  114  235 1    
   227  115  116 1    
   228  115  117 1    
   229  115  236 1    
   230  116  237 1    
   231  116  238 1    
   232  116  239 1    
   233  117  118 2    
   234  117  119 am   BACKBONE|DICT|INTERRES
   235  119  120 1    
   236  119  240 1    
   237  120  121 1    
   238  120  124 1    
   239  120  241 1    
   240  121  122 am   BACKBONE|DICT|INTERRES
   241  121  123 2    
   242  122  242 1    
   243  122  243 1    
   244  124  125 1    
   245  124  244 1    
   246  124  245 1    
   247  125  126 1    
   248  126  246 1    
   249  126  247 1    
@<TRIPOS>SUBSTRUCTURE
     1 UNK         1 GROUP             0       ****    0 ROOT    
