@<TRIPOS>MOLECULE
3R540
247   249    1
SMALL
USER_CHARGES


@<TRIPOS>ATOM
      1 CA          4.5174  -14.9780  -48.1557 C.3       0 UNK        -0.1800 
      2 C           3.0902  -14.9789  -47.6295 C.2       0 UNK         0.5000 
      3 O           2.8769  -14.7893  -46.4327 O.2       0 UNK        -0.5000 
      4 N           2.1085  -15.1948  -48.5136 N.am      1 UNK        -0.5000 
      5 CA          0.6740  -15.2524  -48.2076 C.3       1 UNK         0.1400 
      6 C6         -0.1111  -16.0353  -49.2911 C.3       23 UNK        -0.0398 
      7 S7          0.2661  -17.8176  -49.2764 S.3       23 UNK        -0.2404 
      8 C8          1.4193  -17.9705  -50.6726 C.3       23 UNK        -0.0205 
      9 C9          1.7117  -19.4311  -50.9744 C.ar      23 UNK        -0.0193 
     10 C10         1.1275  -20.0568  -52.0790 C.ar      23 UNK        -0.1150 
     11 C11         1.3955  -21.4000  -52.3581 C.ar      23 UNK        -0.0193 
     12 C12         2.2424  -22.1229  -51.5128 C.ar      23 UNK        -0.1150 
     13 C13         2.8277  -21.5100  -50.4011 C.ar      23 UNK        -0.0193 
     14 C14         2.5691  -20.1600  -50.1460 C.ar      23 UNK        -0.1150 
     15 C15         3.7477  -22.3048  -49.4850 C.3       23 UNK        -0.0205 
     16 S16         2.8217  -23.3309  -48.2981 S.3       23 UNK        -0.2404 
     17 C17         2.1621  -22.0618  -47.1709 C.3       23 UNK        -0.0398 
     18 CA          1.0802  -22.5994  -46.1922 C.3       11 UNK         0.1400 
     19 N           1.2143  -21.9650  -44.8775 N.am      11 UNK        -0.5000 
     20 C           2.0271  -22.4095  -43.9081 C.2       10 UNK         0.5000 
     21 O           2.5473  -23.5264  -43.9063 O.2       10 UNK        -0.5000 
     22 CA          2.3556  -21.3922  -42.7940 C.3       10 UNK         0.1400 
     23 CB          3.4866  -21.8463  -41.8489 C.3       10 UNK        -0.1800 
     24 N           2.6330  -20.0669  -43.3603 N.am      10 UNK        -0.5000 
     25 C           3.5980  -19.7409  -44.2361 C.2       9 UNK         0.5000 
     26 O           4.5403  -20.4732  -44.5373 O.2       9 UNK        -0.5000 
     27 CA          3.4529  -18.3814  -44.9394 C.3       9 UNK         0.1400 
     28 CB          2.6731  -18.5553  -46.2543 C.3       9 UNK        -0.1800 
     29 N           2.7659  -17.4033  -44.0949 N.am      9 UNK        -0.5000 
     30 C           3.3975  -16.4924  -43.3430 C.2       8 UNK         0.5000 
     31 O           4.6219  -16.3675  -43.2918 O.2       8 UNK        -0.5000 
     32 CA          2.5073  -15.5832  -42.4796 C.3       8 UNK         0.1400 
     33 CB          1.7800  -14.5351  -43.3376 C.3       8 UNK        -0.1800 
     34 N           1.5254  -16.3373  -41.7023 N.am      8 UNK        -0.5000 
     35 C           1.8165  -17.1075  -40.6445 C.2       7 UNK         0.5000 
     36 O           2.9619  -17.3196  -40.2461 O.2       7 UNK        -0.5000 
     37 CA          0.6316  -17.7368  -39.8960 C.3       7 UNK         0.1400 
     38 CB         -0.0420  -16.6957  -38.9872 C.3       7 UNK        -0.1800 
     39 N          -0.3626  -18.2700  -40.8258 N.am      7 UNK        -0.5000 
     40 C          -0.6890  -19.5642  -40.9407 C.2       6 UNK         0.5000 
     41 O          -0.1836  -20.4611  -40.2658 O.2       6 UNK        -0.5000 
     42 CA         -1.7608  -19.9344  -41.9861 C.3       6 UNK         0.1400 
     43 CB         -3.1195  -20.1567  -41.3046 C.3       6 UNK        -0.1800 
     44 N          -1.9197  -18.9283  -43.0363 N.am      6 UNK        -0.5000 
     45 C          -1.0297  -18.6869  -44.0063 C.2       5 UNK         0.5000 
     46 O          -0.0051  -19.3488  -44.1653 O.2       5 UNK        -0.5000 
     47 CA         -1.3105  -17.4984  -44.9457 C.3       5 UNK         0.1400 
     48 CB         -1.8503  -18.0200  -46.2827 C.3       5 UNK        -0.1800 
     49 N          -2.2280  -16.4841  -44.4071 N.am      5 UNK        -0.5000 
     50 C          -2.0455  -15.7867  -43.2762 C.2       4 UNK         0.5000 
     51 O          -1.0975  -15.9814  -42.5140 O.2       4 UNK        -0.5000 
     52 CA         -3.0880  -14.7006  -42.9502 C.3       4 UNK         0.1400 
     53 CB         -2.8103  -14.0057  -41.6052 C.3       4 UNK        -0.1800 
     54 N          -3.1290  -13.6858  -43.9994 N.am      4 UNK        -0.5000 
     55 C          -3.7928  -13.7775  -45.1555 C.2       3 UNK         0.5000 
     56 O          -4.4670  -14.7581  -45.4700 O.2       3 UNK        -0.5000 
     57 CA         -3.6475  -12.6013  -46.1389 C.3       3 UNK         0.1400 
     58 CB         -4.3543  -11.3338  -45.6208 C.3       3 UNK        -0.1800 
     59 N          -2.2562  -12.3323  -46.5225 N.am      3 UNK        -0.5000 
     60 C          -1.2328  -11.8912  -45.7777 C.2       2 UNK         0.5000 
     61 O          -1.3307  -11.5870  -44.5870 O.2       2 UNK        -0.5000 
     62 CA          0.1372  -11.8317  -46.4874 C.3       2 UNK         0.1400 
     63 CB          1.2400  -11.2267  -45.6006 C.3       2 UNK        -0.1800 
     64 N           0.5713  -13.1579  -46.9313 N.am      2 UNK        -0.5000 
     65 C           0.0983  -13.8359  -47.9838 C.2       1 UNK         0.5000 
     66 O          -0.7538  -13.3794  -48.7489 O.2       1 UNK        -0.5000 
     67 C          -0.3530  -22.4702  -46.7538 C.2       11 UNK         0.5000 
     68 O          -0.5467  -22.6200  -47.9603 O.2       11 UNK        -0.5000 
     69 N          -1.3408  -22.1989  -45.8840 N.am      12 UNK        -0.5000 
     70 CA         -2.7382  -21.9202  -46.2447 C.3       12 UNK         0.1400 
     71 CB         -3.5606  -21.6492  -44.9780 C.3       12 UNK        -0.1800 
     72 C          -3.4297  -23.0052  -47.0911 C.2       12 UNK         0.5000 
     73 O          -4.2466  -22.6648  -47.9482 O.2       12 UNK        -0.5000 
     74 N          -3.0856  -24.2764  -46.8443 N.am      13 UNK        -0.5000 
     75 CA         -3.6080  -25.4329  -47.5718 C.3       13 UNK         0.1400 
     76 CB         -3.2360  -26.7216  -46.8225 C.3       13 UNK        -0.1800 
     77 C          -3.1152  -25.4815  -49.0287 C.2       13 UNK         0.5000 
     78 O          -3.9279  -25.6439  -49.9392 O.2       13 UNK        -0.5000 
     79 N          -1.8019  -25.2954  -49.2272 N.am      14 UNK        -0.5000 
     80 CA         -1.1636  -25.2401  -50.5468 C.3       14 UNK         0.1400 
     81 CB          0.3591  -25.3137  -50.3840 C.3       14 UNK        -0.1800 
     82 C          -1.5582  -23.9764  -51.3297 C.2       14 UNK         0.5000 
     83 O          -1.6888  -24.0298  -52.5517 O.2       14 UNK        -0.5000 
     84 N          -1.7945  -22.8823  -50.5951 N.am      15 UNK        -0.5000 
     85 CA         -2.3431  -21.6195  -51.0803 C.3       15 UNK         0.1400 
     86 CB         -2.0977  -20.5474  -50.0091 C.3       15 UNK        -0.1800 
     87 C          -3.8364  -21.6849  -51.4632 C.2       15 UNK         0.5000 
     88 O          -4.3607  -20.6708  -51.9214 O.2       15 UNK        -0.5000 
     89 N          -4.4920  -22.8394  -51.2680 N.am      16 UNK        -0.5000 
     90 CA         -5.8935  -23.1332  -51.5768 C.3       16 UNK         0.1400 
     91 CB         -6.1588  -23.0377  -53.0927 C.3       16 UNK        -0.1800 
     92 C          -6.8555  -22.2749  -50.7363 C.2       16 UNK         0.5000 
     93 O          -7.6435  -21.5004  -51.2808 O.2       16 UNK        -0.5000 
     94 N          -6.7386  -22.4237  -49.4100 N.am      17 UNK        -0.5000 
     95 CA         -7.4622  -21.6926  -48.3663 C.3       17 UNK         0.1400 
     96 CB         -8.9851  -21.9303  -48.4520 C.3       17 UNK        -0.1800 
     97 C          -7.0659  -20.2045  -48.3420 C.2       17 UNK         0.5000 
     98 O          -7.9293  -19.3272  -48.2897 O.2       17 UNK        -0.5000 
     99 N          -5.7458  -19.9667  -48.3831 N.am      18 UNK        -0.5000 
    100 CA        -5.0768  -18.6610  -48.3111 C.3       18 UNK         0.1400 
    101 CB        -5.3745  -17.9712  -46.9627 C.3       18 UNK        -0.1800 
    102 C         -5.3422  -17.7300  -49.5162 C.2       18 UNK         0.5000 
    103 O         -5.1223  -16.5229  -49.4101 O.2       18 UNK        -0.5000 
    104 N         -5.7764  -18.2946  -50.6514 N.am      19 UNK        -0.5000 
    105 CA        -6.0080  -17.5706  -51.9051 C.3       19 UNK         0.1400 
    106 CB        -6.9329  -18.4145  -52.7967 C.3       19 UNK        -0.1800 
    107 C         -4.7056  -17.2280  -52.6585 C.2       19 UNK         0.5000 
    108 O         -4.7244  -16.3595  -53.5309 O.2       19 UNK        -0.5000 
    109 N         -3.6194  -17.9396  -52.3225 N.am      20 UNK        -0.5000 
    110 CA        -2.3019  -17.9562  -52.9688 C.3       20 UNK         0.1400 
    111 CB        -1.6411  -16.5629  -52.9530 C.3       20 UNK        -0.1800 
    112 C         -2.3415  -18.5974  -54.3726 C.2       20 UNK         0.5000 
    113 O         -1.4890  -18.3025  -55.2113 O.2       20 UNK        -0.5000 
    114 N         -3.3290  -19.4719  -54.6012 N.am      21 UNK        -0.5000 
    115 CA        -3.5771  -20.1507  -55.8669 C.3       21 UNK         0.1400 
    116 CB        -5.0961  -20.1961  -56.1098 C.3       21 UNK        -0.1800 
    117 C         -2.9402  -21.5481  -55.8281 C.2       21 UNK         0.5000 
    118 O         -3.6232  -22.5294  -55.5320 O.2       21 UNK        -0.5000 
    119 N         -1.6300  -21.6018  -56.0945 N.am      22 UNK        -0.5000 
    120 CA        -0.8393  -22.8398  -56.1847 C.3       22 UNK         0.1400 
    121 C         -1.3273  -23.7911  -57.3149 C.2       22 UNK         0.5000 
    122 N         -1.3337  -25.0961  -57.0793 N.am      22 UNK        -0.7600 
    123 O         -1.6537  -23.3584  -58.4183 O.2       22 UNK        -0.5000 
    124 C124        0.6741  -22.5432  -56.3697 C.3       23 UNK        -0.0398 
    125 S125        1.4419  -21.4431  -55.1266 S.3       23 UNK        -0.2404 
    126 C126        0.7579  -22.0708  -53.5635 C.3       23 UNK        -0.0205 
    127 H127        4.5551  -15.1763  -49.2270 H         1 UNK         0.0600 
    128 H128        4.9844  -14.0109  -47.9701 H         1 UNK         0.0600 
    129 H129        5.1021  -15.7442  -47.6466 H         1 UNK         0.0600 
    130 H130        2.3472  -15.3092  -49.4873 H         1 UNK         0.3000 
    131 H131        0.5463  -15.7863  -47.2631 H         1 UNK         0.0600 
    132 H132       -1.1865  -15.9512  -49.1230 H         1 UNK         0.0800 
    133 H133        0.0714  -15.6172  -50.2820 H         1 UNK         0.0800 
    134 H134        1.0005  -17.4791  -51.5513 H         1 UNK         0.0800 
    135 H135        2.3497  -17.4529  -50.4368 H         1 UNK         0.0800 
    136 H136        0.4736  -19.4989  -52.7330 H         1 UNK         0.1150 
    137 H137        2.4456  -23.1651  -51.7149 H         1 UNK         0.1150 
    138 H138        3.0219  -19.6759  -49.2930 H         1 UNK         0.1150 
    139 H139        4.3835  -22.9543  -50.0882 H         1 UNK         0.0800 
    140 H140        4.4216  -21.6393  -48.9430 H         1 UNK         0.0800 
    141 H141        3.0236  -21.6838  -46.6195 H         1 UNK         0.0800 
    142 H142        1.7838  -21.2114  -47.7389 H         1 UNK         0.0800 
    143 H143        1.2275  -23.6736  -46.0636 H         1 UNK         0.0600 
    144 H144        0.8201  -21.0327  -44.7835 H         1 UNK         0.3000 
    145 H145        1.4491  -21.2936  -42.1986 H         1 UNK         0.0600 
    146 H146        3.6819  -21.0957  -41.0829 H         1 UNK         0.0600 
    147 H147        3.2167  -22.7703  -41.3366 H         1 UNK         0.0600 
    148 H148        4.4183  -22.0306  -42.3841 H         1 UNK         0.0600 
    149 H149        1.8764  -19.4047  -43.2546 H         1 UNK         0.3000 
    150 H150        4.4531  -18.0227  -45.1920 H         1 UNK         0.0600 
    151 H151        3.2294  -19.1845  -46.9486 H         1 UNK         0.0600 
    152 H152        2.5069  -17.6018  -46.7499 H         1 UNK         0.0600 
    153 H153        1.6988  -19.0184  -46.1021 H         1 UNK         0.0600 
    154 H154        1.7592  -17.4412  -44.0708 H         1 UNK         0.3000 
    155 H155        3.1539  -15.0500  -41.7793 H         1 UNK         0.0600 
    156 H156        1.1224  -14.9961  -44.0753 H         1 UNK         0.0600 
    157 H157        2.4967  -13.9156  -43.8774 H         1 UNK         0.0600 
    158 H158        1.1745  -13.8697  -42.7219 H         1 UNK         0.0600 
    159 H159        0.5497  -16.1901  -41.9540 H         1 UNK         0.3000 
    160 H160        1.0317  -18.5292  -39.2601 H         1 UNK         0.0600 
    161 H161       -0.8414  -17.1475  -38.3999 H         1 UNK         0.0600 
    162 H162       -0.4735  -15.8752  -39.5624 H         1 UNK         0.0600 
    163 H163        0.6744  -16.2661  -38.2858 H         1 UNK         0.0600 
    164 H164       -0.8106  -17.5954  -41.4365 H         1 UNK         0.3000 
    165 H165       -1.4537  -20.8731  -42.4520 H         1 UNK         0.0600 
    166 H166       -3.8732  -20.4849  -42.0203 H         1 UNK         0.0600 
    167 H167       -3.0494  -20.9258  -40.5343 H         1 UNK         0.0600 
    168 H168       -3.4833  -19.2461  -40.8269 H         1 UNK         0.0600 
    169 H169       -2.7376  -18.3399  -42.9811 H         1 UNK         0.3000 
    170 H170       -0.3556  -17.0044  -45.1335 H         1 UNK         0.0600 
    171 H171       -1.1396  -18.7026  -46.7509 H         1 UNK         0.0600 
    172 H172       -2.7790  -18.5704  -46.1433 H         1 UNK         0.0600 
    173 H173       -2.0355  -17.2080  -46.9859 H         1 UNK         0.0600 
    174 H174       -3.0342  -16.2456  -44.9739 H         1 UNK         0.3000 
    175 H175       -4.0618  -15.1895  -42.8807 H         1 UNK         0.0600 
    176 H176       -1.8485  -13.4907  -41.6093 H         1 UNK         0.0600 
    177 H177       -3.5819  -13.2708  -41.3753 H         1 UNK         0.0600 
    178 H178       -2.7948  -14.7263  -40.7865 H         1 UNK         0.0600 
    179 H179       -2.5271  -12.8754  -43.8768 H         1 UNK         0.3000 
    180 H180       -4.1529  -12.8999  -47.0587 H         1 UNK         0.0600 
    181 H181       -3.9182  -10.9671  -44.6914 H         1 UNK         0.0600 
    182 H182       -5.4094  -11.5312  -45.4274 H         1 UNK         0.0600 
    183 H183       -4.3038  -10.5289  -46.3539 H         1 UNK         0.0600 
    184 H184       -2.0189  -12.6054  -47.4724 H         1 UNK         0.3000 
    185 H185        0.0239  -11.1884  -47.3625 H         1 UNK         0.0600 
    186 H186        0.9765  -10.2168  -45.2839 H         1 UNK         0.0600 
    187 H187        1.4058  -11.8204  -44.7013 H         1 UNK         0.0600 
    188 H188        2.1865  -11.1616  -46.1376 H         1 UNK         0.0600 
    189 H189        1.3092  -13.6000  -46.3909 H         1 UNK         0.3000 
    190 H190       -1.1036  -22.1264  -44.9059 H         1 UNK         0.3000 
    191 H191       -2.7372  -21.0048  -46.8367 H         1 UNK         0.0600 
    192 H192       -3.5044  -22.4787  -44.2723 H         1 UNK         0.0600 
    193 H193       -4.6134  -21.4906  -45.2174 H         1 UNK         0.0600 
    194 H194       -3.2158  -20.7512  -44.4732 H         1 UNK         0.0600 
    195 H195       -2.4068  -24.4577  -46.1200 H         1 UNK         0.3000 
    196 H196       -4.6974  -25.3567  -47.5919 H         1 UNK         0.0600 
    197 H197       -3.6229  -27.5997  -47.3413 H         1 UNK         0.0600 
    198 H198       -3.6581  -26.7277  -45.8174 H         1 UNK         0.0600 
    199 H199       -2.1558  -26.8422  -46.7332 H         1 UNK         0.0600 
    200 H200       -1.2112  -25.1045  -48.4311 H         1 UNK         0.3000 
    201 H201       -1.4904  -26.1087  -51.1222 H         1 UNK         0.0600 
    202 H202        0.6611  -26.2086  -49.8400 H         1 UNK         0.0600 
    203 H203        0.7345  -24.4456  -49.8449 H         1 UNK         0.0600 
    204 H204        0.8557  -25.3357  -51.3547 H         1 UNK         0.0600 
    205 H205       -1.5710  -22.9177  -49.6044 H         1 UNK         0.3000 
    206 H206       -1.8001  -21.3280  -51.9783 H         1 UNK         0.0600 
    207 H207       -2.4169  -19.5599  -50.3367 H         1 UNK         0.0600 
    208 H208       -1.0380  -20.4797  -49.7620 H         1 UNK         0.0600 
    209 H209       -2.6374  -20.7749  -49.0935 H         1 UNK         0.0600 
    210 H210       -3.9769  -23.6073  -50.8570 H         1 UNK         0.3000 
    211 H211       -6.0618  -24.1702  -51.2825 H         1 UNK         0.0600 
    212 H212       -6.0559  -22.0169  -53.4581 H         1 UNK         0.0600 
    213 H213       -7.1696  -23.3686  -53.3326 H         1 UNK         0.0600 
    214 H214       -5.4669  -23.6652  -53.6546 H         1 UNK         0.0600 
    215 H215       -5.9798  -23.0029  -49.0677 H         1 UNK         0.3000 
    216 H216       -7.1238  -22.1099  -47.4167 H         1 UNK         0.0600 
    217 H217       -9.4930  -21.5004  -47.5880 H         1 UNK         0.0600 
    218 H218       -9.2175  -22.9951  -48.4680 H         1 UNK         0.0600 
    219 H219       -9.4223  -21.4773  -49.3420 H         1 UNK         0.0600 
    220 H220       -5.1384  -20.7771  -48.4322 H         1 UNK         0.3000 
    221 H221       -4.0081  -18.8734  -48.3362 H         1 UNK         0.0600 
    222 H222       -6.4063  -17.6243  -46.9026 H         1 UNK         0.0600 
    223 H223       -5.1991  -18.6438  -46.1231 H         1 UNK         0.0600 
    224 H224       -4.7352  -17.0999  -46.8212 H         1 UNK         0.0600 
    225 H225       -5.9200  -19.2956  -50.6788 H         1 UNK         0.3000 
    226 H226       -6.5164  -16.6310  -51.6789 H         1 UNK         0.0600 
    227 H227       -7.8810  -18.6190  -52.2989 H         1 UNK         0.0600 
    228 H228       -7.1595  -17.8966  -53.7295 H         1 UNK         0.0600 
    229 H229       -6.4805  -19.3726  -53.0554 H         1 UNK         0.0600 
    230 H230       -3.7848  -18.6914  -51.6650 H         1 UNK         0.3000 
    231 H231       -1.6797  -18.6118  -52.3608 H         1 UNK         0.0600 
    232 H232       -1.6631  -16.1289  -51.9539 H         1 UNK         0.0600 
    233 H233       -2.1374  -15.8689  -53.6314 H         1 UNK         0.0600 
    234 H234       -0.5969  -16.6231  -53.2607 H         1 UNK         0.0600 
    235 H235       -3.9384  -19.7227  -53.8314 H         1 UNK         0.3000 
    236 H236       -3.1299  -19.5946  -56.6938 H         1 UNK         0.0600 
    237 H237       -5.3273  -20.7229  -57.0364 H         1 UNK         0.0600 
    238 H238       -5.6236  -20.7027  -55.3025 H         1 UNK         0.0600 
    239 H239       -5.5089  -19.1907  -56.1947 H         1 UNK         0.0600 
    240 H240       -1.1373  -20.7435  -56.2976 H         1 UNK         0.3000 
    241 H241       -0.9763  -23.3714  -55.2419 H         1 UNK         0.0600 
    242 H242       -1.6323  -25.7239  -57.8098 H         1 UNK         0.3800 
    243 H243       -1.0709  -25.4738  -56.1819 H         1 UNK         0.3800 
    244 H244        1.2382  -23.4776  -56.3643 H         1 UNK         0.0800 
    245 H245        0.8505  -22.0954  -57.3494 H         1 UNK         0.0800 
    246 H246        0.8908  -23.1527  -53.5163 H         1 UNK         0.0800 
    247 H247       -0.3142  -21.8843  -53.5469 H         1 UNK         0.0800 
@<TRIPOS>BOND
     1    1    2 1    
     2    1  127 1    
     3    1  128 1    
     4    1  129 1    
     5    2    3 2    
     6    2    4 am   BACKBONE|DICT|INTERRES
     7    4    5 1    
     8    4  130 1    
     9    5    6 1    
    10    5   65 1    
    11    5  131 1    
    12    6    7 1    
    13    6  132 1    
    14    6  133 1    
    15    7    8 1    
    16    8    9 1    
    17    8  134 1    
    18    8  135 1    
    19    9   10 ar   
    20    9   14 ar   
    21   10   11 ar   
    22   10  136 1    
    23   11   12 ar   
    24   11  126 1    
    25   12   13 ar   
    26   12  137 1    
    27   13   14 ar   
    28   13   15 1    
    29   14  138 1    
    30   15   16 1    
    31   15  139 1    
    32   15  140 1    
    33   16   17 1    
    34   17   18 1    
    35   17  141 1    
    36   17  142 1    
    37   18   19 1    
    38   18   67 1    
    39   18  143 1    
    40   19   20 am   BACKBONE|DICT|INTERRES
    41   19  144 1    
    42   20   21 2    
    43   20   22 1    
    44   22   23 1    
    45   22   24 1    
    46   22  145 1    
    47   23  146 1    
    48   23  147 1    
    49   23  148 1    
    50   24   25 am   BACKBONE|DICT|INTERRES
    51   24  149 1    
    52   25   26 2    
    53   25   27 1    
    54   27   28 1    
    55   27   29 1    
    56   27  150 1    
    57   28  151 1    
    58   28  152 1    
    59   28  153 1    
    60   29   30 am   BACKBONE|DICT|INTERRES
    61   29  154 1    
    62   30   31 2    
    63   30   32 1    
    64   32   33 1    
    65   32   34 1    
    66   32  155 1    
    67   33  156 1    
    68   33  157 1    
    69   33  158 1    
    70   34   35 am   BACKBONE|DICT|INTERRES
    71   34  159 1    
    72   35   36 2    
    73   35   37 1    
    74   37   38 1    
    75   37   39 1    
    76   37  160 1    
    77   38  161 1    
    78   38  162 1    
    79   38  163 1    
    80   39   40 am   BACKBONE|DICT|INTERRES
    81   39  164 1    
    82   40   41 2    
    83   40   42 1    
    84   42   43 1    
    85   42   44 1    
    86   42  165 1    
    87   43  166 1    
    88   43  167 1    
    89   43  168 1    
    90   44   45 am   BACKBONE|DICT|INTERRES
    91   44  169 1    
    92   45   46 2    
    93   45   47 1    
    94   47   48 1    
    95   47   49 1    
    96   47  170 1    
    97   48  171 1    
    98   48  172 1    
    99   48  173 1    
   100   49   50 am   BACKBONE|DICT|INTERRES
   101   49  174 1    
   102   50   51 2    
   103   50   52 1    
   104   52   53 1    
   105   52   54 1    
   106   52  175 1    
   107   53  176 1    
   108   53  177 1    
   109   53  178 1    
   110   54   55 am   BACKBONE|DICT|INTERRES
   111   54  179 1    
   112   55   56 2    
   113   55   57 1    
   114   57   58 1    
   115   57   59 1    
   116   57  180 1    
   117   58  181 1    
   118   58  182 1    
   119   58  183 1    
   120   59   60 am   BACKBONE|DICT|INTERRES
   121   59  184 1    
   122   60   61 2    
   123   60   62 1    
   124   62   63 1    
   125   62   64 1    
   126   62  185 1    
   127   63  186 1    
   128   63  187 1    
   129   63  188 1    
   130   64   65 am   BACKBONE|DICT|INTERRES
   131   64  189 1    
   132   65   66 2    
   133   67   68 2    
   134   67   69 am   BACKBONE|DICT|INTERRES
   135   69   70 1    
   136   69  190 1    
   137   70   71 1    
   138   70   72 1    
   139   70  191 1    
   140   71  192 1    
   141   71  193 1    
   142   71  194 1    
   143   72   73 2    
   144   72   74 am   BACKBONE|DICT|INTERRES
   145   74   75 1    
   146   74  195 1    
   147   75   76 1    
   148   75   77 1    
   149   75  196 1    
   150   76  197 1    
   151   76  198 1    
   152   76  199 1    
   153   77   78 2    
   154   77   79 am   BACKBONE|DICT|INTERRES
   155   79   80 1    
   156   79  200 1    
   157   80   81 1    
   158   80   82 1    
   159   80  201 1    
   160   81  202 1    
   161   81  203 1    
   162   81  204 1    
   163   82   83 2    
   164   82   84 am   BACKBONE|DICT|INTERRES
   165   84   85 1    
   166   84  205 1    
   167   85   86 1    
   168   85   87 1    
   169   85  206 1    
   170   86  207 1    
   171   86  208 1    
   172   86  209 1    
   173   87   88 2    
   174   87   89 am   BACKBONE|DICT|INTERRES
   175   89   90 1    
   176   89  210 1    
   177   90   91 1    
   178   90   92 1    
   179   90  211 1    
   180   91  212 1    
   181   91  213 1    
   182   91  214 1    
   183   92   93 2    
   184   92   94 am   BACKBONE|DICT|INTERRES
   185   94   95 1    
   186   94  215 1    
   187   95   96 1    
   188   95   97 1    
   189   95  216 1    
   190   96  217 1    
   191   96  218 1    
   192   96  219 1    
   193   97   98 2    
   194   97   99 am   BACKBONE|DICT|INTERRES
   195   99  100 1    
   196   99  220 1    
   197  100  101 1    
   198  100  102 1    
   199  100  221 1    
   200  101  222 1    
   201  101  223 1    
   202  101  224 1    
   203  102  103 2    
   204  102  104 am   BACKBONE|DICT|INTERRES
   205  104  105 1    
   206  104  225 1    
   207  105  106 1    
   208  105  107 1    
   209  105  226 1    
   210  106  227 1    
   211  106  228 1    
   212  106  229 1    
   213  107  108 2    
   214  107  109 am   BACKBONE|DICT|INTERRES
   215  109  110 1    
   216  109  230 1    
   217  110  111 1    
   218  110  112 1    
   219  110  231 1    
   220  111  232 1    
   221  111  233 1    
   222  111  234 1    
   223  112  113 2    
   224  112  114 am   BACKBONE|DICT|INTERRES
   225  114  115 1    
   226  114  235 1    
   227  115  116 1    
   228  115  117 1    
   229  115  236 1    
   230  116  237 1    
   231  116  238 1    
   232  116  239 1    
   233  117  118 2    
   234  117  119 am   BACKBONE|DICT|INTERRES
   235  119  120 1    
   236  119  240 1    
   237  120  121 1    
   238  120  124 1    
   239  120  241 1    
   240  121  122 am   BACKBONE|DICT|INTERRES
   241  121  123 2    
   242  122  242 1    
   243  122  243 1    
   244  124  125 1    
   245  124  244 1    
   246  124  245 1    
   247  125  126 1    
   248  126  246 1    
   249  126  247 1    
@<TRIPOS>SUBSTRUCTURE
     1 UNK         1 GROUP             0       ****    0 ROOT    
