@<TRIPOS>MOLECULE
3R540
247   249    1
SMALL
USER_CHARGES


@<TRIPOS>ATOM
      1 CA         -0.1497  -10.3607  -48.8105 C.3       0 UNK        -0.1800 
      2 C          -0.2910  -11.7773  -48.2728 C.2       0 UNK         0.5000 
      3 O           0.0384  -12.0298  -47.1135 O.2       0 UNK        -0.5000 
      4 N          -0.7911  -12.7023  -49.1021 N.am      1 UNK        -0.5000 
      5 CA         -1.0123  -14.1168  -48.7768 C.3       1 UNK         0.1400 
      6 C6         -0.9510  -14.9955  -50.0540 C.3       23 UNK        -0.0398 
      7 S7         -0.5646  -16.7446  -49.6965 S.3       23 UNK        -0.2404 
      8 C8          0.7345  -17.0855  -50.9229 C.3       23 UNK        -0.0205 
      9 C9          1.0503  -18.5708  -51.0004 C.ar      23 UNK        -0.0193 
     10 C10         0.2561  -19.4195  -51.7774 C.ar      23 UNK        -0.1150 
     11 C11         0.5232  -20.7903  -51.8433 C.ar      23 UNK        -0.0193 
     12 C12         1.6023  -21.3076  -51.1178 C.ar      23 UNK        -0.1150 
     13 C13         2.4050  -20.4722  -50.3323 C.ar      23 UNK        -0.0193 
     14 C14         2.1287  -19.1018  -50.2882 C.ar      23 UNK        -0.1150 
     15 C15         3.5655  -21.0581  -49.5320 C.3       23 UNK        -0.0205 
     16 S16         3.5184  -20.6321  -47.7555 S.3       23 UNK        -0.2404 
     17 C17         1.9218  -21.3362  -47.2255 C.3       23 UNK        -0.0398 
     18 CA          2.0671  -22.6197  -46.3706 C.3       11 UNK         0.1400 
     19 N           2.7459  -22.3567  -45.1045 N.am      11 UNK        -0.5000 
     20 C           3.4717  -23.2388  -44.4096 C.2       10 UNK         0.5000 
     21 O           3.7375  -24.3717  -44.8165 O.2       10 UNK        -0.5000 
     22 CA          3.9617  -22.7729  -43.0203 C.3       10 UNK         0.1400 
     23 CB          5.1380  -23.6079  -42.4726 C.3       10 UNK        -0.1800 
     24 N           4.2562  -21.3369  -42.9737 N.am      10 UNK        -0.5000 
     25 C           5.2129  -20.6687  -43.6350 C.2       9 UNK         0.5000 
     26 O           6.0780  -21.2097  -44.3247 O.2       9 UNK        -0.5000 
     27 CA          5.1971  -19.1287  -43.5271 C.3       9 UNK         0.1400 
     28 CB          4.7724  -18.5050  -44.8660 C.3       9 UNK        -0.1800 
     29 N           4.3139  -18.6193  -42.4748 N.am      9 UNK        -0.5000 
     30 C           4.5856  -18.6385  -41.1632 C.2       8 UNK         0.5000 
     31 O           5.6457  -19.0508  -40.6912 O.2       8 UNK        -0.5000 
     32 CA          3.4735  -18.1419  -40.2178 C.3       8 UNK         0.1400 
     33 CB          3.5224  -16.6135  -40.0718 C.3       8 UNK        -0.1800 
     34 N           2.1328  -18.5504  -40.6456 N.am      8 UNK        -0.5000 
     35 C           1.7017  -19.8200  -40.6819 C.2       7 UNK         0.5000 
     36 O           2.3799  -20.7827  -40.3231 O.2       7 UNK        -0.5000 
     37 CA          0.2962  -20.0656  -41.2617 C.3       7 UNK         0.1400 
     38 CB         -0.7869  -19.7974  -40.2065 C.3       7 UNK        -0.1800 
     39 N           0.0264  -19.2709  -42.4602 N.am      7 UNK        -0.5000 
     40 C           0.7194  -19.3668  -43.6040 C.2       6 UNK         0.5000 
     41 O           1.6489  -20.1511  -43.7791 O.2       6 UNK        -0.5000 
     42 CA          0.3541  -18.3836  -44.7255 C.3       6 UNK         0.1400 
     43 CB         -0.9477  -18.8110  -45.4160 C.3       6 UNK        -0.1800 
     44 N           0.2283  -17.0127  -44.2407 N.am      6 UNK        -0.5000 
     45 C           1.2038  -16.3065  -43.6535 C.2       5 UNK         0.5000 
     46 O           2.3542  -16.7154  -43.5034 O.2       5 UNK        -0.5000 
     47 CA          0.8059  -14.9356  -43.0834 C.3       5 UNK         0.1400 
     48 CB          0.7587  -13.8691  -44.1884 C.3       5 UNK        -0.1800 
     49 N          -0.4828  -14.9916  -42.3923 N.am      5 UNK        -0.5000 
     50 C          -0.6979  -15.6478  -41.2430 C.2       4 UNK         0.5000 
     51 O           0.1807  -16.2454  -40.6210 O.2       4 UNK        -0.5000 
     52 CA         -2.1474  -15.6674  -40.7231 C.3       4 UNK         0.1400 
     53 CB         -2.4655  -14.3765  -39.9539 C.3       4 UNK        -0.1800 
     54 N          -3.1258  -15.8467  -41.7978 N.am      4 UNK        -0.5000 
     55 C          -3.2699  -16.9782  -42.5017 C.2       3 UNK         0.5000 
     56 O          -2.6176  -17.9999  -42.2914 O.2       3 UNK        -0.5000 
     57 CA         -4.2720  -16.9462  -43.6725 C.3       3 UNK         0.1400 
     58 CB         -5.6905  -17.2758  -43.1861 C.3       3 UNK        -0.1800 
     59 N          -4.2838  -15.6751  -44.4063 N.am      3 UNK        -0.5000 
     60 C          -3.2197  -15.1712  -45.0447 C.2       2 UNK         0.5000 
     61 O          -2.1098  -15.7053  -45.0294 O.2       2 UNK        -0.5000 
     62 CA         -3.4043  -13.8278  -45.7721 C.3       2 UNK         0.1400 
     63 CB         -3.3107  -12.6644  -44.7726 C.3       2 UNK        -0.1800 
     64 N          -2.3714  -13.6472  -46.7908 N.am      2 UNK        -0.5000 
     65 C          -2.3134  -14.3021  -47.9566 C.2       1 UNK         0.5000 
     66 O          -3.2372  -14.9953  -48.3866 O.2       1 UNK        -0.5000 
     67 C           0.6686  -23.1986  -46.0840 C.2       11 UNK         0.5000 
     68 O           0.0467  -22.8530  -45.0766 O.2       11 UNK        -0.5000 
     69 N           0.1593  -24.0082  -47.0210 N.am      12 UNK        -0.5000 
     70 CA         -1.2096  -24.5362  -47.0030 C.3       12 UNK         0.1400 
     71 CB         -1.2823  -25.7509  -47.9412 C.3       12 UNK        -0.1800 
     72 C          -2.2736  -23.4925  -47.4040 C.2       12 UNK         0.5000 
     73 O          -3.4662  -23.7671  -47.2732 O.2       12 UNK        -0.5000 
     74 N          -1.8341  -22.3272  -47.9019 N.am      13 UNK        -0.5000 
     75 CA         -2.6241  -21.2437  -48.4982 C.3       13 UNK         0.1400 
     76 CB         -1.6673  -20.1230  -48.9120 C.3       13 UNK        -0.1800 
     77 C          -3.7734  -20.6785  -47.6430 C.2       13 UNK         0.5000 
     78 O          -4.7002  -20.0911  -48.2006 O.2       13 UNK        -0.5000 
     79 N          -3.7340  -20.9086  -46.3234 N.am      14 UNK        -0.5000 
     80 CA         -4.8375  -20.6366  -45.3996 C.3       14 UNK         0.1400 
     81 CB         -4.3643  -20.9093  -43.9636 C.3       14 UNK        -0.1800 
     82 C          -6.1146  -21.4464  -45.7188 C.2       14 UNK         0.5000 
     83 O          -7.2126  -20.9772  -45.4177 O.2       14 UNK        -0.5000 
     84 N          -5.9486  -22.6230  -46.3396 N.am      15 UNK        -0.5000 
     85 CA         -7.0244  -23.4679  -46.8565 C.3       15 UNK         0.1400 
     86 CB         -6.9432  -24.8469  -46.1833 C.3       15 UNK        -0.1800 
     87 C          -6.9392  -23.6152  -48.3873 C.2       15 UNK         0.5000 
     88 O          -7.9779  -23.6572  -49.0466 O.2       15 UNK        -0.5000 
     89 N          -5.7153  -23.6952  -48.9306 N.am      16 UNK        -0.5000 
     90 CA         -5.4385  -23.9531  -50.3476 C.3       16 UNK         0.1400 
     91 CB         -4.0352  -24.5693  -50.4811 C.3       16 UNK        -0.1800 
     92 C          -5.5796  -22.7248  -51.2695 C.2       16 UNK         0.5000 
     93 O          -5.4658  -22.8975  -52.4821 O.2       16 UNK        -0.5000 
     94 N          -5.8232  -21.5379  -50.6958 N.am      17 UNK        -0.5000 
     95 CA         -5.9460  -20.2207  -51.3338 C.3       17 UNK         0.1400 
     96 CB         -6.9492  -20.2326  -52.5082 C.3       17 UNK        -0.1800 
     97 C          -4.5918  -19.5948  -51.7288 C.2       17 UNK         0.5000 
     98 O          -3.5476  -20.2449  -51.6592 O.2       17 UNK        -0.5000 
     99 N          -4.6525  -18.3033  -52.0805 N.am      18 UNK        -0.5000 
    100 CA        -3.5212  -17.4233  -52.3793 C.3       18 UNK         0.1400 
    101 CB        -4.0507  -15.9792  -52.4373 C.3       18 UNK        -0.1800 
    102 C         -2.7565  -17.7792  -53.6711 C.2       18 UNK         0.5000 
    103 O         -3.1805  -18.6481  -54.4342 O.2       18 UNK        -0.5000 
    104 N         -1.6359  -17.0740  -53.8931 N.am      19 UNK        -0.5000 
    105 CA        -0.7179  -17.2383  -55.0244 C.3       19 UNK         0.1400 
    106 CB         0.3758  -16.1606  -54.9570 C.3       19 UNK        -0.1800 
    107 C         -1.4232  -17.1947  -56.3926 C.2       19 UNK         0.5000 
    108 O         -2.2652  -16.3236  -56.6193 O.2       19 UNK        -0.5000 
    109 N         -1.0726  -18.1592  -57.2537 N.am      20 UNK        -0.5000 
    110 CA        -1.6444  -18.4525  -58.5758 C.3       20 UNK         0.1400 
    111 CB        -1.5712  -17.2324  -59.5171 C.3       20 UNK        -0.1800 
    112 C         -3.0596  -19.0726  -58.5425 C.2       20 UNK         0.5000 
    113 O         -3.5409  -19.5022  -59.5919 O.2       20 UNK        -0.5000 
    114 N         -3.6839  -19.1583  -57.3603 N.am      21 UNK        -0.5000 
    115 CA        -4.9609  -19.8311  -57.1169 C.3       21 UNK         0.1400 
    116 CB        -5.9350  -18.8292  -56.4705 C.3       21 UNK        -0.1800 
    117 C         -4.7819  -21.0853  -56.2363 C.2       21 UNK         0.5000 
    118 O         -5.7857  -21.7040  -55.8828 O.2       21 UNK        -0.5000 
    119 N         -3.5262  -21.4275  -55.9034 N.am      22 UNK        -0.5000 
    120 CA        -3.0981  -22.5431  -55.0455 C.3       22 UNK         0.1400 
    121 C         -3.7233  -23.9079  -55.4542 C.2       22 UNK         0.5000 
    122 N         -4.5790  -24.4808  -54.6214 N.am      22 UNK        -0.7600 
    123 O         -3.4091  -24.4611  -56.5060 O.2       22 UNK        -0.5000 
    124 C124       -1.5502  -22.6687  -55.0068 C.3       23 UNK        -0.0398 
    125 S125       -0.6846  -21.2013  -54.3462 S.3       23 UNK        -0.2404 
    126 C126       -0.3945  -21.7281  -52.6230 C.3       23 UNK        -0.0205 
    127 H127       -0.4789  -10.2852  -49.8471 H         1 UNK         0.0600 
    128 H128        0.8918  -10.0432  -48.7603 H         1 UNK         0.0600 
    129 H129       -0.7465   -9.6718  -48.2127 H         1 UNK         0.0600 
    130 H130       -1.0788  -12.4192  -50.0281 H         1 UNK         0.3000 
    131 H131       -0.1913  -14.4337  -48.1290 H         1 UNK         0.0600 
    132 H132       -1.8794  -14.9381  -50.6228 H         1 UNK         0.0800 
    133 H133       -0.1754  -14.6112  -50.7180 H         1 UNK         0.0800 
    134 H134        1.6306  -16.5162  -50.6710 H         1 UNK         0.0800 
    135 H135        0.4083  -16.7344  -51.8999 H         1 UNK         0.0800 
    136 H136       -0.5944  -19.0229  -52.3083 H         1 UNK         0.1150 
    137 H137        1.8071  -22.3685  -51.1495 H         1 UNK         0.1150 
    138 H138        2.7432  -18.4517  -49.6813 H         1 UNK         0.1150 
    139 H139        3.5938  -22.1446  -49.6280 H         1 UNK         0.0800 
    140 H140        4.5007  -20.6892  -49.9548 H         1 UNK         0.0800 
    141 H141        1.3141  -21.5307  -48.1094 H         1 UNK         0.0800 
    142 H142        1.3918  -20.5641  -46.6668 H         1 UNK         0.0800 
    143 H143        2.6390  -23.3550  -46.9409 H         1 UNK         0.0600 
    144 H144        2.4931  -21.4829  -44.6461 H         1 UNK         0.3000 
    145 H145        3.1177  -22.9203  -42.3449 H         1 UNK         0.0600 
    146 H146        5.4557  -23.2462  -41.4946 H         1 UNK         0.0600 
    147 H147        4.8510  -24.6532  -42.3534 H         1 UNK         0.0600 
    148 H148        6.0011  -23.5822  -43.1380 H         1 UNK         0.0600 
    149 H149        3.5784  -20.7791  -42.4706 H         1 UNK         0.3000 
    150 H150        6.2174  -18.8065  -43.3099 H         1 UNK         0.0600 
    151 H151        5.4218  -18.8339  -45.6782 H         1 UNK         0.0600 
    152 H152        4.8237  -17.4168  -44.8290 H         1 UNK         0.0600 
    153 H153        3.7514  -18.7828  -45.1303 H         1 UNK         0.0600 
    154 H154        3.4427  -18.1982  -42.7849 H         1 UNK         0.3000 
    155 H155        3.6568  -18.5802  -39.2346 H         1 UNK         0.0600 
    156 H156        4.5038  -16.2850  -39.7275 H         1 UNK         0.0600 
    157 H157        2.7887  -16.2637  -39.3454 H         1 UNK         0.0600 
    158 H158        3.3208  -16.1109  -41.0179 H         1 UNK         0.0600 
    159 H159        1.4971  -17.8091  -40.9215 H         1 UNK         0.3000 
    160 H160        0.2370  -21.1181  -41.5468 H         1 UNK         0.0600 
    161 H161       -0.8133  -18.7476  -39.9136 H         1 UNK         0.0600 
    162 H162       -0.6105  -20.3867  -39.3059 H         1 UNK         0.0600 
    163 H163       -1.7752  -20.0645  -40.5813 H         1 UNK         0.0600 
    164 H164       -0.7581  -18.6276  -42.4108 H         1 UNK         0.3000 
    165 H165        1.1579  -18.4007  -45.4641 H         1 UNK         0.0600 
    166 H166       -1.1674  -18.1704  -46.2702 H         1 UNK         0.0600 
    167 H167       -0.8790  -19.8391  -45.7721 H         1 UNK         0.0600 
    168 H168       -1.7990  -18.7611  -44.7391 H         1 UNK         0.0600 
    169 H169       -0.6780  -16.5676  -44.3752 H         1 UNK         0.3000 
    170 H170        1.5674  -14.6400  -42.3586 H         1 UNK         0.0600 
    171 H171        1.7266  -13.7793  -44.6830 H         1 UNK         0.0600 
    172 H172        0.0240  -14.1092  -44.9568 H         1 UNK         0.0600 
    173 H173        0.5100  -12.8885  -43.7826 H         1 UNK         0.0600 
    174 H174       -1.2702  -14.5788  -42.8680 H         1 UNK         0.3000 
    175 H175       -2.2414  -16.5077  -40.0317 H         1 UNK         0.0600 
    176 H176       -1.7590  -14.2260  -39.1365 H         1 UNK         0.0600 
    177 H177       -2.4141  -13.4981  -40.5984 H         1 UNK         0.0600 
    178 H178       -3.4633  -14.4145  -39.5165 H         1 UNK         0.0600 
    179 H179       -3.7009  -15.0521  -42.0349 H         1 UNK         0.3000 
    180 H180       -3.9687  -17.7233  -44.3760 H         1 UNK         0.0600 
    181 H181       -5.7074  -18.2216  -42.6428 H         1 UNK         0.0600 
    182 H182       -6.3820  -17.3728  -44.0234 H         1 UNK         0.0600 
    183 H183       -6.0767  -16.5061  -42.5169 H         1 UNK         0.0600 
    184 H184       -5.1634  -15.1800  -44.4427 H         1 UNK         0.3000 
    185 H185       -4.3855  -13.8144  -46.2509 H         1 UNK         0.0600 
    186 H186       -4.0807  -12.7409  -44.0039 H         1 UNK         0.0600 
    187 H187       -2.3432  -12.6418  -44.2690 H         1 UNK         0.0600 
    188 H188       -3.4481  -11.7053  -45.2725 H         1 UNK         0.0600 
    189 H189       -1.5649  -13.0886  -46.5324 H         1 UNK         0.3000 
    190 H190        0.7250  -24.2640  -47.8182 H         1 UNK         0.3000 
    191 H191       -1.4462  -24.8708  -45.9908 H         1 UNK         0.0600 
    192 H192       -1.0714  -25.4756  -48.9754 H         1 UNK         0.0600 
    193 H193       -2.2742  -26.2045  -47.9187 H         1 UNK         0.0600 
    194 H194       -0.5698  -26.5213  -47.6456 H         1 UNK         0.0600 
    195 H195       -0.8356  -22.2157  -47.9652 H         1 UNK         0.3000 
    196 H196       -3.0784  -21.6465  -49.4038 H         1 UNK         0.0600 
    197 H197       -2.1948  -19.3282  -49.4405 H         1 UNK         0.0600 
    198 H198       -0.9020  -20.5058  -49.5801 H         1 UNK         0.0600 
    199 H199       -1.1602  -19.6736  -48.0623 H         1 UNK         0.0600 
    200 H200       -2.9436  -21.4137  -45.9509 H         1 UNK         0.3000 
    201 H201       -5.0923  -19.5787  -45.4855 H         1 UNK         0.0600 
    202 H202       -5.1527  -20.6874  -43.2435 H         1 UNK         0.0600 
    203 H203       -4.0787  -21.9530  -43.8265 H         1 UNK         0.0600 
    204 H204       -3.5054  -20.2906  -43.7034 H         1 UNK         0.0600 
    205 H205       -5.0026  -22.9335  -46.5407 H         1 UNK         0.3000 
    206 H206       -7.9992  -23.0335  -46.6255 H         1 UNK         0.0600 
    207 H207       -7.0653  -24.7637  -45.1033 H         1 UNK         0.0600 
    208 H208       -7.7290  -25.5087  -46.5498 H         1 UNK         0.0600 
    209 H209       -5.9856  -25.3332  -46.3750 H         1 UNK         0.0600 
    210 H210       -4.9060  -23.6969  -48.3145 H         1 UNK         0.3000 
    211 H211       -6.1571  -24.6954  -50.7015 H         1 UNK         0.0600 
    212 H212       -3.8472  -24.8960  -51.5047 H         1 UNK         0.0600 
    213 H213       -3.9231  -25.4430  -49.8390 H         1 UNK         0.0600 
    214 H214       -3.2528  -23.8571  -50.2220 H         1 UNK         0.0600 
    215 H215       -5.8406  -21.5118  -49.6855 H         1 UNK         0.3000 
    216 H216       -6.3632  -19.5776  -50.5573 H         1 UNK         0.0600 
    217 H217       -7.2178  -19.2195  -52.8079 H         1 UNK         0.0600 
    218 H218       -7.8729  -20.7433  -52.2362 H         1 UNK         0.0600 
    219 H219       -6.5377  -20.7261  -53.3889 H         1 UNK         0.0600 
    220 H220       -5.5611  -17.8684  -52.1309 H         1 UNK         0.3000 
    221 H221       -2.8157  -17.5052  -51.5507 H         1 UNK         0.0600 
    222 H222       -4.7914  -15.8573  -53.2288 H         1 UNK         0.0600 
    223 H223       -4.5163  -15.6933  -51.4935 H         1 UNK         0.0600 
    224 H224       -3.2528  -15.2613  -52.6277 H         1 UNK         0.0600 
    225 H225       -1.3972  -16.3422  -53.2429 H         1 UNK         0.3000 
    226 H226       -0.2412  -18.2134  -54.9082 H         1 UNK         0.0600 
    227 H227       -0.0495  -15.1562  -54.9540 H         1 UNK         0.0600 
    228 H228        0.9930  -16.2702  -54.0666 H         1 UNK         0.0600 
    229 H229        1.0450  -16.2291  -55.8158 H         1 UNK         0.0600 
    230 H230       -0.3705  -18.8201  -56.9497 H         1 UNK         0.3000 
    231 H231       -0.9988  -19.2222  -59.0012 H         1 UNK         0.0600 
    232 H232       -0.5676  -16.8076  -59.5375 H         1 UNK         0.0600 
    233 H233       -2.2655  -16.4454  -59.2227 H         1 UNK         0.0600 
    234 H234       -1.8233  -17.5162  -60.5395 H         1 UNK         0.0600 
    235 H235       -3.2430  -18.7702  -56.5328 H         1 UNK         0.3000 
    236 H236       -5.4015  -20.1689  -58.0567 H         1 UNK         0.0600 
    237 H237       -6.0565  -17.9416  -57.0915 H         1 UNK         0.0600 
    238 H238       -6.9234  -19.2714  -56.3407 H         1 UNK         0.0600 
    239 H239       -5.5917  -18.5059  -55.4877 H         1 UNK         0.0600 
    240 H240       -2.7839  -20.8280  -56.2271 H         1 UNK         0.3000 
    241 H241       -3.4322  -22.2978  -54.0362 H         1 UNK         0.0600 
    242 H242       -4.9119  -23.9665  -53.8055 H         1 UNK         0.3800 
    243 H243       -4.9945  -25.3661  -54.8619 H         1 UNK         0.3800 
    244 H244       -1.2566  -23.5404  -54.4194 H         1 UNK         0.0800 
    245 H245       -1.1660  -22.8515  -56.0119 H         1 UNK         0.0800 
    246 H246       -1.3530  -21.7911  -52.1057 H         1 UNK         0.0800 
    247 H247        0.0231  -22.7358  -52.6277 H         1 UNK         0.0800 
@<TRIPOS>BOND
     1    1    2 1    
     2    1  127 1    
     3    1  128 1    
     4    1  129 1    
     5    2    3 2    
     6    2    4 am   BACKBONE|DICT|INTERRES
     7    4    5 1    
     8    4  130 1    
     9    5    6 1    
    10    5   65 1    
    11    5  131 1    
    12    6    7 1    
    13    6  132 1    
    14    6  133 1    
    15    7    8 1    
    16    8    9 1    
    17    8  134 1    
    18    8  135 1    
    19    9   10 ar   
    20    9   14 ar   
    21   10   11 ar   
    22   10  136 1    
    23   11   12 ar   
    24   11  126 1    
    25   12   13 ar   
    26   12  137 1    
    27   13   14 ar   
    28   13   15 1    
    29   14  138 1    
    30   15   16 1    
    31   15  139 1    
    32   15  140 1    
    33   16   17 1    
    34   17   18 1    
    35   17  141 1    
    36   17  142 1    
    37   18   19 1    
    38   18   67 1    
    39   18  143 1    
    40   19   20 am   BACKBONE|DICT|INTERRES
    41   19  144 1    
    42   20   21 2    
    43   20   22 1    
    44   22   23 1    
    45   22   24 1    
    46   22  145 1    
    47   23  146 1    
    48   23  147 1    
    49   23  148 1    
    50   24   25 am   BACKBONE|DICT|INTERRES
    51   24  149 1    
    52   25   26 2    
    53   25   27 1    
    54   27   28 1    
    55   27   29 1    
    56   27  150 1    
    57   28  151 1    
    58   28  152 1    
    59   28  153 1    
    60   29   30 am   BACKBONE|DICT|INTERRES
    61   29  154 1    
    62   30   31 2    
    63   30   32 1    
    64   32   33 1    
    65   32   34 1    
    66   32  155 1    
    67   33  156 1    
    68   33  157 1    
    69   33  158 1    
    70   34   35 am   BACKBONE|DICT|INTERRES
    71   34  159 1    
    72   35   36 2    
    73   35   37 1    
    74   37   38 1    
    75   37   39 1    
    76   37  160 1    
    77   38  161 1    
    78   38  162 1    
    79   38  163 1    
    80   39   40 am   BACKBONE|DICT|INTERRES
    81   39  164 1    
    82   40   41 2    
    83   40   42 1    
    84   42   43 1    
    85   42   44 1    
    86   42  165 1    
    87   43  166 1    
    88   43  167 1    
    89   43  168 1    
    90   44   45 am   BACKBONE|DICT|INTERRES
    91   44  169 1    
    92   45   46 2    
    93   45   47 1    
    94   47   48 1    
    95   47   49 1    
    96   47  170 1    
    97   48  171 1    
    98   48  172 1    
    99   48  173 1    
   100   49   50 am   BACKBONE|DICT|INTERRES
   101   49  174 1    
   102   50   51 2    
   103   50   52 1    
   104   52   53 1    
   105   52   54 1    
   106   52  175 1    
   107   53  176 1    
   108   53  177 1    
   109   53  178 1    
   110   54   55 am   BACKBONE|DICT|INTERRES
   111   54  179 1    
   112   55   56 2    
   113   55   57 1    
   114   57   58 1    
   115   57   59 1    
   116   57  180 1    
   117   58  181 1    
   118   58  182 1    
   119   58  183 1    
   120   59   60 am   BACKBONE|DICT|INTERRES
   121   59  184 1    
   122   60   61 2    
   123   60   62 1    
   124   62   63 1    
   125   62   64 1    
   126   62  185 1    
   127   63  186 1    
   128   63  187 1    
   129   63  188 1    
   130   64   65 am   BACKBONE|DICT|INTERRES
   131   64  189 1    
   132   65   66 2    
   133   67   68 2    
   134   67   69 am   BACKBONE|DICT|INTERRES
   135   69   70 1    
   136   69  190 1    
   137   70   71 1    
   138   70   72 1    
   139   70  191 1    
   140   71  192 1    
   141   71  193 1    
   142   71  194 1    
   143   72   73 2    
   144   72   74 am   BACKBONE|DICT|INTERRES
   145   74   75 1    
   146   74  195 1    
   147   75   76 1    
   148   75   77 1    
   149   75  196 1    
   150   76  197 1    
   151   76  198 1    
   152   76  199 1    
   153   77   78 2    
   154   77   79 am   BACKBONE|DICT|INTERRES
   155   79   80 1    
   156   79  200 1    
   157   80   81 1    
   158   80   82 1    
   159   80  201 1    
   160   81  202 1    
   161   81  203 1    
   162   81  204 1    
   163   82   83 2    
   164   82   84 am   BACKBONE|DICT|INTERRES
   165   84   85 1    
   166   84  205 1    
   167   85   86 1    
   168   85   87 1    
   169   85  206 1    
   170   86  207 1    
   171   86  208 1    
   172   86  209 1    
   173   87   88 2    
   174   87   89 am   BACKBONE|DICT|INTERRES
   175   89   90 1    
   176   89  210 1    
   177   90   91 1    
   178   90   92 1    
   179   90  211 1    
   180   91  212 1    
   181   91  213 1    
   182   91  214 1    
   183   92   93 2    
   184   92   94 am   BACKBONE|DICT|INTERRES
   185   94   95 1    
   186   94  215 1    
   187   95   96 1    
   188   95   97 1    
   189   95  216 1    
   190   96  217 1    
   191   96  218 1    
   192   96  219 1    
   193   97   98 2    
   194   97   99 am   BACKBONE|DICT|INTERRES
   195   99  100 1    
   196   99  220 1    
   197  100  101 1    
   198  100  102 1    
   199  100  221 1    
   200  101  222 1    
   201  101  223 1    
   202  101  224 1    
   203  102  103 2    
   204  102  104 am   BACKBONE|DICT|INTERRES
   205  104  105 1    
   206  104  225 1    
   207  105  106 1    
   208  105  107 1    
   209  105  226 1    
   210  106  227 1    
   211  106  228 1    
   212  106  229 1    
   213  107  108 2    
   214  107  109 am   BACKBONE|DICT|INTERRES
   215  109  110 1    
   216  109  230 1    
   217  110  111 1    
   218  110  112 1    
   219  110  231 1    
   220  111  232 1    
   221  111  233 1    
   222  111  234 1    
   223  112  113 2    
   224  112  114 am   BACKBONE|DICT|INTERRES
   225  114  115 1    
   226  114  235 1    
   227  115  116 1    
   228  115  117 1    
   229  115  236 1    
   230  116  237 1    
   231  116  238 1    
   232  116  239 1    
   233  117  118 2    
   234  117  119 am   BACKBONE|DICT|INTERRES
   235  119  120 1    
   236  119  240 1    
   237  120  121 1    
   238  120  124 1    
   239  120  241 1    
   240  121  122 am   BACKBONE|DICT|INTERRES
   241  121  123 2    
   242  122  242 1    
   243  122  243 1    
   244  124  125 1    
   245  124  244 1    
   246  124  245 1    
   247  125  126 1    
   248  126  246 1    
   249  126  247 1    
@<TRIPOS>SUBSTRUCTURE
     1 UNK         1 GROUP             0       ****    0 ROOT    
