@<TRIPOS>MOLECULE
3R540
247   249    1
SMALL
USER_CHARGES


@<TRIPOS>ATOM
      1 CA         -2.9144  -18.7278  -46.0649 C.3       0 UNK        -0.1800 
      2 C          -2.3403  -17.7169  -47.0429 C.2       0 UNK         0.5000 
      3 O          -3.0872  -17.0694  -47.7762 O.2       0 UNK        -0.5000 
      4 N          -1.0098  -17.5881  -47.0545 N.am      1 UNK        -0.5000 
      5 CA         -0.2706  -16.5924  -47.8292 C.3       1 UNK         0.1400 
      6 C6          1.2261  -16.9778  -47.9004 C.3       23 UNK        -0.0398 
      7 S7          2.2017  -15.9516  -49.0505 S.3       23 UNK        -0.2404 
      8 C8          3.7346  -16.9245  -49.1738 C.3       23 UNK        -0.0205 
      9 C9          3.5669  -18.1163  -50.1033 C.ar      23 UNK        -0.0193 
     10 C10         3.5563  -17.9207  -51.4862 C.ar      23 UNK        -0.1150 
     11 C11         3.3836  -18.9995  -52.3571 C.ar      23 UNK        -0.0193 
     12 C12         3.2314  -20.2865  -51.8337 C.ar      23 UNK        -0.1150 
     13 C13         3.2596  -20.4989  -50.4519 C.ar      23 UNK        -0.0193 
     14 C14         3.4293  -19.4095  -49.5908 C.ar      23 UNK        -0.1150 
     15 C15         3.1229  -21.9093  -49.8977 C.3       23 UNK        -0.0205 
     16 S16         1.3796  -22.4080  -49.7494 S.3       23 UNK        -0.2404 
     17 C17         0.8372  -21.4320  -48.3049 C.3       23 UNK        -0.0398 
     18 CA          0.0706  -22.2769  -47.2606 C.3       11 UNK         0.1400 
     19 N          -0.1135  -21.5239  -46.0234 N.am      11 UNK        -0.5000 
     20 C          -0.5816  -22.0006  -44.8650 C.2       10 UNK         0.5000 
     21 O          -0.8768  -23.1832  -44.6846 O.2       10 UNK        -0.5000 
     22 CA         -0.7018  -20.9771  -43.7155 C.3       10 UNK         0.1400 
     23 CB         -1.2492  -21.5961  -42.4177 C.3       10 UNK        -0.1800 
     24 N           0.5748  -20.3279  -43.4192 N.am      10 UNK        -0.5000 
     25 C           1.1666  -19.3608  -44.1303 C.2       9 UNK         0.5000 
     26 O           0.6993  -18.9207  -45.1847 O.2       9 UNK        -0.5000 
     27 CA          2.5016  -18.8144  -43.5746 C.3       9 UNK         0.1400 
     28 CB          2.9643  -17.5402  -44.3018 C.3       9 UNK        -0.1800 
     29 N           2.4375  -18.5356  -42.1384 N.am      9 UNK        -0.5000 
     30 C           2.5196  -19.4399  -41.1528 C.2       8 UNK         0.5000 
     31 O           2.6703  -20.6466  -41.3470 O.2       8 UNK        -0.5000 
     32 CA          2.3413  -18.9135  -39.7204 C.3       8 UNK         0.1400 
     33 CB          3.6310  -18.2493  -39.2130 C.3       8 UNK        -0.1800 
     34 N           1.2356  -17.9582  -39.6611 N.am      8 UNK        -0.5000 
     35 C          -0.0514  -18.3015  -39.5080 C.2       7 UNK         0.5000 
     36 O          -0.4303  -19.4554  -39.3050 O.2       7 UNK        -0.5000 
     37 CA         -1.0967  -17.1716  -39.5967 C.3       7 UNK         0.1400 
     38 CB         -1.3997  -16.6095  -38.1994 C.3       7 UNK        -0.1800 
     39 N          -0.6841  -16.0742  -40.4725 N.am      7 UNK        -0.5000 
     40 C          -0.6107  -16.1523  -41.8088 C.2       6 UNK         0.5000 
     41 O          -0.9520  -17.1434  -42.4531 O.2       6 UNK        -0.5000 
     42 CA         -0.0381  -14.9236  -42.5459 C.3       6 UNK         0.1400 
     43 CB         -1.1801  -14.0005  -42.9972 C.3       6 UNK        -0.1800 
     44 N           0.9322  -14.1376  -41.7706 N.am      6 UNK        -0.5000 
     45 C           2.0651  -14.6072  -41.2296 C.2       5 UNK         0.5000 
     46 O           2.4145  -15.7851  -41.3112 O.2       5 UNK        -0.5000 
     47 CA          2.9494  -13.5817  -40.5013 C.3       5 UNK         0.1400 
     48 CB          4.2081  -14.2123  -39.8784 C.3       5 UNK        -0.1800 
     49 N           3.3502  -12.5595  -41.4607 N.am      5 UNK        -0.5000 
     50 C           3.1265  -11.2440  -41.3533 C.2       4 UNK         0.5000 
     51 O           2.6221  -10.7104  -40.3648 O.2       4 UNK        -0.5000 
     52 CA          3.5085  -10.3803  -42.5752 C.3       4 UNK         0.1400 
     53 CB          4.8933   -9.7462  -42.3742 C.3       4 UNK        -0.1800 
     54 N           3.5034  -11.1316  -43.8365 N.am      4 UNK        -0.5000 
     55 C           2.4067  -11.6578  -44.3982 C.2       3 UNK         0.5000 
     56 O           1.2694  -11.4947  -43.9489 O.2       3 UNK        -0.5000 
     57 CA          2.6423  -12.5654  -45.6190 C.3       3 UNK         0.1400 
     58 CB          3.3309  -13.8741  -45.1930 C.3       3 UNK        -0.1800 
     59 N           1.3829  -12.9150  -46.2643 N.am      3 UNK        -0.5000 
     60 C           0.7171  -12.1725  -47.1527 C.2       2 UNK         0.5000 
     61 O           1.1392  -11.1017  -47.5942 O.2       2 UNK        -0.5000 
     62 CA         -0.6364  -12.7457  -47.6372 C.3       2 UNK         0.1400 
     63 CB         -1.2366  -11.9442  -48.8064 C.3       2 UNK        -0.1800 
     64 N          -0.5419  -14.1550  -48.0349 N.am      2 UNK        -0.5000 
     65 C          -0.4665  -15.1981  -47.1982 C.2       1 UNK         0.5000 
     66 O          -0.4864  -15.0812  -45.9710 O.2       1 UNK        -0.5000 
     67 C          -1.2886  -22.7512  -47.8085 C.2       11 UNK         0.5000 
     68 O          -2.1169  -21.9169  -48.1787 O.2       11 UNK        -0.5000 
     69 N          -1.4833  -24.0738  -47.8922 N.am      12 UNK        -0.5000 
     70 CA         -2.7097  -24.7042  -48.3900 C.3       12 UNK         0.1400 
     71 CB         -2.6216  -26.2227  -48.1810 C.3       12 UNK        -0.1800 
     72 C          -3.0252  -24.3841  -49.8636 C.2       12 UNK         0.5000 
     73 O          -4.1950  -24.4247  -50.2484 O.2       12 UNK        -0.5000 
     74 N          -1.9819  -24.0605  -50.6411 N.am      13 UNK        -0.5000 
     75 CA         -2.0559  -23.6333  -52.0383 C.3       13 UNK         0.1400 
     76 CB         -0.7440  -24.0080  -52.7451 C.3       13 UNK        -0.1800 
     77 C          -2.3574  -22.1298  -52.2091 C.2       13 UNK         0.5000 
     78 O          -2.5011  -21.6797  -53.3474 O.2       13 UNK        -0.5000 
     79 N          -2.4577  -21.3839  -51.1021 N.am      14 UNK        -0.5000 
     80 CA         -2.9098  -19.9940  -51.0708 C.3       14 UNK         0.1400 
     81 CB         -1.8180  -19.1287  -50.4237 C.3       14 UNK        -0.1800 
     82 C          -4.2380  -19.8587  -50.3037 C.2       14 UNK         0.5000 
     83 O          -5.0706  -19.0325  -50.6756 O.2       14 UNK        -0.5000 
     84 N          -4.4207  -20.6767  -49.2569 N.am      15 UNK        -0.5000 
     85 CA         -5.5514  -20.6480  -48.3266 C.3       15 UNK         0.1400 
     86 CB         -5.2052  -21.5406  -47.1214 C.3       15 UNK        -0.1800 
     87 C          -6.9127  -21.0835  -48.9065 C.2       15 UNK         0.5000 
     88 O          -7.9120  -20.9550  -48.1985 O.2       15 UNK        -0.5000 
     89 N          -6.9364  -21.6330  -50.1313 N.am      16 UNK        -0.5000 
     90 CA         -8.0840  -22.2853  -50.7812 C.3       16 UNK         0.1400 
     91 CB         -9.3136  -21.3563  -50.8777 C.3       16 UNK        -0.1800 
     92 C          -8.4100  -23.6645  -50.1687 C.2       16 UNK         0.5000 
     93 O          -9.5054  -24.1846  -50.3862 O.2       16 UNK        -0.5000 
     94 N          -7.4539  -24.2400  -49.4248 N.am      17 UNK        -0.5000 
     95 CA         -7.5656  -25.5542  -48.7961 C.3       17 UNK         0.1400 
     96 CB         -6.6499  -25.6125  -47.5637 C.3       17 UNK        -0.1800 
     97 C          -7.2287  -26.6698  -49.7973 C.2       17 UNK         0.5000 
     98 O          -8.0167  -27.6028  -49.9564 O.2       17 UNK        -0.5000 
     99 N          -6.0798  -26.5320  -50.4706 N.am      18 UNK        -0.5000 
    100 CA        -5.6469  -27.3954  -51.5680 C.3       18 UNK         0.1400 
    101 CB        -4.1744  -27.7881  -51.3659 C.3       18 UNK        -0.1800 
    102 C         -5.8327  -26.6817  -52.9156 C.2       18 UNK         0.5000 
    103 O         -6.2291  -27.3236  -53.8890 O.2       18 UNK        -0.5000 
    104 N         -5.5667  -25.3699  -52.9469 N.am      19 UNK        -0.5000 
    105 CA        -5.7138  -24.4972  -54.1062 C.3       19 UNK         0.1400 
    106 CB        -4.5852  -24.7601  -55.1262 C.3       19 UNK        -0.1800 
    107 C         -5.6913  -23.0387  -53.6313 C.2       19 UNK         0.5000 
    108 O         -5.3898  -22.7731  -52.4661 O.2       19 UNK        -0.5000 
    109 N         -5.9840  -22.1182  -54.5508 N.am      20 UNK        -0.5000 
    110 CA        -5.7907  -20.6779  -54.3904 C.3       20 UNK         0.1400 
    111 CB        -7.1603  -19.9801  -54.3184 C.3       20 UNK        -0.1800 
    112 C         -4.9138  -20.1942  -55.5590 C.2       20 UNK         0.5000 
    113 O         -5.2689  -19.2538  -56.2710 O.2       20 UNK        -0.5000 
    114 N         -3.8013  -20.9088  -55.7669 N.am      21 UNK        -0.5000 
    115 CA        -2.8303  -20.6868  -56.8351 C.3       21 UNK         0.1400 
    116 CB        -2.0972  -22.0094  -57.1093 C.3       21 UNK        -0.1800 
    117 C         -1.8225  -19.5768  -56.4904 C.2       21 UNK         0.5000 
    118 O         -1.2508  -18.9805  -57.4042 O.2       21 UNK        -0.5000 
    119 N         -1.6254  -19.3225  -55.1923 N.am      22 UNK        -0.5000 
    120 CA        -0.7553  -18.2722  -54.6521 C.3       22 UNK         0.1400 
    121 C         -1.5010  -17.3825  -53.6165 C.2       22 UNK         0.5000 
    122 N         -0.7942  -16.5276  -52.8904 N.am      22 UNK        -0.7600 
    123 O         -2.7213  -17.4328  -53.4801 O.2       22 UNK        -0.5000 
    124 C124        0.5808  -18.8698  -54.1289 C.3       23 UNK        -0.0398 
    125 S125        1.9845  -17.7373  -54.3982 S.3       23 UNK        -0.2404 
    126 C126        3.3824  -18.7711  -53.8613 C.3       23 UNK        -0.0205 
    127 H127       -2.6885  -18.4313  -45.0405 H         1 UNK         0.0600 
    128 H128       -2.4888  -19.7138  -46.2489 H         1 UNK         0.0600 
    129 H129       -3.9971  -18.7959  -46.1687 H         1 UNK         0.0600 
    130 H130       -0.4562  -18.0906  -46.3641 H         1 UNK         0.3000 
    131 H131       -0.6762  -16.5831  -48.8432 H         1 UNK         0.0600 
    132 H132        1.6829  -16.9225  -46.9121 H         1 UNK         0.0800 
    133 H133        1.3129  -18.0172  -48.2186 H         1 UNK         0.0800 
    134 H134        4.0511  -17.2432  -48.1793 H         1 UNK         0.0800 
    135 H135        4.5292  -16.2815  -49.5549 H         1 UNK         0.0800 
    136 H136        3.6699  -16.9227  -51.8864 H         1 UNK         0.1150 
    137 H137        3.0986  -21.1273  -52.5000 H         1 UNK         0.1150 
    138 H138        3.4546  -19.5659  -48.5219 H         1 UNK         0.1150 
    139 H139        3.6312  -22.6106  -50.5610 H         1 UNK         0.0800 
    140 H140        3.6202  -21.9965  -48.9304 H         1 UNK         0.0800 
    141 H141        0.2417  -20.5870  -48.6521 H         1 UNK         0.0800 
    142 H142        1.7146  -20.9970  -47.8268 H         1 UNK         0.0800 
    143 H143        0.6790  -23.1505  -47.0170 H         1 UNK         0.0600 
    144 H144        0.1301  -20.5394  -46.0474 H         1 UNK         0.3000 
    145 H145       -1.4093  -20.2113  -44.0351 H         1 UNK         0.0600 
    146 H146       -1.3819  -20.8366  -41.6468 H         1 UNK         0.0600 
    147 H147       -2.2219  -22.0609  -42.5839 H         1 UNK         0.0600 
    148 H148       -0.5796  -22.3608  -42.0222 H         1 UNK         0.0600 
    149 H149        1.0661  -20.6581  -42.5962 H         1 UNK         0.3000 
    150 H150        3.2574  -19.5841  -43.7430 H         1 UNK         0.0600 
    151 H151        3.1934  -17.7512  -45.3463 H         1 UNK         0.0600 
    152 H152        3.8685  -17.1304  -43.8511 H         1 UNK         0.0600 
    153 H153        2.1977  -16.7657  -44.2769 H         1 UNK         0.0600 
    154 H154        2.3202  -17.5590  -41.8805 H         1 UNK         0.3000 
    155 H155        2.1241  -19.7629  -39.0691 H         1 UNK         0.0600 
    156 H156        3.9387  -17.4166  -39.8456 H         1 UNK         0.0600 
    157 H157        4.4536  -18.9652  -39.1950 H         1 UNK         0.0600 
    158 H158        3.5067  -17.8710  -38.1983 H         1 UNK         0.0600 
    159 H159        1.4610  -16.9997  -39.8945 H         1 UNK         0.3000 
    160 H160       -2.0164  -17.6030  -39.9978 H         1 UNK         0.0600 
    161 H161       -0.5190  -16.1481  -37.7508 H         1 UNK         0.0600 
    162 H162       -1.7358  -17.3989  -37.5257 H         1 UNK         0.0600 
    163 H163       -2.1899  -15.8594  -38.2386 H         1 UNK         0.0600 
    164 H164       -0.3994  -15.2152  -40.0259 H         1 UNK         0.3000 
    165 H165        0.4755  -15.2927  -43.4349 H         1 UNK         0.0600 
    166 H166       -0.8107  -13.2011  -43.6392 H         1 UNK         0.0600 
    167 H167       -1.9243  -14.5527  -43.5729 H         1 UNK         0.0600 
    168 H168       -1.6911  -13.5448  -42.1484 H         1 UNK         0.0600 
    169 H169        0.7392  -13.1487  -41.6932 H         1 UNK         0.3000 
    170 H170        2.3483  -13.1502  -39.6984 H         1 UNK         0.0600 
    171 H171        3.9411  -14.9697  -39.1405 H         1 UNK         0.0600 
    172 H172        4.8364  -14.6905  -40.6310 H         1 UNK         0.0600 
    173 H173        4.8113  -13.4614  -39.3680 H         1 UNK         0.0600 
    174 H174        3.7521  -12.9004  -42.3217 H         1 UNK         0.3000 
    175 H175        2.7718   -9.5780  -42.6544 H         1 UNK         0.0600 
    176 H176        5.6764  -10.5022  -42.3042 H         1 UNK         0.0600 
    177 H177        5.1442   -9.0765  -43.1970 H         1 UNK         0.0600 
    178 H178        4.9234   -9.1568  -41.4568 H         1 UNK         0.0600 
    179 H179        4.4037  -11.2979  -44.2633 H         1 UNK         0.3000 
    180 H180        3.2812  -12.0396  -46.3316 H         1 UNK         0.0600 
    181 H181        2.7558  -14.3984  -44.4290 H         1 UNK         0.0600 
    182 H182        4.3252  -13.6875  -44.7863 H         1 UNK         0.0600 
    183 H183        3.4526  -14.5501  -46.0401 H         1 UNK         0.0600 
    184 H184        0.9164  -13.7508  -45.9268 H         1 UNK         0.3000 
    185 H185       -1.3288  -12.6697  -46.7961 H         1 UNK         0.0600 
    186 H186       -1.3844  -10.8991  -48.5312 H         1 UNK         0.0600 
    187 H187       -0.5885  -11.9660  -49.6834 H         1 UNK         0.0600 
    188 H188       -2.2096  -12.3402  -49.0977 H         1 UNK         0.0600 
    189 H189       -0.4572  -14.3254  -49.0264 H         1 UNK         0.3000 
    190 H190       -0.7618  -24.6973  -47.5593 H         1 UNK         0.3000 
    191 H191       -3.5366  -24.3238  -47.7893 H         1 UNK         0.0600 
    192 H192       -3.5385  -26.7173  -48.5035 H         1 UNK         0.0600 
    193 H193       -2.4771  -26.4685  -47.1287 H         1 UNK         0.0600 
    194 H194       -1.7972  -26.6601  -48.7456 H         1 UNK         0.0600 
    195 H195       -1.0618  -24.0598  -50.2247 H         1 UNK         0.3000 
    196 H196       -2.8669  -24.1794  -52.5208 H         1 UNK         0.0600 
    197 H197        0.1072  -23.4703  -52.3266 H         1 UNK         0.0600 
    198 H198       -0.5422  -25.0760  -52.6621 H         1 UNK         0.0600 
    199 H199       -0.7903  -23.7700  -53.8087 H         1 UNK         0.0600 
    200 H200       -2.3061  -21.8254  -50.2042 H         1 UNK         0.3000 
    201 H201       -3.0854  -19.6270  -52.0825 H         1 UNK         0.0600 
    202 H202       -0.8736  -19.2113  -50.9614 H         1 UNK         0.0600 
    203 H203       -1.6408  -19.4180  -49.3886 H         1 UNK         0.0600 
    204 H204       -2.1055  -18.0768  -50.4258 H         1 UNK         0.0600 
    205 H205       -3.6462  -21.2691  -48.9731 H         1 UNK         0.3000 
    206 H206       -5.6639  -19.6208  -47.9746 H         1 UNK         0.0600 
    207 H207       -4.2649  -21.2483  -46.6575 H         1 UNK         0.0600 
    208 H208       -5.9742  -21.4783  -46.3504 H         1 UNK         0.0600 
    209 H209       -5.1203  -22.5874  -47.4129 H         1 UNK         0.0600 
    210 H210       -6.0633  -21.7104  -50.6413 H         1 UNK         0.3000 
    211 H211       -7.7870  -22.4867  -51.8070 H         1 UNK         0.0600 
    212 H212      -10.0531  -21.7652  -51.5671 H         1 UNK         0.0600 
    213 H213       -9.0365  -20.3696  -51.2487 H         1 UNK         0.0600 
    214 H214       -9.8100  -21.2289  -49.9158 H         1 UNK         0.0600 
    215 H215       -6.5683  -23.7629  -49.3390 H         1 UNK         0.3000 
    216 H216       -8.5928  -25.7022  -48.4556 H         1 UNK         0.0600 
    217 H217       -5.6050  -25.4587  -47.8276 H         1 UNK         0.0600 
    218 H218       -6.7242  -26.5815  -47.0686 H         1 UNK         0.0600 
    219 H219       -6.9252  -24.8515  -46.8332 H         1 UNK         0.0600 
    220 H220       -5.4951  -25.7215  -50.2852 H         1 UNK         0.3000 
    221 H221       -6.2387  -28.3129  -51.5899 H         1 UNK         0.0600 
    222 H222       -4.0317  -28.3045  -50.4168 H         1 UNK         0.0600 
    223 H223       -3.5146  -26.9206  -51.3802 H         1 UNK         0.0600 
    224 H224       -3.8416  -28.4628  -52.1555 H         1 UNK         0.0600 
    225 H225       -5.2664  -24.8866  -52.1056 H         1 UNK         0.3000 
    226 H226       -6.6833  -24.6876  -54.5709 H         1 UNK         0.0600 
    227 H227       -3.6013  -24.5531  -54.7057 H         1 UNK         0.0600 
    228 H228       -4.5877  -25.7942  -55.4698 H         1 UNK         0.0600 
    229 H229       -4.6976  -24.1342  -56.0119 H         1 UNK         0.0600 
    230 H230       -6.2087  -22.4201  -55.4889 H         1 UNK         0.3000 
    231 H231       -5.2430  -20.4565  -53.4716 H         1 UNK         0.0600 
    232 H232       -7.7435  -20.1411  -55.2257 H         1 UNK         0.0600 
    233 H233       -7.0434  -18.9041  -54.1843 H         1 UNK         0.0600 
    234 H234       -7.7428  -20.3502  -53.4750 H         1 UNK         0.0600 
    235 H235       -3.5396  -21.5915  -55.0635 H         1 UNK         0.3000 
    236 H236       -3.3593  -20.3905  -57.7434 H         1 UNK         0.0600 
    237 H237       -2.7942  -22.7912  -57.4117 H         1 UNK         0.0600 
    238 H238       -1.3693  -21.8943  -57.9134 H         1 UNK         0.0600 
    239 H239       -1.5607  -22.3615  -56.2269 H         1 UNK         0.0600 
    240 H240       -2.1458  -19.8599  -54.5092 H         1 UNK         0.3000 
    241 H241       -0.5295  -17.5832  -55.4679 H         1 UNK         0.0600 
    242 H242       -1.2718  -15.9287  -52.2369 H         1 UNK         0.3800 
    243 H243        0.2065  -16.4576  -52.9995 H         1 UNK         0.3800 
    244 H244        0.8143  -19.7942  -54.6594 H         1 UNK         0.0800 
    245 H245        0.5139  -19.1420  -53.0740 H         1 UNK         0.0800 
    246 H246        4.3132  -18.2766  -54.1425 H         1 UNK         0.0800 
    247 H247        3.3630  -19.7177  -54.4036 H         1 UNK         0.0800 
@<TRIPOS>BOND
     1    1    2 1    
     2    1  127 1    
     3    1  128 1    
     4    1  129 1    
     5    2    3 2    
     6    2    4 am   BACKBONE|DICT|INTERRES
     7    4    5 1    
     8    4  130 1    
     9    5    6 1    
    10    5   65 1    
    11    5  131 1    
    12    6    7 1    
    13    6  132 1    
    14    6  133 1    
    15    7    8 1    
    16    8    9 1    
    17    8  134 1    
    18    8  135 1    
    19    9   10 ar   
    20    9   14 ar   
    21   10   11 ar   
    22   10  136 1    
    23   11   12 ar   
    24   11  126 1    
    25   12   13 ar   
    26   12  137 1    
    27   13   14 ar   
    28   13   15 1    
    29   14  138 1    
    30   15   16 1    
    31   15  139 1    
    32   15  140 1    
    33   16   17 1    
    34   17   18 1    
    35   17  141 1    
    36   17  142 1    
    37   18   19 1    
    38   18   67 1    
    39   18  143 1    
    40   19   20 am   BACKBONE|DICT|INTERRES
    41   19  144 1    
    42   20   21 2    
    43   20   22 1    
    44   22   23 1    
    45   22   24 1    
    46   22  145 1    
    47   23  146 1    
    48   23  147 1    
    49   23  148 1    
    50   24   25 am   BACKBONE|DICT|INTERRES
    51   24  149 1    
    52   25   26 2    
    53   25   27 1    
    54   27   28 1    
    55   27   29 1    
    56   27  150 1    
    57   28  151 1    
    58   28  152 1    
    59   28  153 1    
    60   29   30 am   BACKBONE|DICT|INTERRES
    61   29  154 1    
    62   30   31 2    
    63   30   32 1    
    64   32   33 1    
    65   32   34 1    
    66   32  155 1    
    67   33  156 1    
    68   33  157 1    
    69   33  158 1    
    70   34   35 am   BACKBONE|DICT|INTERRES
    71   34  159 1    
    72   35   36 2    
    73   35   37 1    
    74   37   38 1    
    75   37   39 1    
    76   37  160 1    
    77   38  161 1    
    78   38  162 1    
    79   38  163 1    
    80   39   40 am   BACKBONE|DICT|INTERRES
    81   39  164 1    
    82   40   41 2    
    83   40   42 1    
    84   42   43 1    
    85   42   44 1    
    86   42  165 1    
    87   43  166 1    
    88   43  167 1    
    89   43  168 1    
    90   44   45 am   BACKBONE|DICT|INTERRES
    91   44  169 1    
    92   45   46 2    
    93   45   47 1    
    94   47   48 1    
    95   47   49 1    
    96   47  170 1    
    97   48  171 1    
    98   48  172 1    
    99   48  173 1    
   100   49   50 am   BACKBONE|DICT|INTERRES
   101   49  174 1    
   102   50   51 2    
   103   50   52 1    
   104   52   53 1    
   105   52   54 1    
   106   52  175 1    
   107   53  176 1    
   108   53  177 1    
   109   53  178 1    
   110   54   55 am   BACKBONE|DICT|INTERRES
   111   54  179 1    
   112   55   56 2    
   113   55   57 1    
   114   57   58 1    
   115   57   59 1    
   116   57  180 1    
   117   58  181 1    
   118   58  182 1    
   119   58  183 1    
   120   59   60 am   BACKBONE|DICT|INTERRES
   121   59  184 1    
   122   60   61 2    
   123   60   62 1    
   124   62   63 1    
   125   62   64 1    
   126   62  185 1    
   127   63  186 1    
   128   63  187 1    
   129   63  188 1    
   130   64   65 am   BACKBONE|DICT|INTERRES
   131   64  189 1    
   132   65   66 2    
   133   67   68 2    
   134   67   69 am   BACKBONE|DICT|INTERRES
   135   69   70 1    
   136   69  190 1    
   137   70   71 1    
   138   70   72 1    
   139   70  191 1    
   140   71  192 1    
   141   71  193 1    
   142   71  194 1    
   143   72   73 2    
   144   72   74 am   BACKBONE|DICT|INTERRES
   145   74   75 1    
   146   74  195 1    
   147   75   76 1    
   148   75   77 1    
   149   75  196 1    
   150   76  197 1    
   151   76  198 1    
   152   76  199 1    
   153   77   78 2    
   154   77   79 am   BACKBONE|DICT|INTERRES
   155   79   80 1    
   156   79  200 1    
   157   80   81 1    
   158   80   82 1    
   159   80  201 1    
   160   81  202 1    
   161   81  203 1    
   162   81  204 1    
   163   82   83 2    
   164   82   84 am   BACKBONE|DICT|INTERRES
   165   84   85 1    
   166   84  205 1    
   167   85   86 1    
   168   85   87 1    
   169   85  206 1    
   170   86  207 1    
   171   86  208 1    
   172   86  209 1    
   173   87   88 2    
   174   87   89 am   BACKBONE|DICT|INTERRES
   175   89   90 1    
   176   89  210 1    
   177   90   91 1    
   178   90   92 1    
   179   90  211 1    
   180   91  212 1    
   181   91  213 1    
   182   91  214 1    
   183   92   93 2    
   184   92   94 am   BACKBONE|DICT|INTERRES
   185   94   95 1    
   186   94  215 1    
   187   95   96 1    
   188   95   97 1    
   189   95  216 1    
   190   96  217 1    
   191   96  218 1    
   192   96  219 1    
   193   97   98 2    
   194   97   99 am   BACKBONE|DICT|INTERRES
   195   99  100 1    
   196   99  220 1    
   197  100  101 1    
   198  100  102 1    
   199  100  221 1    
   200  101  222 1    
   201  101  223 1    
   202  101  224 1    
   203  102  103 2    
   204  102  104 am   BACKBONE|DICT|INTERRES
   205  104  105 1    
   206  104  225 1    
   207  105  106 1    
   208  105  107 1    
   209  105  226 1    
   210  106  227 1    
   211  106  228 1    
   212  106  229 1    
   213  107  108 2    
   214  107  109 am   BACKBONE|DICT|INTERRES
   215  109  110 1    
   216  109  230 1    
   217  110  111 1    
   218  110  112 1    
   219  110  231 1    
   220  111  232 1    
   221  111  233 1    
   222  111  234 1    
   223  112  113 2    
   224  112  114 am   BACKBONE|DICT|INTERRES
   225  114  115 1    
   226  114  235 1    
   227  115  116 1    
   228  115  117 1    
   229  115  236 1    
   230  116  237 1    
   231  116  238 1    
   232  116  239 1    
   233  117  118 2    
   234  117  119 am   BACKBONE|DICT|INTERRES
   235  119  120 1    
   236  119  240 1    
   237  120  121 1    
   238  120  124 1    
   239  120  241 1    
   240  121  122 am   BACKBONE|DICT|INTERRES
   241  121  123 2    
   242  122  242 1    
   243  122  243 1    
   244  124  125 1    
   245  124  244 1    
   246  124  245 1    
   247  125  126 1    
   248  126  246 1    
   249  126  247 1    
@<TRIPOS>SUBSTRUCTURE
     1 UNK         1 GROUP             0       ****    0 ROOT    
