@<TRIPOS>MOLECULE
3R540
247   249    1
SMALL
USER_CHARGES


@<TRIPOS>ATOM
      1 CA          2.5637  -12.0201  -48.6448 C.3       0 UNK        -0.1800 
      2 C           1.6294  -12.6635  -47.6314 C.2       0 UNK         0.5000 
      3 O           1.3927  -12.0925  -46.5682 O.2       0 UNK        -0.5000 
      4 N           1.0734  -13.8347  -47.9702 N.am      1 UNK        -0.5000 
      5 CA          0.2176  -14.6903  -47.1287 C.3       1 UNK         0.1400 
      6 C6          0.0484  -16.1039  -47.7417 C.3       23 UNK        -0.0398 
      7 S7          1.5985  -17.0704  -47.7184 S.3       23 UNK        -0.2404 
      8 C8          2.3148  -16.7674  -49.3659 C.3       23 UNK        -0.0205 
      9 C9          1.5982  -17.5331  -50.4676 C.ar      23 UNK        -0.0193 
     10 C10         0.6031  -16.9107  -51.2286 C.ar      23 UNK        -0.1150 
     11 C11        -0.0380  -17.6036  -52.2583 C.ar      23 UNK        -0.0193 
     12 C12         0.3388  -18.9194  -52.5356 C.ar      23 UNK        -0.1150 
     13 C13         1.3285  -19.5562  -51.7844 C.ar      23 UNK        -0.0193 
     14 C14         1.9548  -18.8567  -50.7483 C.ar      23 UNK        -0.1150 
     15 C15         1.7332  -20.9856  -52.1196 C.3       23 UNK        -0.0205 
     16 S16         0.6079  -22.2165  -51.3869 S.3       23 UNK        -0.2404 
     17 C17         1.1551  -22.1966  -49.6508 C.3       23 UNK        -0.0398 
     18 CA          0.3191  -23.1196  -48.7276 C.3       11 UNK         0.1400 
     19 N           1.1072  -23.5125  -47.5541 N.am      11 UNK        -0.5000 
     20 C           0.7029  -24.3123  -46.5582 C.2       10 UNK         0.5000 
     21 O          -0.4039  -24.8453  -46.5049 O.2       10 UNK        -0.5000 
     22 CA          1.6883  -24.5072  -45.3913 C.3       10 UNK         0.1400 
     23 CB          2.6321  -25.6833  -45.6825 C.3       10 UNK        -0.1800 
     24 N           2.4856  -23.3241  -45.0404 N.am      10 UNK        -0.5000 
     25 C           2.0108  -22.0977  -44.7787 C.2       9 UNK         0.5000 
     26 O           0.8392  -21.7574  -44.9578 O.2       9 UNK        -0.5000 
     27 CA          3.0261  -21.0664  -44.2557 C.3       9 UNK         0.1400 
     28 CB          3.5228  -20.1841  -45.4107 C.3       9 UNK        -0.1800 
     29 N           2.4391  -20.2203  -43.2151 N.am      9 UNK        -0.5000 
     30 C           2.0165  -20.6626  -42.0190 C.2       8 UNK         0.5000 
     31 O           2.2012  -21.8144  -41.6223 O.2       8 UNK        -0.5000 
     32 CA          1.2681  -19.6731  -41.0984 C.3       8 UNK         0.1400 
     33 CB          2.1665  -19.2360  -39.9313 C.3       8 UNK        -0.1800 
     34 N           0.7880  -18.4778  -41.7880 N.am      8 UNK        -0.5000 
     35 C          -0.1992  -18.4439  -42.6933 C.2       7 UNK         0.5000 
     36 O          -0.9225  -19.4068  -42.9439 O.2       7 UNK        -0.5000 
     37 CA         -0.4110  -17.1183  -43.4575 C.3       7 UNK         0.1400 
     38 CB         -1.7115  -16.4483  -42.9890 C.3       7 UNK        -0.1800 
     39 N           0.6923  -16.1567  -43.3384 N.am      7 UNK        -0.5000 
     40 C           1.9631  -16.3582  -43.7186 C.2       6 UNK         0.5000 
     41 O           2.3620  -17.4046  -44.2258 O.2       6 UNK        -0.5000 
     42 CA          2.9701  -15.2347  -43.4208 C.3       6 UNK         0.1400 
     43 CB          3.0455  -14.2364  -44.5808 C.3       6 UNK        -0.1800 
     44 N           2.6372  -14.5154  -42.1921 N.am      6 UNK        -0.5000 
     45 C           2.9515  -14.9349  -40.9596 C.2       5 UNK         0.5000 
     46 O           3.5851  -15.9646  -40.7286 O.2       5 UNK        -0.5000 
     47 CA          2.4639  -14.0623  -39.7875 C.3       5 UNK         0.1400 
     48 CB          3.4820  -12.9535  -39.4807 C.3       5 UNK        -0.1800 
     49 N           1.1553  -13.4571  -40.0409 N.am      5 UNK        -0.5000 
     50 C           0.0025  -14.1396  -40.0727 C.2       4 UNK         0.5000 
     51 O          -0.0830  -15.3465  -39.8453 O.2       4 UNK        -0.5000 
     52 CA         -1.2661  -13.3460  -40.4435 C.3       4 UNK         0.1400 
     53 CB         -1.9483  -12.8056  -39.1777 C.3       4 UNK        -0.1800 
     54 N          -1.0414  -12.2375  -41.3790 N.am      4 UNK        -0.5000 
     55 C          -0.5561  -12.3667  -42.6205 C.2       3 UNK         0.5000 
     56 O          -0.1301  -13.4274  -43.0811 O.2       3 UNK        -0.5000 
     57 CA         -0.4959  -11.0933  -43.4785 C.3       3 UNK         0.1400 
     58 CB          0.9374  -10.5417  -43.5144 C.3       3 UNK        -0.1800 
     59 N          -0.9347  -11.3855  -44.8415 N.am      3 UNK        -0.5000 
     60 C          -2.2182  -11.5130  -45.2132 C.2       2 UNK         0.5000 
     61 O          -3.1684  -11.2783  -44.4652 O.2       2 UNK        -0.5000 
     62 CA         -2.4963  -11.9901  -46.6555 C.3       2 UNK         0.1400 
     63 CB         -2.6918  -10.7892  -47.5933 C.3       2 UNK        -0.1800 
     64 N          -1.4219  -12.8326  -47.1787 N.am      2 UNK        -0.5000 
     65 C          -1.1488  -14.0701  -46.7446 C.2       1 UNK         0.5000 
     66 O          -1.9226  -14.7129  -46.0358 O.2       1 UNK        -0.5000 
     67 C          -1.0264  -22.4581  -48.3485 C.2       11 UNK         0.5000 
     68 O          -2.0558  -22.7531  -48.9589 O.2       11 UNK        -0.5000 
     69 N          -0.9869  -21.5907  -47.3301 N.am      12 UNK        -0.5000 
     70 CA         -2.1450  -20.8747  -46.8100 C.3       12 UNK         0.1400 
     71 CB         -1.7080  -19.4594  -46.4096 C.3       12 UNK        -0.1800 
     72 C          -2.7786  -21.6164  -45.6230 C.2       12 UNK         0.5000 
     73 O          -4.0051  -21.6703  -45.5376 O.2       12 UNK        -0.5000 
     74 N          -1.9461  -22.1868  -44.7406 N.am      13 UNK        -0.5000 
     75 CA         -2.3666  -22.8459  -43.5031 C.3       13 UNK         0.1400 
     76 CB         -1.1408  -23.1123  -42.6182 C.3       13 UNK        -0.1800 
     77 C          -3.1696  -24.1399  -43.7263 C.2       13 UNK         0.5000 
     78 O          -4.1121  -24.3958  -42.9757 O.2       13 UNK        -0.5000 
     79 N          -2.8099  -24.9220  -44.7551 N.am      14 UNK        -0.5000 
     80 CA         -3.5512  -26.1222  -45.1586 C.3       14 UNK         0.1400 
     81 CB         -2.6191  -27.0573  -45.9447 C.3       14 UNK        -0.1800 
     82 C          -4.8053  -25.7940  -45.9935 C.2       14 UNK         0.5000 
     83 O          -5.6707  -26.6591  -46.1374 O.2       14 UNK        -0.5000 
     84 N          -4.8686  -24.5613  -46.5210 N.am      15 UNK        -0.5000 
     85 CA         -5.8659  -24.0055  -47.4395 C.3       15 UNK         0.1400 
     86 CB         -7.2734  -24.0299  -46.8065 C.3       15 UNK        -0.1800 
     87 C          -5.8424  -24.6665  -48.8341 C.2       15 UNK         0.5000 
     88 O          -5.0929  -25.6171  -49.0719 O.2       15 UNK        -0.5000 
     89 N          -6.6498  -24.1127  -49.7503 N.am      16 UNK        -0.5000 
     90 CA         -6.8813  -24.5133  -51.1469 C.3       16 UNK         0.1400 
     91 CB         -7.4569  -25.9392  -51.2344 C.3       16 UNK        -0.1800 
     92 C          -5.6733  -24.3472  -52.0907 C.2       16 UNK         0.5000 
     93 O          -5.8525  -23.8600  -53.2067 O.2       16 UNK        -0.5000 
     94 N          -4.4722  -24.7268  -51.6382 N.am      17 UNK        -0.5000 
     95 CA         -3.2169  -24.6530  -52.3861 C.3       17 UNK         0.1400 
     96 CB         -2.0864  -25.2946  -51.5678 C.3       17 UNK        -0.1800 
     97 C          -2.8581  -23.2190  -52.8075 C.2       17 UNK         0.5000 
     98 O          -2.5333  -22.9990  -53.9738 O.2       17 UNK        -0.5000 
     99 N          -2.9837  -22.2632  -51.8751 N.am      18 UNK        -0.5000 
    100 CA        -2.7665  -20.8400  -52.1364 C.3       18 UNK         0.1400 
    101 CB        -2.7748  -20.0488  -50.8194 C.3       18 UNK        -0.1800 
    102 C         -3.7726  -20.2514  -53.1397 C.2       18 UNK         0.5000 
    103 O         -3.3772  -19.4778  -54.0112 O.2       18 UNK        -0.5000 
    104 N         -5.0445  -20.6580  -53.0266 N.am      19 UNK        -0.5000 
    105 CA        -6.1185  -20.2545  -53.9349 C.3       19 UNK         0.1400 
    106 CB        -7.4751  -20.6965  -53.3652 C.3       19 UNK        -0.1800 
    107 C         -5.9103  -20.7958  -55.3602 C.2       19 UNK         0.5000 
    108 O         -6.1003  -20.0544  -56.3242 O.2       19 UNK        -0.5000 
    109 N         -5.4825  -22.0608  -55.4676 N.am      20 UNK        -0.5000 
    110 CA        -5.1245  -22.7078  -56.7292 C.3       20 UNK         0.1400 
    111 CB        -4.9146  -24.2107  -56.4887 C.3       20 UNK        -0.1800 
    112 C         -3.8829  -22.0792  -57.3908 C.2       20 UNK         0.5000 
    113 O         -3.8615  -21.9254  -58.6126 O.2       20 UNK        -0.5000 
    114 N         -2.8802  -21.7257  -56.5758 N.am      21 UNK        -0.5000 
    115 CA        -1.6320  -21.1049  -57.0111 C.3       21 UNK         0.1400 
    116 CB        -0.5927  -21.1983  -55.8832 C.3       21 UNK        -0.1800 
    117 C         -1.8125  -19.6493  -57.4774 C.2       21 UNK         0.5000 
    118 O         -1.4083  -19.3230  -58.5949 O.2       21 UNK        -0.5000 
    119 N         -2.3898  -18.8005  -56.6169 N.am      22 UNK        -0.5000 
    120 CA        -2.5317  -17.3541  -56.8642 C.3       22 UNK         0.1400 
    121 C         -3.8310  -16.9535  -57.6187 C.2       22 UNK         0.5000 
    122 N         -4.8299  -17.8154  -57.7550 N.am      22 UNK        -0.7600 
    123 O         -3.9301  -15.8321  -58.1095 O.2       22 UNK        -0.5000 
    124 C124       -2.3605  -16.5164  -55.5702 C.3       23 UNK        -0.0398 
    125 S125       -0.7146  -16.7424  -54.8077 S.3       23 UNK        -0.2404 
    126 C126       -1.1580  -16.9526  -53.0551 C.3       23 UNK        -0.0205 
    127 H127        3.5532  -11.8875  -48.2075 H         1 UNK         0.0600 
    128 H128        2.1843  -11.0405  -48.9355 H         1 UNK         0.0600 
    129 H129        2.6677  -12.6269  -49.5446 H         1 UNK         0.0600 
    130 H130        1.2884  -14.2170  -48.8782 H         1 UNK         0.3000 
    131 H131        0.7342  -14.8143  -46.1768 H         1 UNK         0.0600 
    132 H132       -0.6714  -16.6840  -47.1635 H         1 UNK         0.0800 
    133 H133       -0.3592  -16.0489  -48.7504 H         1 UNK         0.0800 
    134 H134        3.3624  -17.0710  -49.3431 H         1 UNK         0.0800 
    135 H135        2.3236  -15.7002  -49.5849 H         1 UNK         0.0800 
    136 H136        0.3264  -15.8873  -51.0200 H         1 UNK         0.1150 
    137 H137       -0.1395  -19.4448  -53.3469 H         1 UNK         0.1150 
    138 H138        2.7283  -19.3370  -50.1658 H         1 UNK         0.1150 
    139 H139        1.7297  -21.1151  -53.2030 H         1 UNK         0.0800 
    140 H140        2.7565  -21.1820  -51.7960 H         1 UNK         0.0800 
    141 H141        1.1630  -21.1708  -49.2782 H         1 UNK         0.0800 
    142 H142        2.1971  -22.5201  -49.6555 H         1 UNK         0.0800 
    143 H143        0.0909  -24.0418  -49.2660 H         1 UNK         0.0600 
    144 H144        2.0316  -23.1147  -47.4818 H         1 UNK         0.3000 
    145 H145        1.0969  -24.7671  -44.5127 H         1 UNK         0.0600 
    146 H146        3.2522  -25.9164  -44.8167 H         1 UNK         0.0600 
    147 H147        2.0694  -26.5853  -45.9279 H         1 UNK         0.0600 
    148 H148        3.2938  -25.4702  -46.5229 H         1 UNK         0.0600 
    149 H149        3.4689  -23.4948  -44.8863 H         1 UNK         0.3000 
    150 H150        3.8799  -21.5911  -43.8224 H         1 UNK         0.0600 
    151 H151        4.0030  -20.7832  -46.1852 H         1 UNK         0.0600 
    152 H152        4.2539  -19.4537  -45.0638 H         1 UNK         0.0600 
    153 H153        2.7028  -19.6374  -45.8795 H         1 UNK         0.0600 
    154 H154        2.2523  -19.2579  -43.4784 H         1 UNK         0.3000 
    155 H155        0.4031  -20.1988  -40.6888 H         1 UNK         0.0600 
    156 H156        3.0544  -18.7101  -40.2844 H         1 UNK         0.0600 
    157 H157        2.5031  -20.0969  -39.3522 H         1 UNK         0.0600 
    158 H158        1.6339  -18.5734  -39.2486 H         1 UNK         0.0600 
    159 H159        1.3127  -17.6290  -41.6339 H         1 UNK         0.3000 
    160 H160       -0.5114  -17.3614  -44.5166 H         1 UNK         0.0600 
    161 H161       -1.6911  -16.2447  -41.9187 H         1 UNK         0.0600 
    162 H162       -2.5717  -17.0899  -43.1838 H         1 UNK         0.0600 
    163 H163       -1.8875  -15.5060  -43.5064 H         1 UNK         0.0600 
    164 H164        0.4396  -15.2334  -42.9965 H         1 UNK         0.3000 
    165 H165        3.9544  -15.6953  -43.3120 H         1 UNK         0.0600 
    166 H166        2.1200  -13.6696  -44.6672 H         1 UNK         0.0600 
    167 H167        3.8579  -13.5243  -44.4366 H         1 UNK         0.0600 
    168 H168        3.2189  -14.7436  -45.5310 H         1 UNK         0.0600 
    169 H169        2.0582  -13.6939  -42.2936 H         1 UNK         0.3000 
    170 H170        2.3824  -14.7032  -38.9069 H         1 UNK         0.0600 
    171 H171        4.4653  -13.3751  -39.2679 H         1 UNK         0.0600 
    172 H172        3.5944  -12.2649  -40.3192 H         1 UNK         0.0600 
    173 H173        3.1825  -12.3739  -38.6074 H         1 UNK         0.0600 
    174 H174        1.1343  -12.4659  -40.2300 H         1 UNK         0.3000 
    175 H175       -1.9545  -14.0424  -40.9258 H         1 UNK         0.0600 
    176 H176       -1.3251  -12.0703  -38.6673 H         1 UNK         0.0600 
    177 H177       -2.9020  -12.3332  -39.4138 H         1 UNK         0.0600 
    178 H178       -2.1532  -13.6102  -38.4700 H         1 UNK         0.0600 
    179 H179       -1.3506  -11.3269  -41.0704 H         1 UNK         0.3000 
    180 H180       -1.1497  -10.3322  -43.0476 H         1 UNK         0.0600 
    181 H181        0.9973   -9.6411  -44.1257 H         1 UNK         0.0600 
    182 H182        1.6404  -11.2687  -43.9232 H         1 UNK         0.0600 
    183 H183        1.2812  -10.2795  -42.5132 H         1 UNK         0.0600 
    184 H184       -0.2020  -11.6421  -45.4967 H         1 UNK         0.3000 
    185 H185       -3.4205  -12.5718  -46.6439 H         1 UNK         0.0600 
    186 H186       -2.9455  -11.1139  -48.6026 H         1 UNK         0.0600 
    187 H187       -3.5040  -10.1501  -47.2443 H         1 UNK         0.0600 
    188 H188       -1.7926  -10.1747  -47.6533 H         1 UNK         0.0600 
    189 H189       -0.7257  -12.3736  -47.7475 H         1 UNK         0.3000 
    190 H190       -0.1229  -21.4793  -46.8127 H         1 UNK         0.3000 
    191 H191       -2.9058  -20.7796  -47.5879 H         1 UNK         0.0600 
    192 H192       -2.5302  -18.9009  -45.9605 H         1 UNK         0.0600 
    193 H193       -1.3695  -18.9033  -47.2831 H         1 UNK         0.0600 
    194 H194       -0.8886  -19.4825  -45.6907 H         1 UNK         0.0600 
    195 H195       -0.9435  -22.0583  -44.8622 H         1 UNK         0.3000 
    196 H196       -3.0148  -22.1481  -42.9687 H         1 UNK         0.0600 
    197 H197       -0.4342  -23.7859  -43.1005 H         1 UNK         0.0600 
    198 H198       -0.6160  -22.1855  -42.3883 H         1 UNK         0.0600 
    199 H199       -1.4323  -23.5645  -41.6696 H         1 UNK         0.0600 
    200 H200       -2.0076  -24.6723  -45.3264 H         1 UNK         0.3000 
    201 H201       -3.8787  -26.6533  -44.2623 H         1 UNK         0.0600 
    202 H202       -2.3302  -26.6230  -46.9026 H         1 UNK         0.0600 
    203 H203       -3.1101  -28.0081  -46.1551 H         1 UNK         0.0600 
    204 H204       -1.7099  -27.2764  -45.3847 H         1 UNK         0.0600 
    205 H205       -4.1020  -23.9392  -46.3072 H         1 UNK         0.3000 
    206 H206       -5.5802  -22.9625  -47.5836 H         1 UNK         0.0600 
    207 H207       -7.2583  -23.6126  -45.7995 H         1 UNK         0.0600 
    208 H208       -7.9801  -23.4366  -47.3872 H         1 UNK         0.0600 
    209 H209       -7.6754  -25.0414  -46.7442 H         1 UNK         0.0600 
    210 H210       -7.1921  -23.3117  -49.4584 H         1 UNK         0.3000 
    211 H211       -7.6513  -23.8345  -51.5171 H         1 UNK         0.0600 
    212 H212       -7.7248  -26.1871  -52.2623 H         1 UNK         0.0600 
    213 H213       -8.3592  -26.0376  -50.6309 H         1 UNK         0.0600 
    214 H214       -6.7431  -26.6904  -50.8955 H         1 UNK         0.0600 
    215 H215       -4.4350  -25.1219  -50.7011 H         1 UNK         0.3000 
    216 H216       -3.3451  -25.2376  -53.2993 H         1 UNK         0.0600 
    217 H217       -1.9702  -24.8163  -50.5960 H         1 UNK         0.0600 
    218 H218       -1.1313  -25.2166  -52.0893 H         1 UNK         0.0600 
    219 H219       -2.2789  -26.3535  -51.3956 H         1 UNK         0.0600 
    220 H220       -3.1780  -22.5329  -50.9190 H         1 UNK         0.3000 
    221 H221       -1.7781  -20.7439  -52.5824 H         1 UNK         0.0600 
    222 H222       -1.9145  -20.3088  -50.2036 H         1 UNK         0.0600 
    223 H223       -3.6781  -20.2366  -50.2384 H         1 UNK         0.0600 
    224 H224       -2.7167  -18.9754  -51.0028 H         1 UNK         0.0600 
    225 H225       -5.2753  -21.3331  -52.3138 H         1 UNK         0.3000 
    226 H226       -6.1159  -19.1638  -53.9919 H         1 UNK         0.0600 
    227 H227       -7.5474  -21.7807  -53.2802 H         1 UNK         0.0600 
    228 H228       -7.6463  -20.2696  -52.3770 H         1 UNK         0.0600 
    229 H229       -8.2916  -20.3649  -54.0079 H         1 UNK         0.0600 
    230 H230       -5.3973  -22.6230  -54.6253 H         1 UNK         0.3000 
    231 H231       -5.9641  -22.5886  -57.4172 H         1 UNK         0.0600 
    232 H232       -4.1023  -24.3967  -55.7855 H         1 UNK         0.0600 
    233 H233       -4.6697  -24.7251  -57.4187 H         1 UNK         0.0600 
    234 H234       -5.8156  -24.6745  -56.0866 H         1 UNK         0.0600 
    235 H235       -2.9531  -21.9508  -55.5882 H         1 UNK         0.3000 
    236 H236       -1.2493  -21.6763  -57.8594 H         1 UNK         0.0600 
    237 H237       -0.3408  -22.2363  -55.6655 H         1 UNK         0.0600 
    238 H238        0.3322  -20.6862  -56.1514 H         1 UNK         0.0600 
    239 H239       -0.9660  -20.7502  -54.9639 H         1 UNK         0.0600 
    240 H240       -2.7115  -19.1350  -55.7112 H         1 UNK         0.3000 
    241 H241       -1.7209  -17.0476  -57.5282 H         1 UNK         0.0600 
    242 H242       -5.6563  -17.5303  -58.2554 H         1 UNK         0.3800 
    243 H243       -4.8170  -18.7243  -57.3094 H         1 UNK         0.3800 
    244 H244       -3.1460  -16.7699  -54.8567 H         1 UNK         0.0800 
    245 H245       -2.4747  -15.4519  -55.7820 H         1 UNK         0.0800 
    246 H246       -1.4208  -15.9796  -52.6376 H         1 UNK         0.0800 
    247 H247       -2.0473  -17.5734  -52.9648 H         1 UNK         0.0800 
@<TRIPOS>BOND
     1    1    2 1    
     2    1  127 1    
     3    1  128 1    
     4    1  129 1    
     5    2    3 2    
     6    2    4 am   BACKBONE|DICT|INTERRES
     7    4    5 1    
     8    4  130 1    
     9    5    6 1    
    10    5   65 1    
    11    5  131 1    
    12    6    7 1    
    13    6  132 1    
    14    6  133 1    
    15    7    8 1    
    16    8    9 1    
    17    8  134 1    
    18    8  135 1    
    19    9   10 ar   
    20    9   14 ar   
    21   10   11 ar   
    22   10  136 1    
    23   11   12 ar   
    24   11  126 1    
    25   12   13 ar   
    26   12  137 1    
    27   13   14 ar   
    28   13   15 1    
    29   14  138 1    
    30   15   16 1    
    31   15  139 1    
    32   15  140 1    
    33   16   17 1    
    34   17   18 1    
    35   17  141 1    
    36   17  142 1    
    37   18   19 1    
    38   18   67 1    
    39   18  143 1    
    40   19   20 am   BACKBONE|DICT|INTERRES
    41   19  144 1    
    42   20   21 2    
    43   20   22 1    
    44   22   23 1    
    45   22   24 1    
    46   22  145 1    
    47   23  146 1    
    48   23  147 1    
    49   23  148 1    
    50   24   25 am   BACKBONE|DICT|INTERRES
    51   24  149 1    
    52   25   26 2    
    53   25   27 1    
    54   27   28 1    
    55   27   29 1    
    56   27  150 1    
    57   28  151 1    
    58   28  152 1    
    59   28  153 1    
    60   29   30 am   BACKBONE|DICT|INTERRES
    61   29  154 1    
    62   30   31 2    
    63   30   32 1    
    64   32   33 1    
    65   32   34 1    
    66   32  155 1    
    67   33  156 1    
    68   33  157 1    
    69   33  158 1    
    70   34   35 am   BACKBONE|DICT|INTERRES
    71   34  159 1    
    72   35   36 2    
    73   35   37 1    
    74   37   38 1    
    75   37   39 1    
    76   37  160 1    
    77   38  161 1    
    78   38  162 1    
    79   38  163 1    
    80   39   40 am   BACKBONE|DICT|INTERRES
    81   39  164 1    
    82   40   41 2    
    83   40   42 1    
    84   42   43 1    
    85   42   44 1    
    86   42  165 1    
    87   43  166 1    
    88   43  167 1    
    89   43  168 1    
    90   44   45 am   BACKBONE|DICT|INTERRES
    91   44  169 1    
    92   45   46 2    
    93   45   47 1    
    94   47   48 1    
    95   47   49 1    
    96   47  170 1    
    97   48  171 1    
    98   48  172 1    
    99   48  173 1    
   100   49   50 am   BACKBONE|DICT|INTERRES
   101   49  174 1    
   102   50   51 2    
   103   50   52 1    
   104   52   53 1    
   105   52   54 1    
   106   52  175 1    
   107   53  176 1    
   108   53  177 1    
   109   53  178 1    
   110   54   55 am   BACKBONE|DICT|INTERRES
   111   54  179 1    
   112   55   56 2    
   113   55   57 1    
   114   57   58 1    
   115   57   59 1    
   116   57  180 1    
   117   58  181 1    
   118   58  182 1    
   119   58  183 1    
   120   59   60 am   BACKBONE|DICT|INTERRES
   121   59  184 1    
   122   60   61 2    
   123   60   62 1    
   124   62   63 1    
   125   62   64 1    
   126   62  185 1    
   127   63  186 1    
   128   63  187 1    
   129   63  188 1    
   130   64   65 am   BACKBONE|DICT|INTERRES
   131   64  189 1    
   132   65   66 2    
   133   67   68 2    
   134   67   69 am   BACKBONE|DICT|INTERRES
   135   69   70 1    
   136   69  190 1    
   137   70   71 1    
   138   70   72 1    
   139   70  191 1    
   140   71  192 1    
   141   71  193 1    
   142   71  194 1    
   143   72   73 2    
   144   72   74 am   BACKBONE|DICT|INTERRES
   145   74   75 1    
   146   74  195 1    
   147   75   76 1    
   148   75   77 1    
   149   75  196 1    
   150   76  197 1    
   151   76  198 1    
   152   76  199 1    
   153   77   78 2    
   154   77   79 am   BACKBONE|DICT|INTERRES
   155   79   80 1    
   156   79  200 1    
   157   80   81 1    
   158   80   82 1    
   159   80  201 1    
   160   81  202 1    
   161   81  203 1    
   162   81  204 1    
   163   82   83 2    
   164   82   84 am   BACKBONE|DICT|INTERRES
   165   84   85 1    
   166   84  205 1    
   167   85   86 1    
   168   85   87 1    
   169   85  206 1    
   170   86  207 1    
   171   86  208 1    
   172   86  209 1    
   173   87   88 2    
   174   87   89 am   BACKBONE|DICT|INTERRES
   175   89   90 1    
   176   89  210 1    
   177   90   91 1    
   178   90   92 1    
   179   90  211 1    
   180   91  212 1    
   181   91  213 1    
   182   91  214 1    
   183   92   93 2    
   184   92   94 am   BACKBONE|DICT|INTERRES
   185   94   95 1    
   186   94  215 1    
   187   95   96 1    
   188   95   97 1    
   189   95  216 1    
   190   96  217 1    
   191   96  218 1    
   192   96  219 1    
   193   97   98 2    
   194   97   99 am   BACKBONE|DICT|INTERRES
   195   99  100 1    
   196   99  220 1    
   197  100  101 1    
   198  100  102 1    
   199  100  221 1    
   200  101  222 1    
   201  101  223 1    
   202  101  224 1    
   203  102  103 2    
   204  102  104 am   BACKBONE|DICT|INTERRES
   205  104  105 1    
   206  104  225 1    
   207  105  106 1    
   208  105  107 1    
   209  105  226 1    
   210  106  227 1    
   211  106  228 1    
   212  106  229 1    
   213  107  108 2    
   214  107  109 am   BACKBONE|DICT|INTERRES
   215  109  110 1    
   216  109  230 1    
   217  110  111 1    
   218  110  112 1    
   219  110  231 1    
   220  111  232 1    
   221  111  233 1    
   222  111  234 1    
   223  112  113 2    
   224  112  114 am   BACKBONE|DICT|INTERRES
   225  114  115 1    
   226  114  235 1    
   227  115  116 1    
   228  115  117 1    
   229  115  236 1    
   230  116  237 1    
   231  116  238 1    
   232  116  239 1    
   233  117  118 2    
   234  117  119 am   BACKBONE|DICT|INTERRES
   235  119  120 1    
   236  119  240 1    
   237  120  121 1    
   238  120  124 1    
   239  120  241 1    
   240  121  122 am   BACKBONE|DICT|INTERRES
   241  121  123 2    
   242  122  242 1    
   243  122  243 1    
   244  124  125 1    
   245  124  244 1    
   246  124  245 1    
   247  125  126 1    
   248  126  246 1    
   249  126  247 1    
@<TRIPOS>SUBSTRUCTURE
     1 UNK         1 GROUP             0       ****    0 ROOT    
