@<TRIPOS>MOLECULE
3R540
247   249    1
SMALL
USER_CHARGES


@<TRIPOS>ATOM
      1 CA          6.6035  -13.6380  -44.8291 C.3       0 UNK        -0.1800 
      2 C           5.1528  -13.5228  -45.2706 C.2       0 UNK         0.5000 
      3 O           4.4670  -12.5797  -44.8768 O.2       0 UNK        -0.5000 
      4 N           4.6883  -14.4624  -46.1048 N.am      1 UNK        -0.5000 
      5 CA          3.3108  -14.5845  -46.6103 C.3       1 UNK         0.1400 
      6 C6          3.1073  -15.8976  -47.4045 C.3       23 UNK        -0.0398 
      7 S7          4.2618  -16.1091  -48.8069 S.3       23 UNK        -0.2404 
      8 C8          3.1393  -15.9971  -50.2411 C.3       23 UNK        -0.0205 
      9 C9          2.1459  -17.1516  -50.2988 C.ar      23 UNK        -0.0193 
     10 C10         0.7699  -16.9014  -50.3206 C.ar      23 UNK        -0.1150 
     11 C11        -0.1475  -17.9567  -50.3602 C.ar      23 UNK        -0.0193 
     12 C12         0.3268  -19.2728  -50.3491 C.ar      23 UNK        -0.1150 
     13 C13         1.6986  -19.5369  -50.3432 C.ar      23 UNK        -0.0193 
     14 C14         2.6024  -18.4722  -50.3345 C.ar      23 UNK        -0.1150 
     15 C15         2.2005  -20.9735  -50.3265 C.3       23 UNK        -0.0205 
     16 S16         3.1119  -21.3858  -48.8001 S.3       23 UNK        -0.2404 
     17 C17         1.9385  -20.9040  -47.4852 C.3       23 UNK        -0.0398 
     18 CA          1.0947  -22.0765  -46.9382 C.3       11 UNK         0.1400 
     19 N           0.4955  -21.7404  -45.6472 N.am      11 UNK        -0.5000 
     20 C          -0.1327  -22.6069  -44.8423 C.2       10 UNK         0.5000 
     21 O          -0.2349  -23.8112  -45.0782 O.2       10 UNK        -0.5000 
     22 CA         -0.7998  -22.0150  -43.5874 C.3       10 UNK         0.1400 
     23 CB          0.2376  -21.7605  -42.4840 C.3       10 UNK        -0.1800 
     24 N          -1.5292  -20.7775  -43.8731 N.am      10 UNK        -0.5000 
     25 C          -2.5962  -20.7022  -44.6821 C.2       9 UNK         0.5000 
     26 O          -3.1040  -21.6787  -45.2337 O.2       9 UNK        -0.5000 
     27 CA         -3.1692  -19.2997  -44.9552 C.3       9 UNK         0.1400 
     28 CB         -4.0560  -18.8367  -43.7899 C.3       9 UNK        -0.1800 
     29 N          -2.1348  -18.2975  -45.2167 N.am      9 UNK        -0.5000 
     30 C          -1.2774  -18.3392  -46.2464 C.2       8 UNK         0.5000 
     31 O          -1.2737  -19.2255  -47.0959 O.2       8 UNK        -0.5000 
     32 CA         -0.2014  -17.2432  -46.3099 C.3       8 UNK         0.1400 
     33 CB         -0.7918  -15.9183  -46.8137 C.3       8 UNK        -0.1800 
     34 N           0.4579  -17.0372  -45.0206 N.am      8 UNK        -0.5000 
     35 C           1.1512  -17.9809  -44.3661 C.2       7 UNK         0.5000 
     36 O           1.3692  -19.1068  -44.8108 O.2       7 UNK        -0.5000 
     37 CA          1.6330  -17.6247  -42.9521 C.3       7 UNK         0.1400 
     38 CB          2.9404  -16.8202  -43.0081 C.3       7 UNK        -0.1800 
     39 N           0.6123  -16.8833  -42.2105 N.am      7 UNK        -0.5000 
     40 C          -0.5403  -17.4201  -41.7815 C.2       6 UNK         0.5000 
     41 O          -0.8392  -18.6053  -41.9293 O.2       6 UNK        -0.5000 
     42 CA         -1.5447  -16.4619  -41.1149 C.3       6 UNK         0.1400 
     43 CB         -1.1946  -16.2539  -39.6340 C.3       6 UNK        -0.1800 
     44 N          -1.6115  -15.1626  -41.7858 N.am      6 UNK        -0.5000 
     45 C          -2.0742  -14.9755  -43.0304 C.2       5 UNK         0.5000 
     46 O          -2.5446  -15.8762  -43.7230 O.2       5 UNK        -0.5000 
     47 CA         -1.9468  -13.5564  -43.6180 C.3       5 UNK         0.1400 
     48 CB         -3.2089  -12.7343  -43.3195 C.3       5 UNK        -0.1800 
     49 N          -0.7690  -12.8293  -43.1362 N.am      5 UNK        -0.5000 
     50 C           0.4975  -13.2185  -43.3279 C.2       4 UNK         0.5000 
     51 O           0.8125  -14.2343  -43.9519 O.2       4 UNK        -0.5000 
     52 CA          1.5839  -12.3394  -42.6904 C.3       4 UNK         0.1400 
     53 CB          2.6784  -13.1867  -42.0207 C.3       4 UNK        -0.1800 
     54 N           2.1946  -11.4725  -43.6916 N.am      4 UNK        -0.5000 
     55 C           1.6874  -10.3014  -44.0969 C.2       3 UNK         0.5000 
     56 O           0.6249   -9.8405  -43.6773 O.2       3 UNK        -0.5000 
     57 CA          2.4995   -9.5029  -45.1293 C.3       3 UNK         0.1400 
     58 CB          3.6783   -8.7857  -44.4516 C.3       3 UNK        -0.1800 
     59 N           3.0114  -10.3623  -46.1964 N.am      3 UNK        -0.5000 
     60 C           2.7731  -10.1865  -47.5043 C.2       2 UNK         0.5000 
     61 O           2.0997   -9.2604  -47.9587 O.2       2 UNK        -0.5000 
     62 CA          3.3906  -11.2077  -48.4844 C.3       2 UNK         0.1400 
     63 CB          4.6721  -10.6410  -49.1146 C.3       2 UNK        -0.1800 
     64 N           3.7023  -12.4949  -47.8643 N.am      2 UNK        -0.5000 
     65 C           2.7914  -13.3613  -47.4016 C.2       1 UNK         0.5000 
     66 O           1.5801  -13.2117  -47.5583 O.2       1 UNK        -0.5000 
     67 C           0.0324  -22.5539  -47.9502 C.2       11 UNK         0.5000 
     68 O           0.2452  -23.5701  -48.6081 O.2       11 UNK        -0.5000 
     69 N          -1.1064  -21.8506  -48.0287 N.am      12 UNK        -0.5000 
     70 CA         -2.2460  -22.1980  -48.8781 C.3       12 UNK         0.1400 
     71 CB         -3.3128  -21.0983  -48.7929 C.3       12 UNK        -0.1800 
     72 C          -2.8600  -23.5611  -48.5217 C.2       12 UNK         0.5000 
     73 O          -3.1847  -24.3308  -49.4255 O.2       12 UNK        -0.5000 
     74 N          -2.9834  -23.8456  -47.2175 N.am      13 UNK        -0.5000 
     75 CA         -3.4198  -25.1367  -46.6888 C.3       13 UNK         0.1400 
     76 CB         -3.6103  -25.0427  -45.1675 C.3       13 UNK        -0.1800 
     77 C          -2.4501  -26.2716  -47.0627 C.2       13 UNK         0.5000 
     78 O          -2.8944  -27.3029  -47.5703 O.2       13 UNK        -0.5000 
     79 N          -1.1460  -26.0367  -46.8509 N.am      14 UNK        -0.5000 
     80 CA         -0.0593  -26.9552  -47.1996 C.3       14 UNK         0.1400 
     81 CB          1.2706  -26.4076  -46.6604 C.3       14 UNK        -0.1800 
     82 C           0.0382  -27.2395  -48.7107 C.2       14 UNK         0.5000 
     83 O           0.2976  -28.3797  -49.0970 O.2       14 UNK        -0.5000 
     84 N          -0.2299  -26.2230  -49.5407 N.am      15 UNK        -0.5000 
     85 CA         -0.2979  -26.2811  -51.0038 C.3       15 UNK         0.1400 
     86 CB         -0.1149  -24.8575  -51.5625 C.3       15 UNK        -0.1800 
     87 C          -1.5846  -26.9594  -51.5323 C.2       15 UNK         0.5000 
     88 O          -2.1893  -26.4710  -52.4880 O.2       15 UNK        -0.5000 
     89 N          -1.9718  -28.0807  -50.9075 N.am      16 UNK        -0.5000 
     90 CA         -3.1198  -28.9374  -51.2195 C.3       16 UNK         0.1400 
     91 CB         -2.8867  -29.6789  -52.5526 C.3       16 UNK        -0.1800 
     92 C          -4.4732  -28.1963  -51.1681 C.2       16 UNK         0.5000 
     93 O          -5.3321  -28.4284  -52.0213 O.2       16 UNK        -0.5000 
     94 N          -4.6336  -27.3265  -50.1585 N.am      17 UNK        -0.5000 
     95 CA         -5.8052  -26.4823  -49.9010 C.3       17 UNK         0.1400 
     96 CB         -7.0127  -27.3394  -49.4679 C.3       17 UNK        -0.1800 
     97 C          -6.1206  -25.5325  -51.0757 C.2       17 UNK         0.5000 
     98 O          -7.2170  -25.5706  -51.6379 O.2       17 UNK        -0.5000 
     99 N          -5.1365  -24.6920  -51.4207 N.am      18 UNK        -0.5000 
    100 CA        -5.2278  -23.6635  -52.4604 C.3       18 UNK         0.1400 
    101 CB        -3.8284  -23.0809  -52.7150 C.3       18 UNK        -0.1800 
    102 C         -6.2167  -22.5363  -52.1061 C.2       18 UNK         0.5000 
    103 O         -6.8230  -21.9547  -53.0066 O.2       18 UNK        -0.5000 
    104 N         -6.3669  -22.2634  -50.8009 N.am      19 UNK        -0.5000 
    105 CA        -7.2601  -21.2717  -50.1995 C.3       19 UNK         0.1400 
    106 CB        -8.7229  -21.7633  -50.2796 C.3       19 UNK        -0.1800 
    107 C         -7.0348  -19.8589  -50.7799 C.2       19 UNK         0.5000 
    108 O         -5.9829  -19.2694  -50.5359 O.2       19 UNK        -0.5000 
    109 N         -8.0146  -19.3435  -51.5313 N.am      20 UNK        -0.5000 
    110 CA        -7.9945  -18.0125  -52.1348 C.3       20 UNK         0.1400 
    111 CB        -9.4452  -17.5732  -52.3896 C.3       20 UNK        -0.1800 
    112 C         -7.1716  -17.9208  -53.4354 C.2       20 UNK         0.5000 
    113 O         -6.9053  -16.8038  -53.8820 O.2       20 UNK        -0.5000 
    114 N         -6.7919  -19.0603  -54.0377 N.am      21 UNK        -0.5000 
    115 CA        -6.1373  -19.1272  -55.3529 C.3       21 UNK         0.1400 
    116 CB        -5.9943  -20.5939  -55.7853 C.3       21 UNK        -0.1800 
    117 C         -4.7735  -18.4122  -55.4304 C.2       21 UNK         0.5000 
    118 O         -4.4067  -17.9229  -56.4997 O.2       21 UNK        -0.5000 
    119 N         -4.0637  -18.3485  -54.2993 N.am      22 UNK        -0.5000 
    120 CA        -2.8136  -17.5945  -54.1216 C.3       22 UNK         0.1400 
    121 C         -3.0120  -16.0933  -53.7513 C.2       22 UNK         0.5000 
    122 N         -4.2317  -15.5813  -53.6290 N.am      22 UNK        -0.7600 
    123 O         -2.0354  -15.3663  -53.5918 O.2       22 UNK        -0.5000 
    124 C124       -1.8454  -18.3244  -53.1558 C.3       23 UNK        -0.0398 
    125 S125       -2.5847  -18.7333  -51.5361 S.3       23 UNK        -0.2404 
    126 C126       -1.6446  -17.6592  -50.3974 C.3       23 UNK        -0.0205 
    127 H127        6.6568  -13.7269  -43.7441 H         1 UNK         0.0600 
    128 H128        7.0932  -14.5080  -45.2672 H         1 UNK         0.0600 
    129 H129        7.1574  -12.7480  -45.1272 H         1 UNK         0.0600 
    130 H130        5.3183  -15.1863  -46.4213 H         1 UNK         0.3000 
    131 H131        2.6728  -14.6469  -45.7281 H         1 UNK         0.0600 
    132 H132        2.0801  -15.9692  -47.7607 H         1 UNK         0.0800 
    133 H133        3.2405  -16.7493  -46.7361 H         1 UNK         0.0800 
    134 H134        2.6229  -15.0361  -50.2145 H         1 UNK         0.0800 
    135 H135        3.7347  -16.0015  -51.1550 H         1 UNK         0.0800 
    136 H136        0.4112  -15.8816  -50.3072 H         1 UNK         0.1150 
    137 H137       -0.3758  -20.0938  -50.3483 H         1 UNK         0.1150 
    138 H138        3.6645  -18.6734  -50.3225 H         1 UNK         0.1150 
    139 H139        1.3747  -21.6753  -50.4515 H         1 UNK         0.0800 
    140 H140        2.8598  -21.1284  -51.1815 H         1 UNK         0.0800 
    141 H141        1.3042  -20.0735  -47.7945 H         1 UNK         0.0800 
    142 H142        2.5564  -20.5044  -46.6807 H         1 UNK         0.0800 
    143 H143        1.7692  -22.9160  -46.7569 H         1 UNK         0.0600 
    144 H144        0.5656  -20.7680  -45.3596 H         1 UNK         0.3000 
    145 H145       -1.5182  -22.7488  -43.2162 H         1 UNK         0.0600 
    146 H146       -0.2404  -21.4164  -41.5667 H         1 UNK         0.0600 
    147 H147        0.7847  -22.6730  -42.2439 H         1 UNK         0.0600 
    148 H148        0.9675  -21.0073  -42.7821 H         1 UNK         0.0600 
    149 H149       -1.1946  -19.9336  -43.4191 H         1 UNK         0.3000 
    150 H150       -3.7935  -19.3677  -45.8484 H         1 UNK         0.0600 
    151 H151       -4.8429  -19.5634  -43.5843 H         1 UNK         0.0600 
    152 H152       -4.5413  -17.8876  -44.0180 H         1 UNK         0.0600 
    153 H153       -3.4808  -18.7055  -42.8731 H         1 UNK         0.0600 
    154 H154       -2.1042  -17.5023  -44.5839 H         1 UNK         0.3000 
    155 H155        0.5584  -17.5731  -47.0208 H         1 UNK         0.0600 
    156 H156       -1.6417  -15.5964  -46.2133 H         1 UNK         0.0600 
    157 H157       -1.1380  -16.0140  -47.8427 H         1 UNK         0.0600 
    158 H158       -0.0520  -15.1200  -46.7916 H         1 UNK         0.0600 
    159 H159        0.3551  -16.1245  -44.5893 H         1 UNK         0.3000 
    160 H160        1.8316  -18.5562  -42.4177 H         1 UNK         0.0600 
    161 H161        3.2753  -16.5348  -42.0108 H         1 UNK         0.0600 
    162 H162        2.8334  -15.9133  -43.6014 H         1 UNK         0.0600 
    163 H163        3.7370  -17.4099  -43.4631 H         1 UNK         0.0600 
    164 H164        0.7570  -15.8902  -42.1073 H         1 UNK         0.3000 
    165 H165       -2.5327  -16.9239  -41.1707 H         1 UNK         0.0600 
    166 H166       -1.9436  -15.6389  -39.1347 H         1 UNK         0.0600 
    167 H167       -1.1541  -17.2074  -39.1057 H         1 UNK         0.0600 
    168 H168       -0.2253  -15.7690  -39.5115 H         1 UNK         0.0600 
    169 H169       -1.2505  -14.3665  -41.2817 H         1 UNK         0.3000 
    170 H170       -1.8529  -13.6561  -44.7010 H         1 UNK         0.0600 
    171 H171       -4.1013  -13.2411  -43.6895 H         1 UNK         0.0600 
    172 H172       -3.3420  -12.5741  -42.2488 H         1 UNK         0.0600 
    173 H173       -3.1673  -11.7581  -43.8032 H         1 UNK         0.0600 
    174 H174       -0.9421  -11.9628  -42.6460 H         1 UNK         0.3000 
    175 H175        1.1267  -11.7255  -41.9113 H         1 UNK         0.0600 
    176 H176        3.2365  -13.7761  -42.7472 H         1 UNK         0.0600 
    177 H177        3.3923  -12.5554  -41.4916 H         1 UNK         0.0600 
    178 H178        2.2517  -13.8772  -41.2923 H         1 UNK         0.0600 
    179 H179        3.0616  -11.8148  -44.1007 H         1 UNK         0.3000 
    180 H180        1.8324   -8.7405  -45.5365 H         1 UNK         0.0600 
    181 H181        4.3945   -9.4941  -44.0329 H         1 UNK         0.0600 
    182 H182        3.3326   -8.1459  -43.6386 H         1 UNK         0.0600 
    183 H183        4.2111   -8.1518  -45.1605 H         1 UNK         0.0600 
    184 H184        3.5619  -11.1634  -45.9045 H         1 UNK         0.3000 
    185 H185        2.6640  -11.3810  -49.2809 H         1 UNK         0.0600 
    186 H186        4.4746   -9.6929  -49.6164 H         1 UNK         0.0600 
    187 H187        5.4433  -10.4611  -48.3645 H         1 UNK         0.0600 
    188 H188        5.0803  -11.3230  -49.8607 H         1 UNK         0.0600 
    189 H189        4.6771  -12.6970  -47.6978 H         1 UNK         0.3000 
    190 H190       -1.1903  -20.9850  -47.4983 H         1 UNK         0.3000 
    191 H191       -1.8838  -22.2465  -49.9066 H         1 UNK         0.0600 
    192 H192       -3.7747  -21.0526  -47.8068 H         1 UNK         0.0600 
    193 H193       -4.1041  -21.2653  -49.5223 H         1 UNK         0.0600 
    194 H194       -2.8886  -20.1185  -49.0020 H         1 UNK         0.0600 
    195 H195       -2.7502  -23.1282  -46.5369 H         1 UNK         0.3000 
    196 H196       -4.3905  -25.3669  -47.1288 H         1 UNK         0.0600 
    197 H197       -2.6837  -24.7831  -44.6562 H         1 UNK         0.0600 
    198 H198       -3.9563  -25.9927  -44.7584 H         1 UNK         0.0600 
    199 H199       -4.3537  -24.2877  -44.9111 H         1 UNK         0.0600 
    200 H200       -0.8738  -25.1629  -46.4103 H         1 UNK         0.3000 
    201 H201       -0.2612  -27.9048  -46.7000 H         1 UNK         0.0600 
    202 H202        1.5212  -25.4454  -47.1070 H         1 UNK         0.0600 
    203 H203        2.0913  -27.0931  -46.8753 H         1 UNK         0.0600 
    204 H204        1.2326  -26.2740  -45.5792 H         1 UNK         0.0600 
    205 H205       -0.3758  -25.3043  -49.1309 H         1 UNK         0.3000 
    206 H206        0.5406  -26.8836  -51.3580 H         1 UNK         0.0600 
    207 H207        0.8181  -24.4136  -51.2147 H         1 UNK         0.0600 
    208 H208       -0.0830  -24.8603  -52.6526 H         1 UNK         0.0600 
    209 H209       -0.9313  -24.2019  -51.2576 H         1 UNK         0.0600 
    210 H210       -1.3854  -28.3941  -50.1408 H         1 UNK         0.3000 
    211 H211       -3.1598  -29.6886  -50.4295 H         1 UNK         0.0600 
    212 H212       -2.8792  -28.9932  -53.4005 H         1 UNK         0.0600 
    213 H213       -3.6701  -30.4156  -52.7339 H         1 UNK         0.0600 
    214 H214       -1.9369  -30.2136  -52.5455 H         1 UNK         0.0600 
    215 H215       -3.8633  -27.2119  -49.5090 H         1 UNK         0.3000 
    216 H216       -5.5463  -25.8432  -49.0578 H         1 UNK         0.0600 
    217 H217       -6.7665  -27.9569  -48.6042 H         1 UNK         0.0600 
    218 H218       -7.8561  -26.7081  -49.1856 H         1 UNK         0.0600 
    219 H219       -7.3529  -27.9997  -50.2661 H         1 UNK         0.0600 
    220 H220       -4.2749  -24.7154  -50.8791 H         1 UNK         0.3000 
    221 H221       -5.5774  -24.1391  -53.3789 H         1 UNK         0.0600 
    222 H222       -3.4270  -22.5939  -51.8259 H         1 UNK         0.0600 
    223 H223       -3.1260  -23.8583  -53.0161 H         1 UNK         0.0600 
    224 H224       -3.8516  -22.3370  -53.5120 H         1 UNK         0.0600 
    225 H225       -5.8034  -22.7942  -50.1540 H         1 UNK         0.3000 
    226 H226       -6.9911  -21.2112  -49.1439 H         1 UNK         0.0600 
    227 H227       -8.8373  -22.7189  -49.7676 H         1 UNK         0.0600 
    228 H228       -9.4035  -21.0600  -49.7978 H         1 UNK         0.0600 
    229 H229       -9.0571  -21.9041  -51.3080 H         1 UNK         0.0600 
    230 H230       -8.8317  -19.9090  -51.7097 H         1 UNK         0.3000 
    231 H231       -7.5507  -17.3130  -51.4232 H         1 UNK         0.0600 
    232 H232      -10.0232  -17.5643  -51.4653 H         1 UNK         0.0600 
    233 H233       -9.9482  -18.2359  -53.0949 H         1 UNK         0.0600 
    234 H234       -9.4832  -16.5645  -52.8031 H         1 UNK         0.0600 
    235 H235       -7.0098  -19.9480  -53.5967 H         1 UNK         0.3000 
    236 H236       -6.7996  -18.6316  -56.0657 H         1 UNK         0.0600 
    237 H237       -5.3248  -21.1431  -55.1231 H         1 UNK         0.0600 
    238 H238       -6.9583  -21.1029  -55.7873 H         1 UNK         0.0600 
    239 H239       -5.5867  -20.6657  -56.7944 H         1 UNK         0.0600 
    240 H240       -4.4470  -18.7614  -53.4605 H         1 UNK         0.3000 
    241 H241       -2.3054  -17.5671  -55.0872 H         1 UNK         0.0600 
    242 H242       -4.3313  -14.6058  -53.3985 H         1 UNK         0.3800 
    243 H243       -5.0636  -16.1431  -53.7778 H         1 UNK         0.3800 
    244 H244       -1.5322  -19.2649  -53.6105 H         1 UNK         0.0800 
    245 H245       -0.9260  -17.7526  -53.0212 H         1 UNK         0.0800 
    246 H246       -2.0481  -17.7839  -49.3924 H         1 UNK         0.0800 
    247 H247       -1.8233  -16.6200  -50.6777 H         1 UNK         0.0800 
@<TRIPOS>BOND
     1    1    2 1    
     2    1  127 1    
     3    1  128 1    
     4    1  129 1    
     5    2    3 2    
     6    2    4 am   BACKBONE|DICT|INTERRES
     7    4    5 1    
     8    4  130 1    
     9    5    6 1    
    10    5   65 1    
    11    5  131 1    
    12    6    7 1    
    13    6  132 1    
    14    6  133 1    
    15    7    8 1    
    16    8    9 1    
    17    8  134 1    
    18    8  135 1    
    19    9   10 ar   
    20    9   14 ar   
    21   10   11 ar   
    22   10  136 1    
    23   11   12 ar   
    24   11  126 1    
    25   12   13 ar   
    26   12  137 1    
    27   13   14 ar   
    28   13   15 1    
    29   14  138 1    
    30   15   16 1    
    31   15  139 1    
    32   15  140 1    
    33   16   17 1    
    34   17   18 1    
    35   17  141 1    
    36   17  142 1    
    37   18   19 1    
    38   18   67 1    
    39   18  143 1    
    40   19   20 am   BACKBONE|DICT|INTERRES
    41   19  144 1    
    42   20   21 2    
    43   20   22 1    
    44   22   23 1    
    45   22   24 1    
    46   22  145 1    
    47   23  146 1    
    48   23  147 1    
    49   23  148 1    
    50   24   25 am   BACKBONE|DICT|INTERRES
    51   24  149 1    
    52   25   26 2    
    53   25   27 1    
    54   27   28 1    
    55   27   29 1    
    56   27  150 1    
    57   28  151 1    
    58   28  152 1    
    59   28  153 1    
    60   29   30 am   BACKBONE|DICT|INTERRES
    61   29  154 1    
    62   30   31 2    
    63   30   32 1    
    64   32   33 1    
    65   32   34 1    
    66   32  155 1    
    67   33  156 1    
    68   33  157 1    
    69   33  158 1    
    70   34   35 am   BACKBONE|DICT|INTERRES
    71   34  159 1    
    72   35   36 2    
    73   35   37 1    
    74   37   38 1    
    75   37   39 1    
    76   37  160 1    
    77   38  161 1    
    78   38  162 1    
    79   38  163 1    
    80   39   40 am   BACKBONE|DICT|INTERRES
    81   39  164 1    
    82   40   41 2    
    83   40   42 1    
    84   42   43 1    
    85   42   44 1    
    86   42  165 1    
    87   43  166 1    
    88   43  167 1    
    89   43  168 1    
    90   44   45 am   BACKBONE|DICT|INTERRES
    91   44  169 1    
    92   45   46 2    
    93   45   47 1    
    94   47   48 1    
    95   47   49 1    
    96   47  170 1    
    97   48  171 1    
    98   48  172 1    
    99   48  173 1    
   100   49   50 am   BACKBONE|DICT|INTERRES
   101   49  174 1    
   102   50   51 2    
   103   50   52 1    
   104   52   53 1    
   105   52   54 1    
   106   52  175 1    
   107   53  176 1    
   108   53  177 1    
   109   53  178 1    
   110   54   55 am   BACKBONE|DICT|INTERRES
   111   54  179 1    
   112   55   56 2    
   113   55   57 1    
   114   57   58 1    
   115   57   59 1    
   116   57  180 1    
   117   58  181 1    
   118   58  182 1    
   119   58  183 1    
   120   59   60 am   BACKBONE|DICT|INTERRES
   121   59  184 1    
   122   60   61 2    
   123   60   62 1    
   124   62   63 1    
   125   62   64 1    
   126   62  185 1    
   127   63  186 1    
   128   63  187 1    
   129   63  188 1    
   130   64   65 am   BACKBONE|DICT|INTERRES
   131   64  189 1    
   132   65   66 2    
   133   67   68 2    
   134   67   69 am   BACKBONE|DICT|INTERRES
   135   69   70 1    
   136   69  190 1    
   137   70   71 1    
   138   70   72 1    
   139   70  191 1    
   140   71  192 1    
   141   71  193 1    
   142   71  194 1    
   143   72   73 2    
   144   72   74 am   BACKBONE|DICT|INTERRES
   145   74   75 1    
   146   74  195 1    
   147   75   76 1    
   148   75   77 1    
   149   75  196 1    
   150   76  197 1    
   151   76  198 1    
   152   76  199 1    
   153   77   78 2    
   154   77   79 am   BACKBONE|DICT|INTERRES
   155   79   80 1    
   156   79  200 1    
   157   80   81 1    
   158   80   82 1    
   159   80  201 1    
   160   81  202 1    
   161   81  203 1    
   162   81  204 1    
   163   82   83 2    
   164   82   84 am   BACKBONE|DICT|INTERRES
   165   84   85 1    
   166   84  205 1    
   167   85   86 1    
   168   85   87 1    
   169   85  206 1    
   170   86  207 1    
   171   86  208 1    
   172   86  209 1    
   173   87   88 2    
   174   87   89 am   BACKBONE|DICT|INTERRES
   175   89   90 1    
   176   89  210 1    
   177   90   91 1    
   178   90   92 1    
   179   90  211 1    
   180   91  212 1    
   181   91  213 1    
   182   91  214 1    
   183   92   93 2    
   184   92   94 am   BACKBONE|DICT|INTERRES
   185   94   95 1    
   186   94  215 1    
   187   95   96 1    
   188   95   97 1    
   189   95  216 1    
   190   96  217 1    
   191   96  218 1    
   192   96  219 1    
   193   97   98 2    
   194   97   99 am   BACKBONE|DICT|INTERRES
   195   99  100 1    
   196   99  220 1    
   197  100  101 1    
   198  100  102 1    
   199  100  221 1    
   200  101  222 1    
   201  101  223 1    
   202  101  224 1    
   203  102  103 2    
   204  102  104 am   BACKBONE|DICT|INTERRES
   205  104  105 1    
   206  104  225 1    
   207  105  106 1    
   208  105  107 1    
   209  105  226 1    
   210  106  227 1    
   211  106  228 1    
   212  106  229 1    
   213  107  108 2    
   214  107  109 am   BACKBONE|DICT|INTERRES
   215  109  110 1    
   216  109  230 1    
   217  110  111 1    
   218  110  112 1    
   219  110  231 1    
   220  111  232 1    
   221  111  233 1    
   222  111  234 1    
   223  112  113 2    
   224  112  114 am   BACKBONE|DICT|INTERRES
   225  114  115 1    
   226  114  235 1    
   227  115  116 1    
   228  115  117 1    
   229  115  236 1    
   230  116  237 1    
   231  116  238 1    
   232  116  239 1    
   233  117  118 2    
   234  117  119 am   BACKBONE|DICT|INTERRES
   235  119  120 1    
   236  119  240 1    
   237  120  121 1    
   238  120  124 1    
   239  120  241 1    
   240  121  122 am   BACKBONE|DICT|INTERRES
   241  121  123 2    
   242  122  242 1    
   243  122  243 1    
   244  124  125 1    
   245  124  244 1    
   246  124  245 1    
   247  125  126 1    
   248  126  246 1    
   249  126  247 1    
@<TRIPOS>SUBSTRUCTURE
     1 UNK         1 GROUP             0       ****    0 ROOT    
