@<TRIPOS>MOLECULE
3R540
247   249    1
SMALL
USER_CHARGES


@<TRIPOS>ATOM
      1 CA         -2.0164  -12.7795  -47.9919 C.3       0 UNK        -0.1800 
      2 C          -0.6737  -13.2103  -48.5651 C.2       0 UNK         0.5000 
      3 O          -0.6230  -13.7529  -49.6670 O.2       0 UNK        -0.5000 
      4 N           0.4081  -12.9713  -47.8202 N.am      1 UNK        -0.5000 
      5 CA          1.7874  -13.3003  -48.1701 C.3       1 UNK         0.1400 
      6 C6          2.1141  -14.7862  -47.8680 C.3       23 UNK        -0.0398 
      7 S7          3.6490  -15.4037  -48.6435 S.3       23 UNK        -0.2404 
      8 C8          3.0733  -15.9913  -50.2738 C.3       23 UNK        -0.0205 
      9 C9          2.0019  -17.0686  -50.1727 C.ar      23 UNK        -0.0193 
     10 C10         0.6836  -16.7778  -50.5306 C.ar      23 UNK        -0.1150 
     11 C11        -0.3212  -17.7405  -50.4065 C.ar      23 UNK        -0.0193 
     12 C12         0.0025  -19.0110  -49.9209 C.ar      23 UNK        -0.1150 
     13 C13         1.3196  -19.3165  -49.5620 C.ar      23 UNK        -0.0193 
     14 C14         2.3170  -18.3459  -49.7028 C.ar      23 UNK        -0.1150 
     15 C15         1.6615  -20.6739  -48.9707 C.3       23 UNK        -0.0205 
     16 S16         1.8336  -20.5308  -47.1682 S.3       23 UNK        -0.2404 
     17 C17         2.1294  -22.2478  -46.6480 C.3       23 UNK        -0.0398 
     18 CA          0.9016  -22.9763  -46.0480 C.3       11 UNK         0.1400 
     19 N           0.2557  -22.2837  -44.9250 N.am      11 UNK        -0.5000 
     20 C          -0.5528  -22.9122  -44.0562 C.2       10 UNK         0.5000 
     21 O          -0.8023  -24.1171  -44.1147 O.2       10 UNK        -0.5000 
     22 CA         -1.2293  -22.0670  -42.9629 C.3       10 UNK         0.1400 
     23 CB         -0.2363  -21.6902  -41.8530 C.3       10 UNK        -0.1800 
     24 N          -1.8810  -20.8685  -43.4880 N.am      10 UNK        -0.5000 
     25 C          -2.9228  -20.8822  -44.3317 C.2       9 UNK         0.5000 
     26 O          -3.4456  -21.9123  -44.7558 O.2       9 UNK        -0.5000 
     27 CA         -3.4564  -19.5185  -44.8065 C.3       9 UNK         0.1400 
     28 CB         -4.4065  -18.9083  -43.7656 C.3       9 UNK        -0.1800 
     29 N          -2.3891  -18.5678  -45.1082 N.am      9 UNK        -0.5000 
     30 C          -1.4736  -18.7358  -46.0731 C.2       8 UNK         0.5000 
     31 O          -1.4573  -19.6947  -46.8429 O.2       8 UNK        -0.5000 
     32 CA         -0.3710  -17.6660  -46.1529 C.3       8 UNK         0.1400 
     33 CB         -0.9325  -16.3763  -46.7742 C.3       8 UNK        -0.1800 
     34 N           0.2136  -17.3698  -44.8411 N.am      8 UNK        -0.5000 
     35 C           0.7807  -18.2669  -44.0170 C.2       7 UNK         0.5000 
     36 O           0.9202  -19.4606  -44.2769 O.2       7 UNK        -0.5000 
     37 CA          1.1985  -17.7580  -42.6278 C.3       7 UNK         0.1400 
     38 CB          2.5556  -17.0404  -42.6796 C.3       7 UNK        -0.1800 
     39 N           0.1836  -16.8773  -42.0509 N.am      7 UNK        -0.5000 
     40 C          -1.0337  -17.2844  -41.6609 C.2       6 UNK         0.5000 
     41 O          -1.4038  -18.4580  -41.6849 O.2       6 UNK        -0.5000 
     42 CA         -2.0153  -16.1851  -41.2154 C.3       6 UNK         0.1400 
     43 CB         -1.7927  -15.8250  -39.7390 C.3       6 UNK        -0.1800 
     44 N          -1.8983  -14.9762  -42.0331 N.am      6 UNK        -0.5000 
     45 C          -2.2268  -14.9064  -43.3316 C.2       5 UNK         0.5000 
     46 O          -2.7387  -15.8369  -43.9531 O.2       5 UNK        -0.5000 
     47 CA         -1.8713  -13.5981  -44.0666 C.3       5 UNK         0.1400 
     48 CB         -3.0303  -12.5947  -43.9861 C.3       5 UNK        -0.1800 
     49 N          -0.6479  -12.9785  -43.5447 N.am      5 UNK        -0.5000 
     50 C           0.5730  -13.5075  -43.6927 C.2       4 UNK         0.5000 
     51 O           0.7968  -14.5193  -44.3626 O.2       4 UNK        -0.5000 
     52 CA          1.7147  -12.8511  -42.9039 C.3       4 UNK         0.1400 
     53 CB          1.6429  -13.3034  -41.4288 C.3       4 UNK        -0.1800 
     54 N           2.9738  -13.2510  -43.5268 N.am      4 UNK        -0.5000 
     55 C           4.2183  -12.9391  -43.1469 C.2       3 UNK         0.5000 
     56 O           4.4961  -12.2523  -42.1633 O.2       3 UNK        -0.5000 
     57 CA          5.3468  -13.4578  -44.0578 C.3       3 UNK         0.1400 
     58 CB          5.4039  -14.9949  -44.0695 C.3       3 UNK        -0.1800 
     59 N           5.1937  -12.9664  -45.4267 N.am      3 UNK        -0.5000 
     60 C           5.3469  -11.6867  -45.7979 C.2       2 UNK         0.5000 
     61 O           5.7522  -10.7986  -45.0471 O.2       2 UNK        -0.5000 
     62 CA          4.9750  -11.3312  -47.2513 C.3       2 UNK         0.1400 
     63 CB          6.2234  -11.3530  -48.1465 C.3       2 UNK        -0.1800 
     64 N           3.9550  -12.2067  -47.8360 N.am      2 UNK        -0.5000 
     65 C           2.6932  -12.3207  -47.4019 C.2       1 UNK         0.5000 
     66 O           2.2415  -11.6961  -46.4368 O.2       1 UNK        -0.5000 
     67 C          -0.1088  -23.4220  -47.1225 C.2       11 UNK         0.5000 
     68 O           0.0570  -24.5130  -47.6669 O.2       11 UNK        -0.5000 
     69 N          -1.1591  -22.6237  -47.3710 N.am      12 UNK        -0.5000 
     70 CA         -2.2689  -22.9882  -48.2547 C.3       12 UNK         0.1400 
     71 CB         -3.2182  -21.7943  -48.4348 C.3       12 UNK        -0.1800 
     72 C          -3.0362  -24.2273  -47.7612 C.2       12 UNK         0.5000 
     73 O          -3.3140  -25.1226  -48.5568 O.2       12 UNK        -0.5000 
     74 N          -3.3221  -24.2867  -46.4532 N.am      13 UNK        -0.5000 
     75 CA         -3.9514  -25.4369  -45.8040 C.3       13 UNK         0.1400 
     76 CB         -4.3395  -25.0687  -44.3640 C.3       13 UNK        -0.1800 
     77 C          -3.0651  -26.6966  -45.8262 C.2       13 UNK         0.5000 
     78 O          -3.5784  -27.7909  -46.0620 O.2       13 UNK        -0.5000 
     79 N          -1.7575  -26.5214  -45.5897 N.am      14 UNK        -0.5000 
     80 CA         -0.7692  -27.5995  -45.5730 C.3       14 UNK         0.1400 
     81 CB          0.5352  -27.0921  -44.9393 C.3       14 UNK        -0.1800 
     82 C          -0.5008  -28.1973  -46.9663 C.2       14 UNK         0.5000 
     83 O          -0.4984  -29.4208  -47.1094 O.2       14 UNK        -0.5000 
     84 N          -0.2673  -27.3327  -47.9627 N.am      15 UNK        -0.5000 
     85 CA          0.0710  -27.7310  -49.3315 C.3       15 UNK         0.1400 
     86 CB          0.8188  -26.5765  -50.0173 C.3       15 UNK        -0.1800 
     87 C          -1.1521  -28.1395  -50.1728 C.2       15 UNK         0.5000 
     88 O          -0.9811  -28.8679  -51.1515 O.2       15 UNK        -0.5000 
     89 N          -2.3385  -27.6500  -49.7834 N.am      16 UNK        -0.5000 
     90 CA         -3.6162  -27.6470  -50.5038 C.3       16 UNK         0.1400 
     91 CB         -4.0277  -29.0510  -50.9911 C.3       16 UNK        -0.1800 
     92 C          -3.6272  -26.6108  -51.6464 C.2       16 UNK         0.5000 
     93 O          -2.5789  -26.2733  -52.2029 O.2       16 UNK        -0.5000 
     94 N          -4.8321  -26.1193  -51.9695 N.am      17 UNK        -0.5000 
     95 CA         -5.1077  -25.0311  -52.9138 C.3       17 UNK         0.1400 
     96 CB         -4.7949  -25.4616  -54.3655 C.3       17 UNK        -0.1800 
     97 C          -4.4273  -23.7167  -52.4689 C.2       17 UNK         0.5000 
     98 O          -4.5863  -23.3337  -51.3089 O.2       17 UNK        -0.5000 
     99 N          -3.7143  -23.0435  -53.3845 N.am      18 UNK        -0.5000 
    100 CA        -2.9606  -21.7885  -53.2370 C.3       18 UNK         0.1400 
    101 CB        -1.8308  -21.9179  -52.1985 C.3       18 UNK        -0.1800 
    102 C         -3.8353  -20.5537  -52.9540 C.2       18 UNK         0.5000 
    103 O         -3.7664  -19.5819  -53.7048 O.2       18 UNK        -0.5000 
    104 N         -4.6782  -20.6201  -51.9161 N.am      19 UNK        -0.5000 
    105 CA        -5.5931  -19.5603  -51.4822 C.3       19 UNK         0.1400 
    106 CB        -6.3424  -20.0211  -50.2239 C.3       19 UNK        -0.1800 
    107 C         -6.5852  -19.1126  -52.5733 C.2       19 UNK         0.5000 
    108 O         -6.9332  -17.9333  -52.6334 O.2       19 UNK        -0.5000 
    109 N         -6.9762  -20.0512  -53.4462 N.am      20 UNK        -0.5000 
    110 CA        -7.8151  -19.8119  -54.6208 C.3       20 UNK         0.1400 
    111 CB        -8.2346  -21.1659  -55.2138 C.3       20 UNK        -0.1800 
    112 C         -7.1355  -18.9397  -55.6967 C.2       20 UNK         0.5000 
    113 O         -7.8356  -18.2414  -56.4309 O.2       20 UNK        -0.5000 
    114 N         -5.7977  -18.9876  -55.7710 N.am      21 UNK        -0.5000 
    115 CA        -4.9911  -18.1422  -56.6502 C.3       21 UNK         0.1400 
    116 CB        -3.7136  -18.8918  -57.0610 C.3       21 UNK        -0.1800 
    117 C         -4.6504  -16.8049  -55.9710 C.2       21 UNK         0.5000 
    118 O         -4.6697  -15.7695  -56.6381 O.2       21 UNK        -0.5000 
    119 N         -4.3558  -16.8472  -54.6637 N.am      22 UNK        -0.5000 
    120 CA        -4.0827  -15.6650  -53.8300 C.3       22 UNK         0.1400 
    121 C         -5.3040  -14.7158  -53.6700 C.2       22 UNK         0.5000 
    122 N         -6.5144  -15.2330  -53.4989 N.am      22 UNK        -0.7600 
    123 O         -5.1507  -13.4979  -53.7029 O.2       22 UNK        -0.5000 
    124 C124       -3.5252  -16.0429  -52.4359 C.3       23 UNK        -0.0398 
    125 S125       -1.9673  -16.9862  -52.5082 S.3       23 UNK        -0.2404 
    126 C126       -1.7589  -17.3747  -50.7425 C.3       23 UNK        -0.0205 
    127 H127       -2.6218  -13.6557  -47.7594 H         1 UNK         0.0600 
    128 H128       -2.5575  -12.1717  -48.7170 H         1 UNK         0.0600 
    129 H129       -1.8980  -12.1935  -47.0802 H         1 UNK         0.0600 
    130 H130        0.3340  -12.4632  -46.9470 H         1 UNK         0.3000 
    131 H131        1.9227  -13.1094  -49.2369 H         1 UNK         0.0600 
    132 H132        2.1749  -14.9577  -46.7917 H         1 UNK         0.0800 
    133 H133        1.2966  -15.4156  -48.2107 H         1 UNK         0.0800 
    134 H134        2.7087  -15.1388  -50.8491 H         1 UNK         0.0800 
    135 H135        3.9261  -16.3883  -50.8261 H         1 UNK         0.0800 
    136 H136        0.4297  -15.7908  -50.8903 H         1 UNK         0.1150 
    137 H137       -0.7730  -19.7526  -49.7924 H         1 UNK         0.1150 
    138 H138        3.3324  -18.5726  -49.4091 H         1 UNK         0.1150 
    139 H139        0.8859  -21.4023  -49.2117 H         1 UNK         0.0800 
    140 H140        2.5917  -21.0454  -49.4027 H         1 UNK         0.0800 
    141 H141        2.5492  -22.8163  -47.4800 H         1 UNK         0.0800 
    142 H142        2.9180  -22.2160  -45.8952 H         1 UNK         0.0800 
    143 H143        1.3041  -23.9032  -45.6340 H         1 UNK         0.0600 
    144 H144        0.4246  -21.2844  -44.8329 H         1 UNK         0.3000 
    145 H145       -2.0076  -22.6852  -42.5102 H         1 UNK         0.0600 
    146 H146       -0.7331  -21.1513  -41.0462 H         1 UNK         0.0600 
    147 H147        0.2161  -22.5821  -41.4179 H         1 UNK         0.0600 
    148 H148        0.5728  -21.0631  -42.2251 H         1 UNK         0.0600 
    149 H149       -1.5227  -19.9766  -43.1664 H         1 UNK         0.3000 
    150 H150       -4.0218  -19.6845  -45.7256 H         1 UNK         0.0600 
    151 H151       -5.2307  -19.5874  -43.5442 H         1 UNK         0.0600 
    152 H152       -4.8402  -17.9757  -44.1273 H         1 UNK         0.0600 
    153 H153       -3.8942  -18.6954  -42.8271 H         1 UNK         0.0600 
    154 H154       -2.3562  -17.7217  -44.5485 H         1 UNK         0.3000 
    155 H155        0.4326  -18.0310  -46.7933 H         1 UNK         0.0600 
    156 H156       -1.9206  -16.1235  -46.3917 H         1 UNK         0.0600 
    157 H157       -1.0269  -16.4812  -47.8544 H         1 UNK         0.0600 
    158 H158       -0.2876  -15.5228  -46.5804 H         1 UNK         0.0600 
    159 H159        0.1965  -16.3978  -44.5519 H         1 UNK         0.3000 
    160 H160        1.3038  -18.6252  -41.9723 H         1 UNK         0.0600 
    161 H161        2.5243  -16.1574  -43.3153 H         1 UNK         0.0600 
    162 H162        3.3279  -17.6998  -43.0776 H         1 UNK         0.0600 
    163 H163        2.8765  -16.7279  -41.6859 H         1 UNK         0.0600 
    164 H164        0.3931  -15.8922  -42.0327 H         1 UNK         0.3000 
    165 H165       -3.0289  -16.5768  -41.3250 H         1 UNK         0.0600 
    166 H166       -2.5283  -15.0975  -39.3957 H         1 UNK         0.0600 
    167 H167       -1.8889  -16.7070  -39.1044 H         1 UNK         0.0600 
    168 H168       -0.8002  -15.4053  -39.5696 H         1 UNK         0.0600 
    169 H169       -1.5039  -14.1607  -41.5897 H         1 UNK         0.3000 
    170 H170       -1.7085  -13.8455  -45.1173 H         1 UNK         0.0600 
    171 H171       -3.9464  -13.0248  -44.3933 H         1 UNK         0.0600 
    172 H172       -3.2360  -12.2963  -42.9574 H         1 UNK         0.0600 
    173 H173       -2.8125  -11.6942  -44.5606 H         1 UNK         0.0600 
    174 H174       -0.7631  -12.1430  -42.9886 H         1 UNK         0.3000 
    175 H175        1.6160  -11.7664  -42.9731 H         1 UNK         0.0600 
    176 H176        1.8578  -14.3667  -41.3221 H         1 UNK         0.0600 
    177 H177        2.3509  -12.7587  -40.8054 H         1 UNK         0.0600 
    178 H178        0.6555  -13.1222  -41.0030 H         1 UNK         0.0600 
    179 H179        2.8377  -13.8151  -44.3553 H         1 UNK         0.3000 
    180 H180        6.2947  -13.0881  -43.6609 H         1 UNK         0.0600 
    181 H181        4.5309  -15.4330  -44.5542 H         1 UNK         0.0600 
    182 H182        5.4530  -15.3931  -43.0551 H         1 UNK         0.0600 
    183 H183        6.2883  -15.3486  -44.5995 H         1 UNK         0.0600 
    184 H184        4.8739  -13.6275  -46.1185 H         1 UNK         0.3000 
    185 H185        4.5761  -10.3147  -47.2455 H         1 UNK         0.0600 
    186 H186        6.9972  -10.6912  -47.7550 H         1 UNK         0.0600 
    187 H187        6.6515  -12.3539  -48.2153 H         1 UNK         0.0600 
    188 H188        5.9912  -11.0160  -49.1570 H         1 UNK         0.0600 
    189 H189        4.2499  -12.7715  -48.6204 H         1 UNK         0.3000 
    190 H190       -1.2121  -21.7129  -46.9242 H         1 UNK         0.3000 
    191 H191       -1.8455  -23.2384  -49.2290 H         1 UNK         0.0600 
    192 H192       -3.6100  -21.4433  -47.4807 H         1 UNK         0.0600 
    193 H193       -4.0714  -22.0651  -49.0558 H         1 UNK         0.0600 
    194 H194       -2.7164  -20.9578  -48.9201 H         1 UNK         0.0600 
    195 H195       -3.1069  -23.4895  -45.8610 H         1 UNK         0.3000 
    196 H196       -4.8678  -25.6682  -46.3510 H         1 UNK         0.0600 
    197 H197       -4.8176  -25.9095  -43.8600 H         1 UNK         0.0600 
    198 H198       -5.0434  -24.2365  -44.3472 H         1 UNK         0.0600 
    199 H199       -3.4695  -24.7813  -43.7728 H         1 UNK         0.0600 
    200 H200       -1.4261  -25.5932  -45.3467 H         1 UNK         0.3000 
    201 H201       -1.1578  -28.3992  -44.9388 H         1 UNK         0.0600 
    202 H202        0.3664  -26.7304  -43.9249 H         1 UNK         0.0600 
    203 H203        0.9731  -26.2779  -45.5165 H         1 UNK         0.0600 
    204 H204        1.2772  -27.8894  -44.8814 H         1 UNK         0.0600 
    205 H205       -0.2625  -26.3329  -47.7690 H         1 UNK         0.3000 
    206 H206        0.7456  -28.5889  -49.2895 H         1 UNK         0.0600 
    207 H207        1.7023  -26.2833  -49.4500 H         1 UNK         0.0600 
    208 H208        1.1520  -26.8652  -51.0149 H         1 UNK         0.0600 
    209 H209        0.1824  -25.6972  -50.1277 H         1 UNK         0.0600 
    210 H210       -2.3268  -27.0192  -48.9910 H         1 UNK         0.3000 
    211 H211       -4.3551  -27.3273  -49.7675 H         1 UNK         0.0600 
    212 H212       -3.4181  -29.3902  -51.8288 H         1 UNK         0.0600 
    213 H213       -5.0640  -29.0532  -51.3301 H         1 UNK         0.0600 
    214 H214       -3.9458  -29.7878  -50.1920 H         1 UNK         0.0600 
    215 H215       -5.6309  -26.4354  -51.4379 H         1 UNK         0.3000 
    216 H216       -6.1808  -24.8440  -52.8552 H         1 UNK         0.0600 
    217 H217       -5.1319  -24.7113  -55.0818 H         1 UNK         0.0600 
    218 H218       -5.3106  -26.3893  -54.6138 H         1 UNK         0.0600 
    219 H219       -3.7293  -25.6255  -54.5289 H         1 UNK         0.0600 
    220 H220       -3.6693  -23.4502  -54.3083 H         1 UNK         0.3000 
    221 H221       -2.4875  -21.6168  -54.2052 H         1 UNK         0.0600 
    222 H222       -2.2206  -22.0546  -51.1917 H         1 UNK         0.0600 
    223 H223       -1.1808  -22.7633  -52.4240 H         1 UNK         0.0600 
    224 H224       -1.2099  -21.0210  -52.1860 H         1 UNK         0.0600 
    225 H225       -4.7028  -21.4969  -51.4001 H         1 UNK         0.3000 
    226 H226       -4.9856  -18.6954  -51.2149 H         1 UNK         0.0600 
    227 H227       -5.6526  -20.2063  -49.4008 H         1 UNK         0.0600 
    228 H228       -7.0483  -19.2607  -49.8871 H         1 UNK         0.0600 
    229 H229       -6.9054  -20.9377  -50.4040 H         1 UNK         0.0600 
    230 H230       -6.6340  -20.9913  -53.3163 H         1 UNK         0.3000 
    231 H231       -8.7146  -19.2874  -54.2915 H         1 UNK         0.0600 
    232 H232       -8.8847  -21.0287  -56.0790 H         1 UNK         0.0600 
    233 H233       -8.7860  -21.7620  -54.4864 H         1 UNK         0.0600 
    234 H234       -7.3714  -21.7471  -55.5408 H         1 UNK         0.0600 
    235 H235       -5.2863  -19.5357  -55.0903 H         1 UNK         0.3000 
    236 H236       -5.5531  -17.9238  -57.5608 H         1 UNK         0.0600 
    237 H237       -3.9513  -19.8343  -57.5543 H         1 UNK         0.0600 
    238 H238       -3.1248  -18.2978  -57.7610 H         1 UNK         0.0600 
    239 H239       -3.0752  -19.1127  -56.2055 H         1 UNK         0.0600 
    240 H240       -4.2834  -17.7504  -54.2072 H         1 UNK         0.3000 
    241 H241       -3.3085  -15.0908  -54.3430 H         1 UNK         0.0600 
    242 H242       -7.3052  -14.6170  -53.4011 H         1 UNK         0.3800 
    243 H243       -6.6443  -16.2347  -53.3793 H         1 UNK         0.3800 
    244 H244       -3.3326  -15.1414  -51.8507 H         1 UNK         0.0800 
    245 H245       -4.2635  -16.6176  -51.8769 H         1 UNK         0.0800 
    246 H246       -2.0423  -16.5083  -50.1429 H         1 UNK         0.0800 
    247 H247       -2.4419  -18.1811  -50.4703 H         1 UNK         0.0800 
@<TRIPOS>BOND
     1    1    2 1    
     2    1  127 1    
     3    1  128 1    
     4    1  129 1    
     5    2    3 2    
     6    2    4 am   BACKBONE|DICT|INTERRES
     7    4    5 1    
     8    4  130 1    
     9    5    6 1    
    10    5   65 1    
    11    5  131 1    
    12    6    7 1    
    13    6  132 1    
    14    6  133 1    
    15    7    8 1    
    16    8    9 1    
    17    8  134 1    
    18    8  135 1    
    19    9   10 ar   
    20    9   14 ar   
    21   10   11 ar   
    22   10  136 1    
    23   11   12 ar   
    24   11  126 1    
    25   12   13 ar   
    26   12  137 1    
    27   13   14 ar   
    28   13   15 1    
    29   14  138 1    
    30   15   16 1    
    31   15  139 1    
    32   15  140 1    
    33   16   17 1    
    34   17   18 1    
    35   17  141 1    
    36   17  142 1    
    37   18   19 1    
    38   18   67 1    
    39   18  143 1    
    40   19   20 am   BACKBONE|DICT|INTERRES
    41   19  144 1    
    42   20   21 2    
    43   20   22 1    
    44   22   23 1    
    45   22   24 1    
    46   22  145 1    
    47   23  146 1    
    48   23  147 1    
    49   23  148 1    
    50   24   25 am   BACKBONE|DICT|INTERRES
    51   24  149 1    
    52   25   26 2    
    53   25   27 1    
    54   27   28 1    
    55   27   29 1    
    56   27  150 1    
    57   28  151 1    
    58   28  152 1    
    59   28  153 1    
    60   29   30 am   BACKBONE|DICT|INTERRES
    61   29  154 1    
    62   30   31 2    
    63   30   32 1    
    64   32   33 1    
    65   32   34 1    
    66   32  155 1    
    67   33  156 1    
    68   33  157 1    
    69   33  158 1    
    70   34   35 am   BACKBONE|DICT|INTERRES
    71   34  159 1    
    72   35   36 2    
    73   35   37 1    
    74   37   38 1    
    75   37   39 1    
    76   37  160 1    
    77   38  161 1    
    78   38  162 1    
    79   38  163 1    
    80   39   40 am   BACKBONE|DICT|INTERRES
    81   39  164 1    
    82   40   41 2    
    83   40   42 1    
    84   42   43 1    
    85   42   44 1    
    86   42  165 1    
    87   43  166 1    
    88   43  167 1    
    89   43  168 1    
    90   44   45 am   BACKBONE|DICT|INTERRES
    91   44  169 1    
    92   45   46 2    
    93   45   47 1    
    94   47   48 1    
    95   47   49 1    
    96   47  170 1    
    97   48  171 1    
    98   48  172 1    
    99   48  173 1    
   100   49   50 am   BACKBONE|DICT|INTERRES
   101   49  174 1    
   102   50   51 2    
   103   50   52 1    
   104   52   53 1    
   105   52   54 1    
   106   52  175 1    
   107   53  176 1    
   108   53  177 1    
   109   53  178 1    
   110   54   55 am   BACKBONE|DICT|INTERRES
   111   54  179 1    
   112   55   56 2    
   113   55   57 1    
   114   57   58 1    
   115   57   59 1    
   116   57  180 1    
   117   58  181 1    
   118   58  182 1    
   119   58  183 1    
   120   59   60 am   BACKBONE|DICT|INTERRES
   121   59  184 1    
   122   60   61 2    
   123   60   62 1    
   124   62   63 1    
   125   62   64 1    
   126   62  185 1    
   127   63  186 1    
   128   63  187 1    
   129   63  188 1    
   130   64   65 am   BACKBONE|DICT|INTERRES
   131   64  189 1    
   132   65   66 2    
   133   67   68 2    
   134   67   69 am   BACKBONE|DICT|INTERRES
   135   69   70 1    
   136   69  190 1    
   137   70   71 1    
   138   70   72 1    
   139   70  191 1    
   140   71  192 1    
   141   71  193 1    
   142   71  194 1    
   143   72   73 2    
   144   72   74 am   BACKBONE|DICT|INTERRES
   145   74   75 1    
   146   74  195 1    
   147   75   76 1    
   148   75   77 1    
   149   75  196 1    
   150   76  197 1    
   151   76  198 1    
   152   76  199 1    
   153   77   78 2    
   154   77   79 am   BACKBONE|DICT|INTERRES
   155   79   80 1    
   156   79  200 1    
   157   80   81 1    
   158   80   82 1    
   159   80  201 1    
   160   81  202 1    
   161   81  203 1    
   162   81  204 1    
   163   82   83 2    
   164   82   84 am   BACKBONE|DICT|INTERRES
   165   84   85 1    
   166   84  205 1    
   167   85   86 1    
   168   85   87 1    
   169   85  206 1    
   170   86  207 1    
   171   86  208 1    
   172   86  209 1    
   173   87   88 2    
   174   87   89 am   BACKBONE|DICT|INTERRES
   175   89   90 1    
   176   89  210 1    
   177   90   91 1    
   178   90   92 1    
   179   90  211 1    
   180   91  212 1    
   181   91  213 1    
   182   91  214 1    
   183   92   93 2    
   184   92   94 am   BACKBONE|DICT|INTERRES
   185   94   95 1    
   186   94  215 1    
   187   95   96 1    
   188   95   97 1    
   189   95  216 1    
   190   96  217 1    
   191   96  218 1    
   192   96  219 1    
   193   97   98 2    
   194   97   99 am   BACKBONE|DICT|INTERRES
   195   99  100 1    
   196   99  220 1    
   197  100  101 1    
   198  100  102 1    
   199  100  221 1    
   200  101  222 1    
   201  101  223 1    
   202  101  224 1    
   203  102  103 2    
   204  102  104 am   BACKBONE|DICT|INTERRES
   205  104  105 1    
   206  104  225 1    
   207  105  106 1    
   208  105  107 1    
   209  105  226 1    
   210  106  227 1    
   211  106  228 1    
   212  106  229 1    
   213  107  108 2    
   214  107  109 am   BACKBONE|DICT|INTERRES
   215  109  110 1    
   216  109  230 1    
   217  110  111 1    
   218  110  112 1    
   219  110  231 1    
   220  111  232 1    
   221  111  233 1    
   222  111  234 1    
   223  112  113 2    
   224  112  114 am   BACKBONE|DICT|INTERRES
   225  114  115 1    
   226  114  235 1    
   227  115  116 1    
   228  115  117 1    
   229  115  236 1    
   230  116  237 1    
   231  116  238 1    
   232  116  239 1    
   233  117  118 2    
   234  117  119 am   BACKBONE|DICT|INTERRES
   235  119  120 1    
   236  119  240 1    
   237  120  121 1    
   238  120  124 1    
   239  120  241 1    
   240  121  122 am   BACKBONE|DICT|INTERRES
   241  121  123 2    
   242  122  242 1    
   243  122  243 1    
   244  124  125 1    
   245  124  244 1    
   246  124  245 1    
   247  125  126 1    
   248  126  246 1    
   249  126  247 1    
@<TRIPOS>SUBSTRUCTURE
     1 UNK         1 GROUP             0       ****    0 ROOT    
