@<TRIPOS>MOLECULE
3R540
247   249    1
SMALL
USER_CHARGES


@<TRIPOS>ATOM
      1 CA          1.0500   -8.9012  -50.4595 C.3       0 UNK        -0.1800 
      2 C           1.8420  -10.2003  -50.4086 C.2       0 UNK         0.5000 
      3 O           2.8513  -10.3303  -51.1021 O.2       0 UNK        -0.5000 
      4 N           1.3855  -11.1627  -49.5978 N.am      1 UNK        -0.5000 
      5 CA          2.0503  -12.4471  -49.3663 C.3       1 UNK         0.1400 
      6 C6          1.0943  -13.4498  -48.6766 C.3       23 UNK        -0.0398 
      7 S7          1.6610  -15.1820  -48.8087 S.3       23 UNK        -0.2404 
      8 C8          0.7590  -15.7720  -50.2792 C.3       23 UNK        -0.0205 
      9 C9         -0.7420  -15.8699  -50.0441 C.ar      23 UNK        -0.0193 
     10 C10        -1.6059  -14.9152  -50.5874 C.ar      23 UNK        -0.1150 
     11 C11        -2.9844  -14.9873  -50.3676 C.ar      23 UNK        -0.0193 
     12 C12        -3.4950  -16.0431  -49.6010 C.ar      23 UNK        -0.1150 
     13 C13        -2.6480  -17.0236  -49.0755 C.ar      23 UNK        -0.0193 
     14 C14        -1.2692  -16.9210  -49.2907 C.ar      23 UNK        -0.1150 
     15 C15        -3.2307  -18.1687  -48.2544 C.3       23 UNK        -0.0205 
     16 S16        -2.5429  -19.7937  -48.7160 S.3       23 UNK        -0.2404 
     17 C17        -3.2705  -20.8734  -47.4389 C.3       23 UNK        -0.0398 
     18 CA         -2.2745  -21.9723  -46.9960 C.3       11 UNK         0.1400 
     19 N          -1.2058  -21.4626  -46.1293 N.am      11 UNK        -0.5000 
     20 C          -0.1192  -22.1655  -45.7777 C.2       10 UNK         0.5000 
     21 O           0.1123  -23.3045  -46.1780 O.2       10 UNK        -0.5000 
     22 CA          0.8384  -21.5258  -44.7573 C.3       10 UNK         0.1400 
     23 CB          1.7203  -20.4511  -45.4116 C.3       10 UNK        -0.1800 
     24 N           0.1286  -20.9657  -43.6086 N.am      10 UNK        -0.5000 
     25 C          -0.6120  -21.6804  -42.7492 C.2       9 UNK         0.5000 
     26 O          -0.7343  -22.9038  -42.8036 O.2       9 UNK        -0.5000 
     27 CA         -1.3847  -20.8924  -41.6776 C.3       9 UNK         0.1400 
     28 CB         -0.4891  -20.5769  -40.4700 C.3       9 UNK        -0.1800 
     29 N          -1.9535  -19.6541  -42.2088 N.am      9 UNK        -0.5000 
     30 C          -2.9519  -19.6013  -43.1019 C.2       8 UNK         0.5000 
     31 O          -3.5276  -20.5934  -43.5485 O.2       8 UNK        -0.5000 
     32 CA         -3.3330  -18.2033  -43.6222 C.3       8 UNK         0.1400 
     33 CB         -4.2479  -17.4791  -42.6237 C.3       8 UNK        -0.1800 
     34 N          -2.1639  -17.3692  -43.9054 N.am      8 UNK        -0.5000 
     35 C          -1.2387  -17.6602  -44.8304 C.2       7 UNK         0.5000 
     36 O          -1.2800  -18.6598  -45.5454 O.2       7 UNK        -0.5000 
     37 CA         -0.0376  -16.7065  -44.9345 C.3       7 UNK         0.1400 
     38 CB         -0.3982  -15.4819  -45.7843 C.3       7 UNK        -0.1800 
     39 N           0.4786  -16.2662  -43.6349 N.am      7 UNK        -0.5000 
     40 C           0.9173  -17.0862  -42.6660 C.2       6 UNK         0.5000 
     41 O           0.9095  -18.3123  -42.7701 O.2       6 UNK        -0.5000 
     42 CA          1.4500  -16.4603  -41.3627 C.3       6 UNK         0.1400 
     43 CB          2.9101  -16.8721  -41.1143 C.3       6 UNK        -0.1800 
     44 N           1.3467  -15.0002  -41.3394 N.am      6 UNK        -0.5000 
     45 C           0.2438  -14.3263  -40.9814 C.2       5 UNK         0.5000 
     46 O          -0.7992  -14.8759  -40.6256 O.2       5 UNK        -0.5000 
     47 CA          0.2975  -12.7855  -41.0421 C.3       5 UNK         0.1400 
     48 CB          0.5536  -12.2030  -39.6438 C.3       5 UNK        -0.1800 
     49 N           1.3043  -12.2581  -41.9662 N.am      5 UNK        -0.5000 
     50 C           1.2820  -12.4131  -43.2963 C.2       4 UNK         0.5000 
     51 O           0.3919  -13.0227  -43.8894 O.2       4 UNK        -0.5000 
     52 CA          2.4600  -11.8289  -44.1048 C.3       4 UNK         0.1400 
     53 CB          3.4356  -10.9648  -43.2748 C.3       4 UNK        -0.1800 
     54 N           3.1965  -12.8750  -44.8192 N.am      4 UNK        -0.5000 
     55 C           3.7568  -13.9754  -44.2903 C.2       3 UNK         0.5000 
     56 O           3.7220  -14.2444  -43.0889 O.2       3 UNK        -0.5000 
     57 CA          4.4731  -14.9479  -45.2514 C.3       3 UNK         0.1400 
     58 CB          3.6479  -16.2293  -45.4396 C.3       3 UNK        -0.1800 
     59 N           4.7410  -14.3718  -46.5693 N.am      3 UNK        -0.5000 
     60 C           5.7022  -13.4770  -46.8367 C.2       2 UNK         0.5000 
     61 O           6.5296  -13.0943  -46.0091 O.2       2 UNK        -0.5000 
     62 CA          5.7260  -12.8917  -48.2637 C.3       2 UNK         0.1400 
     63 CB          6.7548  -13.6328  -49.1311 C.3       2 UNK        -0.1800 
     64 N           4.4230  -12.9225  -48.9380 N.am      2 UNK        -0.5000 
     65 C           3.3372  -12.2454  -48.5403 C.2       1 UNK         0.5000 
     66 O           3.3090  -11.5258  -47.5389 O.2       1 UNK        -0.5000 
     67 C          -3.0113  -23.1734  -46.3683 C.2       11 UNK         0.5000 
     68 O          -3.2801  -24.1430  -47.0772 O.2       11 UNK        -0.5000 
     69 N          -3.2887  -23.1243  -45.0568 N.am      12 UNK        -0.5000 
     70 CA         -3.9036  -24.2282  -44.3135 C.3       12 UNK         0.1400 
     71 CB         -4.2438  -23.7737  -42.8864 C.3       12 UNK        -0.1800 
     72 C          -3.0331  -25.5001  -44.2921 C.2       12 UNK         0.5000 
     73 O          -3.5668  -26.6005  -44.4365 O.2       12 UNK        -0.5000 
     74 N          -1.7131  -25.3254  -44.1415 N.am      13 UNK        -0.5000 
     75 CA         -0.7236  -26.4000  -44.2033 C.3       13 UNK         0.1400 
     76 CB          0.6122  -25.8969  -43.6346 C.3       13 UNK        -0.1800 
     77 C          -0.5373  -26.9540  -45.6285 C.2       13 UNK         0.5000 
     78 O          -0.4418  -28.1705  -45.7962 O.2       13 UNK        -0.5000 
     79 N          -0.4841  -26.0578  -46.6241 N.am      14 UNK        -0.5000 
     80 CA         -0.2997  -26.3886  -48.0379 C.3       14 UNK         0.1400 
     81 CB          0.0390  -25.1112  -48.8181 C.3       14 UNK        -0.1800 
     82 C          -1.5123  -27.1015  -48.6628 C.2       14 UNK         0.5000 
     83 O          -1.3205  -27.9658  -49.5194 O.2       14 UNK        -0.5000 
     84 N          -2.7256  -26.7380  -48.2200 N.am      15 UNK        -0.5000 
     85 CA         -4.0223  -27.3118  -48.5888 C.3       15 UNK         0.1400 
     86 CB         -4.1691  -28.7292  -47.9942 C.3       15 UNK        -0.1800 
     87 C          -4.2758  -27.2477  -50.1083 C.2       15 UNK         0.5000 
     88 O          -4.6521  -26.1914  -50.6136 O.2       15 UNK        -0.5000 
     89 N          -4.0383  -28.3566  -50.8209 N.am      16 UNK        -0.5000 
     90 CA         -4.1306  -28.4479  -52.2800 C.3       16 UNK         0.1400 
     91 CB         -4.0314  -29.9243  -52.6928 C.3       16 UNK        -0.1800 
     92 C          -3.0675  -27.6084  -53.0198 C.2       16 UNK         0.5000 
     93 O          -3.3000  -27.2161  -54.1634 O.2       16 UNK        -0.5000 
     94 N          -1.9326  -27.3406  -52.3593 N.am      17 UNK        -0.5000 
     95 CA         -0.8203  -26.5444  -52.8822 C.3       17 UNK         0.1400 
     96 CB          0.4987  -27.1915  -52.4241 C.3       17 UNK        -0.1800 
     97 C          -0.8946  -25.0580  -52.4690 C.2       17 UNK         0.5000 
     98 O           0.0642  -24.3219  -52.7085 O.2       17 UNK        -0.5000 
     99 N          -2.0005  -24.6372  -51.8371 N.am      18 UNK        -0.5000 
    100 CA        -2.2564  -23.2592  -51.4097 C.3       18 UNK         0.1400 
    101 CB        -3.4959  -23.2535  -50.5033 C.3       18 UNK        -0.1800 
    102 C         -2.4538  -22.2807  -52.5859 C.2       18 UNK         0.5000 
    103 O         -2.5782  -22.6991  -53.7408 O.2       18 UNK        -0.5000 
    104 N         -2.5114  -20.9826  -52.2595 N.am      19 UNK        -0.5000 
    105 CA        -2.7764  -19.8807  -53.1844 C.3       19 UNK         0.1400 
    106 CB        -2.3958  -18.5567  -52.4975 C.3       19 UNK        -0.1800 
    107 C         -4.2422  -19.8814  -53.6664 C.2       19 UNK         0.5000 
    108 O         -5.0498  -19.0724  -53.2070 O.2       19 UNK        -0.5000 
    109 N         -4.5660  -20.7964  -54.5879 N.am      20 UNK        -0.5000 
    110 CA        -5.9004  -21.0036  -55.1613 C.3       20 UNK         0.1400 
    111 CB        -5.8633  -22.2429  -56.0683 C.3       20 UNK        -0.1800 
    112 C         -6.4612  -19.7877  -55.9277 C.2       20 UNK         0.5000 
    113 O         -7.6803  -19.6461  -56.0272 O.2       20 UNK        -0.5000 
    114 N         -5.5695  -18.9234  -56.4332 N.am      21 UNK        -0.5000 
    115 CA        -5.9103  -17.6390  -57.0491 C.3       21 UNK         0.1400 
    116 CB        -4.6863  -17.1117  -57.8134 C.3       21 UNK        -0.1800 
    117 C         -6.3982  -16.5935  -56.0244 C.2       21 UNK         0.5000 
    118 O         -7.1782  -15.7115  -56.3859 O.2       21 UNK        -0.5000 
    119 N         -5.9348  -16.7128  -54.7740 N.am      22 UNK        -0.5000 
    120 CA        -6.3881  -15.9221  -53.6245 C.3       22 UNK         0.1400 
    121 C         -7.6259  -16.5792  -52.9537 C.2       22 UNK         0.5000 
    122 N         -7.5833  -17.8743  -52.6640 N.am      22 UNK        -0.7600 
    123 O         -8.6335  -15.9194  -52.7135 O.2       22 UNK        -0.5000 
    124 C124       -5.2280  -15.7112  -52.6192 C.3       23 UNK        -0.0398 
    125 S125       -5.5712  -14.4148  -51.3830 S.3       23 UNK        -0.2404 
    126 C126       -3.8804  -13.8877  -50.9402 C.3       23 UNK        -0.0205 
    127 H127        1.6787   -8.0665  -50.1496 H         1 UNK         0.0600 
    128 H128        0.7056   -8.7111  -51.4761 H         1 UNK         0.0600 
    129 H129        0.1783   -8.9314  -49.8054 H         1 UNK         0.0600 
    130 H130        0.5711  -10.9799  -49.0295 H         1 UNK         0.3000 
    131 H131        2.3201  -12.8499  -50.3452 H         1 UNK         0.0600 
    132 H132        0.0985  -13.3729  -49.1104 H         1 UNK         0.0800 
    133 H133        0.9645  -13.2017  -47.6216 H         1 UNK         0.0800 
    134 H134        0.9769  -15.1174  -51.1244 H         1 UNK         0.0800 
    135 H135        1.1412  -16.7566  -50.5524 H         1 UNK         0.0800 
    136 H136       -1.2000  -14.1013  -51.1718 H         1 UNK         0.1150 
    137 H137       -4.5567  -16.1058  -49.4108 H         1 UNK         0.1150 
    138 H138       -0.6025  -17.6595  -48.8679 H         1 UNK         0.1150 
    139 H139       -3.0495  -17.9659  -47.2012 H         1 UNK         0.0800 
    140 H140       -4.3140  -18.2121  -48.3767 H         1 UNK         0.0800 
    141 H141       -3.5912  -20.2826  -46.5791 H         1 UNK         0.0800 
    142 H142       -4.1765  -21.3072  -47.8662 H         1 UNK         0.0800 
    143 H143       -1.7913  -22.3598  -47.8954 H         1 UNK         0.0600 
    144 H144       -1.3011  -20.5045  -45.7987 H         1 UNK         0.3000 
    145 H145        1.4951  -22.3132  -44.3815 H         1 UNK         0.0600 
    146 H146        2.4064  -20.0086  -44.6892 H         1 UNK         0.0600 
    147 H147        2.3222  -20.8803  -46.2133 H         1 UNK         0.0600 
    148 H148        1.1285  -19.6467  -45.8459 H         1 UNK         0.0600 
    149 H149        0.2183  -19.9648  -43.4583 H         1 UNK         0.3000 
    150 H150       -2.2080  -21.5201  -41.3308 H         1 UNK         0.0600 
    151 H151       -0.0888  -21.4934  -40.0347 H         1 UNK         0.0600 
    152 H152       -1.0482  -20.0634  -39.6877 H         1 UNK         0.0600 
    153 H153        0.3588  -19.9489  -40.7438 H         1 UNK         0.0600 
    154 H154       -1.4967  -18.7946  -41.9431 H         1 UNK         0.3000 
    155 H155       -3.8837  -18.3365  -44.5558 H         1 UNK         0.0600 
    156 H156       -5.1332  -18.0764  -42.4017 H         1 UNK         0.0600 
    157 H157       -4.5926  -16.5260  -43.0252 H         1 UNK         0.0600 
    158 H158       -3.7393  -17.2810  -41.6793 H         1 UNK         0.0600 
    159 H159       -2.0442  -16.5375  -43.3456 H         1 UNK         0.3000 
    160 H160        0.7617  -17.2497  -45.4404 H         1 UNK         0.0600 
    161 H161       -1.1785  -14.8804  -45.3170 H         1 UNK         0.0600 
    162 H162       -0.7580  -15.7782  -46.7693 H         1 UNK         0.0600 
    163 H163        0.4709  -14.8428  -45.9343 H         1 UNK         0.0600 
    164 H164        0.5118  -15.2667  -43.4787 H         1 UNK         0.3000 
    165 H165        0.8519  -16.8705  -40.5464 H         1 UNK         0.0600 
    166 H166        3.5632  -16.5716  -41.9329 H         1 UNK         0.0600 
    167 H167        3.2956  -16.4289  -40.1961 H         1 UNK         0.0600 
    168 H168        2.9971  -17.9546  -41.0120 H         1 UNK         0.0600 
    169 H169        2.1554  -14.4887  -41.6771 H         1 UNK         0.3000 
    170 H170       -0.6812  -12.4401  -41.3818 H         1 UNK         0.0600 
    171 H171       -0.1968  -12.5498  -38.9320 H         1 UNK         0.0600 
    172 H172        1.5312  -12.4963  -39.2591 H         1 UNK         0.0600 
    173 H173        0.5089  -11.1138  -39.6551 H         1 UNK         0.0600 
    174 H174        2.0852  -11.7695  -41.5528 H         1 UNK         0.3000 
    175 H175        2.0167  -11.1875  -44.8678 H         1 UNK         0.0600 
    176 H176        4.2044  -10.5307  -43.9144 H         1 UNK         0.0600 
    177 H177        2.9174  -10.1347  -42.7930 H         1 UNK         0.0600 
    178 H178        3.9431  -11.5407  -42.5001 H         1 UNK         0.0600 
    179 H179        3.2867  -12.7220  -45.8163 H         1 UNK         0.3000 
    180 H180        5.4237  -15.2200  -44.7882 H         1 UNK         0.0600 
    181 H181        4.1884  -16.9626  -46.0381 H         1 UNK         0.0600 
    182 H182        3.4201  -16.6988  -44.4822 H         1 UNK         0.0600 
    183 H183        2.7034  -16.0209  -45.9407 H         1 UNK         0.0600 
    184 H184        4.1135  -14.6365  -47.3149 H         1 UNK         0.3000 
    185 H185        6.0351  -11.8475  -48.1823 H         1 UNK         0.0600 
    186 H186        6.8435  -13.1753  -50.1166 H         1 UNK         0.0600 
    187 H187        7.7443  -13.6066  -48.6725 H         1 UNK         0.0600 
    188 H188        6.4847  -14.6806  -49.2690 H         1 UNK         0.0600 
    189 H189        4.3620  -13.5028  -49.7626 H         1 UNK         0.3000 
    190 H190       -3.0848  -22.2786  -44.5333 H         1 UNK         0.3000 
    191 H191       -4.8397  -24.4811  -44.8159 H         1 UNK         0.0600 
    192 H192       -4.7300  -24.5742  -42.3277 H         1 UNK         0.0600 
    193 H193       -4.9258  -22.9235  -42.8951 H         1 UNK         0.0600 
    194 H194       -3.3519  -23.4827  -42.3323 H         1 UNK         0.0600 
    195 H195       -1.3603  -24.3896  -43.9645 H         1 UNK         0.3000 
    196 H196       -1.0712  -27.2191  -43.5703 H         1 UNK         0.0600 
    197 H197        1.3670  -26.6840  -43.6536 H         1 UNK         0.0600 
    198 H198        0.5022  -25.5755  -42.5987 H         1 UNK         0.0600 
    199 H199        1.0016  -25.0529  -44.2049 H         1 UNK         0.0600 
    200 H200       -0.5004  -25.0676  -46.3918 H         1 UNK         0.3000 
    201 H201        0.5543  -27.0649  -48.1135 H         1 UNK         0.0600 
    202 H202        0.9196  -24.6182  -48.4066 H         1 UNK         0.0600 
    203 H203       -0.7858  -24.3987  -48.7996 H         1 UNK         0.0600 
    204 H204        0.2605  -25.3367  -49.8594 H         1 UNK         0.0600 
    205 H205       -2.7781  -25.9419  -47.5900 H         1 UNK         0.3000 
    206 H206       -4.7802  -26.6797  -48.1236 H         1 UNK         0.0600 
    207 H207       -4.1136  -28.6965  -46.9057 H         1 UNK         0.0600 
    208 H208       -5.1338  -29.1666  -48.2544 H         1 UNK         0.0600 
    209 H209       -3.3902  -29.4096  -48.3395 H         1 UNK         0.0600 
    210 H210       -3.6898  -29.1710  -50.3361 H         1 UNK         0.3000 
    211 H211       -5.1114  -28.0734  -52.5805 H         1 UNK         0.0600 
    212 H212       -3.0754  -30.3601  -52.3996 H         1 UNK         0.0600 
    213 H213       -4.1251  -30.0351  -53.7740 H         1 UNK         0.0600 
    214 H214       -4.8254  -30.5161  -52.2369 H         1 UNK         0.0600 
    215 H215       -1.8251  -27.6885  -51.4102 H         1 UNK         0.3000 
    216 H216       -0.8349  -26.5662  -53.9736 H         1 UNK         0.0600 
    217 H217        1.3617  -26.6631  -52.8310 H         1 UNK         0.0600 
    218 H218        0.5662  -28.2252  -52.7636 H         1 UNK         0.0600 
    219 H219        0.5953  -27.1918  -51.3386 H         1 UNK         0.0600 
    220 H220       -2.7561  -25.2945  -51.6982 H         1 UNK         0.3000 
    221 H221       -1.3965  -22.9194  -50.8289 H         1 UNK         0.0600 
    222 H222       -4.3931  -23.5431  -51.0517 H         1 UNK         0.0600 
    223 H223       -3.3756  -23.9449  -49.6707 H         1 UNK         0.0600 
    224 H224       -3.6804  -22.2669  -50.0810 H         1 UNK         0.0600 
    225 H225       -2.4329  -20.7227  -51.2861 H         1 UNK         0.3000 
    226 H226       -2.1352  -19.9987  -54.0603 H         1 UNK         0.0600 
    227 H227       -2.5546  -17.7077  -53.1634 H         1 UNK         0.0600 
    228 H228       -2.9916  -18.3837  -51.6010 H         1 UNK         0.0600 
    229 H229       -1.3457  -18.5472  -52.2049 H         1 UNK         0.0600 
    230 H230       -3.8570  -21.4796  -54.8315 H         1 UNK         0.3000 
    231 H231       -6.5838  -21.2060  -54.3342 H         1 UNK         0.0600 
    232 H232       -6.8484  -22.4510  -56.4881 H         1 UNK         0.0600 
    233 H233       -5.5540  -23.1287  -55.5130 H         1 UNK         0.0600 
    234 H234       -5.1718  -22.1100  -56.9012 H         1 UNK         0.0600 
    235 H235       -4.5882  -19.1336  -56.3273 H         1 UNK         0.3000 
    236 H236       -6.7173  -17.8031  -57.7664 H         1 UNK         0.0600 
    237 H237       -3.8390  -16.9398  -57.1483 H         1 UNK         0.0600 
    238 H238       -4.3711  -17.8132  -58.5860 H         1 UNK         0.0600 
    239 H239       -4.9127  -16.1660  -58.3076 H         1 UNK         0.0600 
    240 H240       -5.3653  -17.5173  -54.5458 H         1 UNK         0.3000 
    241 H241       -6.6929  -14.9370  -53.9839 H         1 UNK         0.0600 
    242 H242       -8.3807  -18.3183  -52.2384 H         1 UNK         0.3800 
    243 H243       -6.7347  -18.4083  -52.8359 H         1 UNK         0.3800 
    244 H244       -4.3263  -15.4249  -53.1624 H         1 UNK         0.0800 
    245 H245       -4.9826  -16.6383  -52.0993 H         1 UNK         0.0800 
    246 H246       -3.4177  -13.4504  -51.8265 H         1 UNK         0.0800 
    247 H247       -3.9508  -13.0864  -50.2039 H         1 UNK         0.0800 
@<TRIPOS>BOND
     1    1    2 1    
     2    1  127 1    
     3    1  128 1    
     4    1  129 1    
     5    2    3 2    
     6    2    4 am   BACKBONE|DICT|INTERRES
     7    4    5 1    
     8    4  130 1    
     9    5    6 1    
    10    5   65 1    
    11    5  131 1    
    12    6    7 1    
    13    6  132 1    
    14    6  133 1    
    15    7    8 1    
    16    8    9 1    
    17    8  134 1    
    18    8  135 1    
    19    9   10 ar   
    20    9   14 ar   
    21   10   11 ar   
    22   10  136 1    
    23   11   12 ar   
    24   11  126 1    
    25   12   13 ar   
    26   12  137 1    
    27   13   14 ar   
    28   13   15 1    
    29   14  138 1    
    30   15   16 1    
    31   15  139 1    
    32   15  140 1    
    33   16   17 1    
    34   17   18 1    
    35   17  141 1    
    36   17  142 1    
    37   18   19 1    
    38   18   67 1    
    39   18  143 1    
    40   19   20 am   BACKBONE|DICT|INTERRES
    41   19  144 1    
    42   20   21 2    
    43   20   22 1    
    44   22   23 1    
    45   22   24 1    
    46   22  145 1    
    47   23  146 1    
    48   23  147 1    
    49   23  148 1    
    50   24   25 am   BACKBONE|DICT|INTERRES
    51   24  149 1    
    52   25   26 2    
    53   25   27 1    
    54   27   28 1    
    55   27   29 1    
    56   27  150 1    
    57   28  151 1    
    58   28  152 1    
    59   28  153 1    
    60   29   30 am   BACKBONE|DICT|INTERRES
    61   29  154 1    
    62   30   31 2    
    63   30   32 1    
    64   32   33 1    
    65   32   34 1    
    66   32  155 1    
    67   33  156 1    
    68   33  157 1    
    69   33  158 1    
    70   34   35 am   BACKBONE|DICT|INTERRES
    71   34  159 1    
    72   35   36 2    
    73   35   37 1    
    74   37   38 1    
    75   37   39 1    
    76   37  160 1    
    77   38  161 1    
    78   38  162 1    
    79   38  163 1    
    80   39   40 am   BACKBONE|DICT|INTERRES
    81   39  164 1    
    82   40   41 2    
    83   40   42 1    
    84   42   43 1    
    85   42   44 1    
    86   42  165 1    
    87   43  166 1    
    88   43  167 1    
    89   43  168 1    
    90   44   45 am   BACKBONE|DICT|INTERRES
    91   44  169 1    
    92   45   46 2    
    93   45   47 1    
    94   47   48 1    
    95   47   49 1    
    96   47  170 1    
    97   48  171 1    
    98   48  172 1    
    99   48  173 1    
   100   49   50 am   BACKBONE|DICT|INTERRES
   101   49  174 1    
   102   50   51 2    
   103   50   52 1    
   104   52   53 1    
   105   52   54 1    
   106   52  175 1    
   107   53  176 1    
   108   53  177 1    
   109   53  178 1    
   110   54   55 am   BACKBONE|DICT|INTERRES
   111   54  179 1    
   112   55   56 2    
   113   55   57 1    
   114   57   58 1    
   115   57   59 1    
   116   57  180 1    
   117   58  181 1    
   118   58  182 1    
   119   58  183 1    
   120   59   60 am   BACKBONE|DICT|INTERRES
   121   59  184 1    
   122   60   61 2    
   123   60   62 1    
   124   62   63 1    
   125   62   64 1    
   126   62  185 1    
   127   63  186 1    
   128   63  187 1    
   129   63  188 1    
   130   64   65 am   BACKBONE|DICT|INTERRES
   131   64  189 1    
   132   65   66 2    
   133   67   68 2    
   134   67   69 am   BACKBONE|DICT|INTERRES
   135   69   70 1    
   136   69  190 1    
   137   70   71 1    
   138   70   72 1    
   139   70  191 1    
   140   71  192 1    
   141   71  193 1    
   142   71  194 1    
   143   72   73 2    
   144   72   74 am   BACKBONE|DICT|INTERRES
   145   74   75 1    
   146   74  195 1    
   147   75   76 1    
   148   75   77 1    
   149   75  196 1    
   150   76  197 1    
   151   76  198 1    
   152   76  199 1    
   153   77   78 2    
   154   77   79 am   BACKBONE|DICT|INTERRES
   155   79   80 1    
   156   79  200 1    
   157   80   81 1    
   158   80   82 1    
   159   80  201 1    
   160   81  202 1    
   161   81  203 1    
   162   81  204 1    
   163   82   83 2    
   164   82   84 am   BACKBONE|DICT|INTERRES
   165   84   85 1    
   166   84  205 1    
   167   85   86 1    
   168   85   87 1    
   169   85  206 1    
   170   86  207 1    
   171   86  208 1    
   172   86  209 1    
   173   87   88 2    
   174   87   89 am   BACKBONE|DICT|INTERRES
   175   89   90 1    
   176   89  210 1    
   177   90   91 1    
   178   90   92 1    
   179   90  211 1    
   180   91  212 1    
   181   91  213 1    
   182   91  214 1    
   183   92   93 2    
   184   92   94 am   BACKBONE|DICT|INTERRES
   185   94   95 1    
   186   94  215 1    
   187   95   96 1    
   188   95   97 1    
   189   95  216 1    
   190   96  217 1    
   191   96  218 1    
   192   96  219 1    
   193   97   98 2    
   194   97   99 am   BACKBONE|DICT|INTERRES
   195   99  100 1    
   196   99  220 1    
   197  100  101 1    
   198  100  102 1    
   199  100  221 1    
   200  101  222 1    
   201  101  223 1    
   202  101  224 1    
   203  102  103 2    
   204  102  104 am   BACKBONE|DICT|INTERRES
   205  104  105 1    
   206  104  225 1    
   207  105  106 1    
   208  105  107 1    
   209  105  226 1    
   210  106  227 1    
   211  106  228 1    
   212  106  229 1    
   213  107  108 2    
   214  107  109 am   BACKBONE|DICT|INTERRES
   215  109  110 1    
   216  109  230 1    
   217  110  111 1    
   218  110  112 1    
   219  110  231 1    
   220  111  232 1    
   221  111  233 1    
   222  111  234 1    
   223  112  113 2    
   224  112  114 am   BACKBONE|DICT|INTERRES
   225  114  115 1    
   226  114  235 1    
   227  115  116 1    
   228  115  117 1    
   229  115  236 1    
   230  116  237 1    
   231  116  238 1    
   232  116  239 1    
   233  117  118 2    
   234  117  119 am   BACKBONE|DICT|INTERRES
   235  119  120 1    
   236  119  240 1    
   237  120  121 1    
   238  120  124 1    
   239  120  241 1    
   240  121  122 am   BACKBONE|DICT|INTERRES
   241  121  123 2    
   242  122  242 1    
   243  122  243 1    
   244  124  125 1    
   245  124  244 1    
   246  124  245 1    
   247  125  126 1    
   248  126  246 1    
   249  126  247 1    
@<TRIPOS>SUBSTRUCTURE
     1 UNK         1 GROUP             0       ****    0 ROOT    
