@<TRIPOS>MOLECULE
3R540
247   249    1
SMALL
USER_CHARGES


@<TRIPOS>ATOM
      1 CA          1.5472  -17.4098  -50.2350 C.3       0 UNK        -0.1800 
      2 C           1.2210  -16.0202  -49.7075 C.2       0 UNK         0.5000 
      3 O           2.1304  -15.2314  -49.4543 O.2       0 UNK        -0.5000 
      4 N          -0.0728  -15.7067  -49.5623 N.am      1 UNK        -0.5000 
      5 CA         -0.5996  -14.4560  -48.9935 C.3       1 UNK         0.1400 
      6 C6         -2.1069  -14.5849  -48.6481 C.3       23 UNK        -0.0398 
      7 S7         -2.5648  -13.8668  -47.0344 S.3       23 UNK        -0.2404 
      8 C8         -1.6490  -14.9078  -45.8482 C.3       23 UNK        -0.0205 
      9 C9         -1.7906  -16.4009  -46.1061 C.ar      23 UNK        -0.0193 
     10 C10        -3.0173  -17.0423  -45.9067 C.ar      23 UNK        -0.1150 
     11 C11        -3.1360  -18.4205  -46.1090 C.ar      23 UNK        -0.0193 
     12 C12        -2.0136  -19.1544  -46.5012 C.ar      23 UNK        -0.1150 
     13 C13        -0.7866  -18.5252  -46.7157 C.ar      23 UNK        -0.0193 
     14 C14        -0.6808  -17.1465  -46.5188 C.ar      23 UNK        -0.1150 
     15 C15         0.4087  -19.3409  -47.1790 C.3       23 UNK        -0.0205 
     16 S16         1.0929  -20.3619  -45.8366 S.3       23 UNK        -0.2404 
     17 C17         2.0215  -21.6056  -46.8008 C.3       23 UNK        -0.0398 
     18 CA          1.4017  -23.0274  -46.8334 C.3       11 UNK         0.1400 
     19 N           1.4674  -23.7228  -45.5428 N.am      11 UNK        -0.5000 
     20 C           1.3623  -25.0554  -45.4177 C.2       10 UNK         0.5000 
     21 O           1.1743  -25.8176  -46.3652 O.2       10 UNK        -0.5000 
     22 CA          1.4447  -25.6365  -43.9968 C.3       10 UNK         0.1400 
     23 CB          2.8754  -25.5418  -43.4444 C.3       10 UNK        -0.1800 
     24 N           0.5199  -24.9895  -43.0706 N.am      10 UNK        -0.5000 
     25 C          -0.8164  -25.0016  -43.1803 C.2       9 UNK         0.5000 
     26 O          -1.4286  -25.5766  -44.0793 O.2       9 UNK        -0.5000 
     27 CA         -1.5964  -24.2013  -42.1206 C.3       9 UNK         0.1400 
     28 CB         -1.9354  -25.0892  -40.9141 C.3       9 UNK        -0.1800 
     29 N          -0.8718  -23.0127  -41.6622 N.am      9 UNK        -0.5000 
     30 C          -0.5686  -21.9748  -42.4510 C.2       8 UNK         0.5000 
     31 O          -0.8872  -21.9047  -43.6411 O.2       8 UNK        -0.5000 
     32 CA          0.2626  -20.8542  -41.8184 C.3       8 UNK         0.1400 
     33 CB          1.7682  -21.1423  -41.9603 C.3       8 UNK        -0.1800 
     34 N          -0.0815  -19.6127  -42.4938 N.am      8 UNK        -0.5000 
     35 C           0.0903  -18.3818  -42.0088 C.2       7 UNK         0.5000 
     36 O           0.6290  -18.1309  -40.9276 O.2       7 UNK        -0.5000 
     37 CA         -0.4959  -17.2430  -42.8570 C.3       7 UNK         0.1400 
     38 CB         -1.8734  -16.8257  -42.3186 C.3       7 UNK        -0.1800 
     39 N           0.3775  -16.0725  -42.8985 N.am      7 UNK        -0.5000 
     40 C           1.5529  -16.0142  -43.5361 C.2       6 UNK         0.5000 
     41 O           2.0213  -16.9490  -44.1869 O.2       6 UNK        -0.5000 
     42 CA          2.3038  -14.6680  -43.4589 C.3       6 UNK         0.1400 
     43 CB          3.6399  -14.6861  -44.2238 C.3       6 UNK        -0.1800 
     44 N           1.4897  -13.5745  -43.9867 N.am      6 UNK        -0.5000 
     45 C           0.5223  -12.9167  -43.3403 C.2       5 UNK         0.5000 
     46 O           0.2135  -13.1671  -42.1737 O.2       5 UNK        -0.5000 
     47 CA         -0.2360  -11.8201  -44.1286 C.3       5 UNK         0.1400 
     48 CB         -1.0355  -10.8832  -43.2054 C.3       5 UNK        -0.1800 
     49 N           0.6063  -10.9993  -45.0076 N.am      5 UNK        -0.5000 
     50 C           1.1690  -11.3851  -46.1607 C.2       4 UNK         0.5000 
     51 O           1.1040  -12.5409  -46.5829 O.2       4 UNK        -0.5000 
     52 CA          1.9008  -10.2893  -46.9661 C.3       4 UNK         0.1400 
     53 CB          2.8925   -9.4801  -46.1014 C.3       4 UNK        -0.1800 
     54 N           2.5520  -10.8020  -48.1774 N.am      4 UNK        -0.5000 
     55 C           3.5988  -11.6365  -48.2664 C.2       3 UNK         0.5000 
     56 O           4.2371  -12.0475  -47.2952 O.2       3 UNK        -0.5000 
     57 CA          3.9864  -12.0822  -49.6927 C.3       3 UNK         0.1400 
     58 CB          5.0083  -13.2339  -49.6995 C.3       3 UNK        -0.1800 
     59 N           2.8022  -12.4994  -50.4446 N.am      3 UNK        -0.5000 
     60 C           2.0916  -11.7240  -51.2772 C.2       2 UNK         0.5000 
     61 O           2.3932  -10.5603  -51.5423 O.2       2 UNK        -0.5000 
     62 CA          0.8075  -12.3272  -51.8873 C.3       2 UNK         0.1400 
     63 CB          1.0897  -12.8963  -53.2857 C.3       2 UNK        -0.1800 
     64 N           0.2258  -13.3803  -51.0553 N.am      2 UNK        -0.5000 
     65 C          -0.3019  -13.1928  -49.8372 C.2       1 UNK         0.5000 
     66 O          -0.5245  -12.0751  -49.3700 O.2       1 UNK        -0.5000 
     67 C          -0.0187  -23.0669  -47.4353 C.2       11 UNK         0.5000 
     68 O          -0.1538  -23.2234  -48.6500 O.2       11 UNK        -0.5000 
     69 N          -1.0439  -22.9862  -46.5712 N.am      12 UNK        -0.5000 
     70 CA         -2.4521  -23.1353  -46.9340 C.3       12 UNK         0.1400 
     71 CB         -3.3379  -22.8802  -45.7065 C.3       12 UNK        -0.1800 
     72 C          -2.7535  -24.5123  -47.5461 C.2       12 UNK         0.5000 
     73 O          -3.4035  -24.5761  -48.5877 O.2       12 UNK        -0.5000 
     74 N          -2.2479  -25.5802  -46.9135 N.am      13 UNK        -0.5000 
     75 CA         -2.3686  -26.9539  -47.3955 C.3       13 UNK         0.1400 
     76 CB         -1.9504  -27.9309  -46.2861 C.3       13 UNK        -0.1800 
     77 C          -1.5555  -27.2026  -48.6771 C.2       13 UNK         0.5000 
     78 O          -2.0972  -27.7544  -49.6356 O.2       13 UNK        -0.5000 
     79 N          -0.2816  -26.7816  -48.6795 N.am      14 UNK        -0.5000 
     80 CA          0.6689  -27.0026  -49.7735 C.3       14 UNK         0.1400 
     81 CB          2.0643  -26.5158  -49.3557 C.3       14 UNK        -0.1800 
     82 C           0.2534  -26.3512  -51.1035 C.2       14 UNK         0.5000 
     83 O           0.4527  -26.9568  -52.1574 O.2       14 UNK        -0.5000 
     84 N          -0.3315  -25.1493  -51.0288 N.am      15 UNK        -0.5000 
     85 CA         -0.8337  -24.3977  -52.1794 C.3       15 UNK         0.1400 
     86 CB         -0.2066  -22.9953  -52.1660 C.3       15 UNK        -0.1800 
     87 C          -2.3769  -24.4008  -52.2532 C.2       15 UNK         0.5000 
     88 O          -2.9579  -23.5557  -52.9360 O.2       15 UNK        -0.5000 
     89 N          -3.0086  -25.3764  -51.5805 N.am      16 UNK        -0.5000 
     90 CA         -4.4185  -25.7788  -51.6721 C.3       16 UNK         0.1400 
     91 CB         -4.6299  -26.5871  -52.9683 C.3       16 UNK        -0.1800 
     92 C          -5.4431  -24.6323  -51.5216 C.2       16 UNK         0.5000 
     93 O          -6.4428  -24.6022  -52.2427 O.2       16 UNK        -0.5000 
     94 N          -5.1629  -23.7002  -50.6012 N.am      17 UNK        -0.5000 
     95 CA         -5.9009  -22.4808  -50.2421 C.3       17 UNK         0.1400 
     96 CB         -7.2827  -22.8211  -49.6565 C.3       17 UNK        -0.1800 
     97 C          -6.0231  -21.4205  -51.3592 C.2       17 UNK         0.5000 
     98 O          -5.8537  -20.2313  -51.0848 O.2       17 UNK        -0.5000 
     99 N          -6.3178  -21.8575  -52.5884 N.am      18 UNK        -0.5000 
    100 CA        -6.5351  -21.0278  -53.7697 C.3       18 UNK         0.1400 
    101 CB        -7.1428  -21.8859  -54.8904 C.3       18 UNK        -0.1800 
    102 C         -5.2518  -20.3274  -54.2403 C.2       18 UNK         0.5000 
    103 O         -5.2349  -19.1004  -54.3396 O.2       18 UNK        -0.5000 
    104 N         -4.1880  -21.1074  -54.4829 N.am      19 UNK        -0.5000 
    105 CA        -2.8739  -20.5838  -54.8707 C.3       19 UNK         0.1400 
    106 CB        -2.0735  -21.6634  -55.6161 C.3       19 UNK        -0.1800 
    107 C         -2.0953  -20.0205  -53.6668 C.2       19 UNK         0.5000 
    108 O         -1.2001  -19.1969  -53.8560 O.2       19 UNK        -0.5000 
    109 N         -2.4808  -20.4354  -52.4502 N.am      20 UNK        -0.5000 
    110 CA        -2.0290  -19.8552  -51.1839 C.3       20 UNK         0.1400 
    111 CB        -2.4703  -20.7605  -50.0249 C.3       20 UNK        -0.1800 
    112 C         -2.5716  -18.4284  -50.9637 C.2       20 UNK         0.5000 
    113 O         -1.9792  -17.6750  -50.1937 O.2       20 UNK        -0.5000 
    114 N         -3.6727  -18.0912  -51.6524 N.am      21 UNK        -0.5000 
    115 CA        -4.4016  -16.8244  -51.6207 C.3       21 UNK         0.1400 
    116 CB        -3.5170  -15.6600  -52.1181 C.3       21 UNK        -0.1800 
    117 C         -5.0725  -16.5596  -50.2584 C.2       21 UNK         0.5000 
    118 O         -5.0805  -15.4211  -49.7886 O.2       21 UNK        -0.5000 
    119 N         -5.6456  -17.6123  -49.6573 N.am      22 UNK        -0.5000 
    120 CA        -6.3700  -17.5391  -48.3751 C.3       22 UNK         0.1400 
    121 C         -7.7178  -16.7585  -48.4283 C.2       22 UNK         0.5000 
    122 N         -8.3002  -16.5075  -49.5950 N.am      22 UNK        -0.7600 
    123 O         -8.2453  -16.3736  -47.3884 O.2       22 UNK        -0.5000 
    124 C124       -6.6022  -18.9363  -47.7454 C.3       23 UNK        -0.0398 
    125 S125       -5.0727  -19.8772  -47.4411 S.3       23 UNK        -0.2404 
    126 C126       -4.4647  -19.1290  -45.8944 C.3       23 UNK        -0.0205 
    127 H127        1.8494  -17.3529  -51.2805 H         1 UNK         0.0600 
    128 H128        2.3678  -17.8457  -49.6651 H         1 UNK         0.0600 
    129 H129        0.6919  -18.0807  -50.1602 H         1 UNK         0.0600 
    130 H130       -0.7759  -16.4104  -49.7911 H         1 UNK         0.3000 
    131 H131       -0.0424  -14.3170  -48.0682 H         1 UNK         0.0600 
    132 H132       -2.4190  -15.6291  -48.6285 H         1 UNK         0.0800 
    133 H133       -2.7326  -14.1243  -49.4141 H         1 UNK         0.0800 
    134 H134       -2.0097  -14.6846  -44.8443 H         1 UNK         0.0800 
    135 H135       -0.5976  -14.6201  -45.8567 H         1 UNK         0.0800 
    136 H136       -3.8755  -16.4650  -45.5930 H         1 UNK         0.1150 
    137 H137       -2.0971  -20.2201  -46.6517 H         1 UNK         0.1150 
    138 H138        0.2703  -16.6565  -46.6732 H         1 UNK         0.1150 
    139 H139        0.1006  -19.9756  -48.0103 H         1 UNK         0.0800 
    140 H140        1.1949  -18.6887  -47.5604 H         1 UNK         0.0800 
    141 H141        2.1586  -21.2428  -47.8208 H         1 UNK         0.0800 
    142 H142        3.0276  -21.6616  -46.3833 H         1 UNK         0.0800 
    143 H143        2.0281  -23.6015  -47.5196 H         1 UNK         0.0600 
    144 H144        1.5666  -23.1480  -44.7195 H         1 UNK         0.3000 
    145 H145        1.1727  -26.6926  -44.0553 H         1 UNK         0.0600 
    146 H146        2.9585  -26.0434  -42.4801 H         1 UNK         0.0600 
    147 H147        3.5865  -26.0196  -44.1197 H         1 UNK         0.0600 
    148 H148        3.1926  -24.5067  -43.3119 H         1 UNK         0.0600 
    149 H149        0.9286  -24.4863  -42.2978 H         1 UNK         0.3000 
    150 H150       -2.5326  -23.8720  -42.5759 H         1 UNK         0.0600 
    151 H151       -2.4937  -25.9731  -41.2257 H         1 UNK         0.0600 
    152 H152       -2.5527  -24.5547  -40.1919 H         1 UNK         0.0600 
    153 H153       -1.0368  -25.4327  -40.4002 H         1 UNK         0.0600 
    154 H154       -0.5794  -23.0041  -40.6956 H         1 UNK         0.3000 
    155 H155       -0.0008  -20.7737  -40.7617 H         1 UNK         0.0600 
    156 H156        2.3672  -20.3564  -41.5002 H         1 UNK         0.0600 
    157 H157        2.0658  -21.2168  -43.0068 H         1 UNK         0.0600 
    158 H158        2.0367  -22.0803  -41.4732 H         1 UNK         0.0600 
    159 H159       -0.5325  -19.7525  -43.3909 H         1 UNK         0.3000 
    160 H160       -0.6216  -17.6116  -43.8739 H         1 UNK         0.0600 
    161 H161       -1.8074  -16.4426  -41.2995 H         1 UNK         0.0600 
    162 H162       -2.5600  -17.6733  -42.3086 H         1 UNK         0.0600 
    163 H163       -2.3265  -16.0528  -42.9379 H         1 UNK         0.0600 
    164 H164        0.0811  -15.2570  -42.3756 H         1 UNK         0.3000 
    165 H165        2.5232  -14.4761  -42.4066 H         1 UNK         0.0600 
    166 H166        3.4903  -14.8625  -45.2901 H         1 UNK         0.0600 
    167 H167        4.1687  -13.7389  -44.1152 H         1 UNK         0.0600 
    168 H168        4.2978  -15.4703  -43.8472 H         1 UNK         0.0600 
    169 H169        1.6221  -13.3450  -44.9684 H         1 UNK         0.3000 
    170 H170       -0.9581  -12.3386  -44.7604 H         1 UNK         0.0600 
    171 H171       -1.7493  -11.4416  -42.5982 H         1 UNK         0.0600 
    172 H172       -0.3812  -10.3360  -42.5257 H         1 UNK         0.0600 
    173 H173       -1.6081  -10.1554  -43.7807 H         1 UNK         0.0600 
    174 H174        0.7342  -10.0419  -44.7143 H         1 UNK         0.3000 
    175 H175        1.1288   -9.6036  -47.3180 H         1 UNK         0.0600 
    176 H176        3.6075  -10.1252  -45.5898 H         1 UNK         0.0600 
    177 H177        3.4564   -8.7711  -46.7076 H         1 UNK         0.0600 
    178 H178        2.3732   -8.9012  -45.3374 H         1 UNK         0.0600 
    179 H179        2.0856  -10.5657  -49.0421 H         1 UNK         0.3000 
    180 H180        4.4546  -11.2248  -50.1801 H         1 UNK         0.0600 
    181 H181        4.6266  -14.1134  -49.1799 H         1 UNK         0.0600 
    182 H182        5.9359  -12.9378  -49.2081 H         1 UNK         0.0600 
    183 H183        5.2616  -13.5300  -50.7175 H         1 UNK         0.0600 
    184 H184        2.4585  -13.4304  -50.2255 H         1 UNK         0.3000 
    185 H185        0.0746  -11.5235  -51.9831 H         1 UNK         0.0600 
    186 H186        1.5004  -12.1291  -53.9435 H         1 UNK         0.0600 
    187 H187        1.8079  -13.7164  -53.2491 H         1 UNK         0.0600 
    188 H188        0.1772  -13.2683  -53.7521 H         1 UNK         0.0600 
    189 H189        0.3691  -14.3315  -51.3611 H         1 UNK         0.3000 
    190 H190       -0.8442  -22.8169  -45.5914 H         1 UNK         0.3000 
    191 H191       -2.6851  -22.3773  -47.6826 H         1 UNK         0.0600 
    192 H192       -4.3928  -22.8762  -45.9832 H         1 UNK         0.0600 
    193 H193       -3.1160  -21.9158  -45.2521 H         1 UNK         0.0600 
    194 H194       -3.2007  -23.6442  -44.9419 H         1 UNK         0.0600 
    195 H195       -1.7554  -25.4495  -46.0350 H         1 UNK         0.3000 
    196 H196       -3.4196  -27.1388  -47.6274 H         1 UNK         0.0600 
    197 H197       -2.0298  -28.9650  -46.6238 H         1 UNK         0.0600 
    198 H198       -2.5891  -27.8253  -45.4090 H         1 UNK         0.0600 
    199 H199       -0.9200  -27.7650  -45.9691 H         1 UNK         0.0600 
    200 H200        0.0953  -26.3484  -47.8398 H         1 UNK         0.3000 
    201 H201        0.7251  -28.0800  -49.9421 H         1 UNK         0.0600 
    202 H202        2.4223  -27.0513  -48.4764 H         1 UNK         0.0600 
    203 H203        2.0634  -25.4503  -49.1243 H         1 UNK         0.0600 
    204 H204        2.7917  -26.6789  -50.1519 H         1 UNK         0.0600 
    205 H205       -0.4337  -24.7034  -50.1221 H         1 UNK         0.3000 
    206 H206       -0.5079  -24.8707  -53.1076 H         1 UNK         0.0600 
    207 H207        0.8794  -23.0587  -52.2328 H         1 UNK         0.0600 
    208 H208       -0.5396  -22.4020  -53.0152 H         1 UNK         0.0600 
    209 H209       -0.4419  -22.4503  -51.2553 H         1 UNK         0.0600 
    210 H210       -2.4364  -25.9849  -51.0086 H         1 UNK         0.3000 
    211 H211       -4.5954  -26.4498  -50.8303 H         1 UNK         0.0600 
    212 H212       -4.4912  -25.9662  -53.8542 H         1 UNK         0.0600 
    213 H213       -5.6354  -27.0071  -53.0134 H         1 UNK         0.0600 
    214 H214       -3.9305  -27.4210  -53.0305 H         1 UNK         0.0600 
    215 H215       -4.3394  -23.8801  -50.0299 H         1 UNK         0.3000 
    216 H216       -5.3213  -22.0266  -49.4399 H         1 UNK         0.0600 
    217 H217       -7.9344  -23.2908  -50.3937 H         1 UNK         0.0600 
    218 H218       -7.7867  -21.9211  -49.3022 H         1 UNK         0.0600 
    219 H219       -7.1929  -23.4981  -48.8070 H         1 UNK         0.0600 
    220 H220       -6.4372  -22.8624  -52.6992 H         1 UNK         0.3000 
    221 H221       -7.2590  -20.2536  -53.5065 H         1 UNK         0.0600 
    222 H222       -6.4941  -22.7204  -55.1597 H         1 UNK         0.0600 
    223 H223       -8.1063  -22.2978  -54.5897 H         1 UNK         0.0600 
    224 H224       -7.3097  -21.2932  -55.7908 H         1 UNK         0.0600 
    225 H225       -4.2483  -22.1041  -54.3162 H         1 UNK         0.3000 
    226 H226       -3.0235  -19.7556  -55.5670 H         1 UNK         0.0600 
    227 H227       -2.6004  -21.9926  -56.5117 H         1 UNK         0.0600 
    228 H228       -1.1043  -21.2775  -55.9343 H         1 UNK         0.0600 
    229 H229       -1.8865  -22.5406  -55.0001 H         1 UNK         0.0600 
    230 H230       -3.1841  -21.1590  -52.4006 H         1 UNK         0.3000 
    231 H231       -0.9382  -19.8121  -51.1987 H         1 UNK         0.0600 
    232 H232       -3.5313  -20.6465  -49.8185 H         1 UNK         0.0600 
    233 H233       -2.2863  -21.8159  -50.2182 H         1 UNK         0.0600 
    234 H234       -1.9391  -20.4966  -49.1119 H         1 UNK         0.0600 
    235 H235       -4.0908  -18.8040  -52.2350 H         1 UNK         0.3000 
    236 H236       -5.2186  -16.9350  -52.3350 H         1 UNK         0.0600 
    237 H237       -3.1084  -15.8741  -53.1057 H         1 UNK         0.0600 
    238 H238       -4.0929  -14.7377  -52.1996 H         1 UNK         0.0600 
    239 H239       -2.6806  -15.4639  -51.4484 H         1 UNK         0.0600 
    240 H240       -5.6090  -18.5230  -50.1061 H         1 UNK         0.3000 
    241 H241       -5.7328  -16.9784  -47.6883 H         1 UNK         0.0600 
    242 H242       -7.8811  -16.8221  -50.4549 H         1 UNK         0.3800 
    243 H243       -9.1701  -15.9988  -49.6168 H         1 UNK         0.3800 
    244 H244       -7.1449  -18.8564  -46.8017 H         1 UNK         0.0800 
    245 H245       -7.2333  -19.5369  -48.4024 H         1 UNK         0.0800 
    246 H246       -4.3352  -19.9110  -45.1463 H         1 UNK         0.0800 
    247 H247       -5.2059  -18.4413  -45.4856 H         1 UNK         0.0800 
@<TRIPOS>BOND
     1    1    2 1    
     2    1  127 1    
     3    1  128 1    
     4    1  129 1    
     5    2    3 2    
     6    2    4 am   BACKBONE|DICT|INTERRES
     7    4    5 1    
     8    4  130 1    
     9    5    6 1    
    10    5   65 1    
    11    5  131 1    
    12    6    7 1    
    13    6  132 1    
    14    6  133 1    
    15    7    8 1    
    16    8    9 1    
    17    8  134 1    
    18    8  135 1    
    19    9   10 ar   
    20    9   14 ar   
    21   10   11 ar   
    22   10  136 1    
    23   11   12 ar   
    24   11  126 1    
    25   12   13 ar   
    26   12  137 1    
    27   13   14 ar   
    28   13   15 1    
    29   14  138 1    
    30   15   16 1    
    31   15  139 1    
    32   15  140 1    
    33   16   17 1    
    34   17   18 1    
    35   17  141 1    
    36   17  142 1    
    37   18   19 1    
    38   18   67 1    
    39   18  143 1    
    40   19   20 am   BACKBONE|DICT|INTERRES
    41   19  144 1    
    42   20   21 2    
    43   20   22 1    
    44   22   23 1    
    45   22   24 1    
    46   22  145 1    
    47   23  146 1    
    48   23  147 1    
    49   23  148 1    
    50   24   25 am   BACKBONE|DICT|INTERRES
    51   24  149 1    
    52   25   26 2    
    53   25   27 1    
    54   27   28 1    
    55   27   29 1    
    56   27  150 1    
    57   28  151 1    
    58   28  152 1    
    59   28  153 1    
    60   29   30 am   BACKBONE|DICT|INTERRES
    61   29  154 1    
    62   30   31 2    
    63   30   32 1    
    64   32   33 1    
    65   32   34 1    
    66   32  155 1    
    67   33  156 1    
    68   33  157 1    
    69   33  158 1    
    70   34   35 am   BACKBONE|DICT|INTERRES
    71   34  159 1    
    72   35   36 2    
    73   35   37 1    
    74   37   38 1    
    75   37   39 1    
    76   37  160 1    
    77   38  161 1    
    78   38  162 1    
    79   38  163 1    
    80   39   40 am   BACKBONE|DICT|INTERRES
    81   39  164 1    
    82   40   41 2    
    83   40   42 1    
    84   42   43 1    
    85   42   44 1    
    86   42  165 1    
    87   43  166 1    
    88   43  167 1    
    89   43  168 1    
    90   44   45 am   BACKBONE|DICT|INTERRES
    91   44  169 1    
    92   45   46 2    
    93   45   47 1    
    94   47   48 1    
    95   47   49 1    
    96   47  170 1    
    97   48  171 1    
    98   48  172 1    
    99   48  173 1    
   100   49   50 am   BACKBONE|DICT|INTERRES
   101   49  174 1    
   102   50   51 2    
   103   50   52 1    
   104   52   53 1    
   105   52   54 1    
   106   52  175 1    
   107   53  176 1    
   108   53  177 1    
   109   53  178 1    
   110   54   55 am   BACKBONE|DICT|INTERRES
   111   54  179 1    
   112   55   56 2    
   113   55   57 1    
   114   57   58 1    
   115   57   59 1    
   116   57  180 1    
   117   58  181 1    
   118   58  182 1    
   119   58  183 1    
   120   59   60 am   BACKBONE|DICT|INTERRES
   121   59  184 1    
   122   60   61 2    
   123   60   62 1    
   124   62   63 1    
   125   62   64 1    
   126   62  185 1    
   127   63  186 1    
   128   63  187 1    
   129   63  188 1    
   130   64   65 am   BACKBONE|DICT|INTERRES
   131   64  189 1    
   132   65   66 2    
   133   67   68 2    
   134   67   69 am   BACKBONE|DICT|INTERRES
   135   69   70 1    
   136   69  190 1    
   137   70   71 1    
   138   70   72 1    
   139   70  191 1    
   140   71  192 1    
   141   71  193 1    
   142   71  194 1    
   143   72   73 2    
   144   72   74 am   BACKBONE|DICT|INTERRES
   145   74   75 1    
   146   74  195 1    
   147   75   76 1    
   148   75   77 1    
   149   75  196 1    
   150   76  197 1    
   151   76  198 1    
   152   76  199 1    
   153   77   78 2    
   154   77   79 am   BACKBONE|DICT|INTERRES
   155   79   80 1    
   156   79  200 1    
   157   80   81 1    
   158   80   82 1    
   159   80  201 1    
   160   81  202 1    
   161   81  203 1    
   162   81  204 1    
   163   82   83 2    
   164   82   84 am   BACKBONE|DICT|INTERRES
   165   84   85 1    
   166   84  205 1    
   167   85   86 1    
   168   85   87 1    
   169   85  206 1    
   170   86  207 1    
   171   86  208 1    
   172   86  209 1    
   173   87   88 2    
   174   87   89 am   BACKBONE|DICT|INTERRES
   175   89   90 1    
   176   89  210 1    
   177   90   91 1    
   178   90   92 1    
   179   90  211 1    
   180   91  212 1    
   181   91  213 1    
   182   91  214 1    
   183   92   93 2    
   184   92   94 am   BACKBONE|DICT|INTERRES
   185   94   95 1    
   186   94  215 1    
   187   95   96 1    
   188   95   97 1    
   189   95  216 1    
   190   96  217 1    
   191   96  218 1    
   192   96  219 1    
   193   97   98 2    
   194   97   99 am   BACKBONE|DICT|INTERRES
   195   99  100 1    
   196   99  220 1    
   197  100  101 1    
   198  100  102 1    
   199  100  221 1    
   200  101  222 1    
   201  101  223 1    
   202  101  224 1    
   203  102  103 2    
   204  102  104 am   BACKBONE|DICT|INTERRES
   205  104  105 1    
   206  104  225 1    
   207  105  106 1    
   208  105  107 1    
   209  105  226 1    
   210  106  227 1    
   211  106  228 1    
   212  106  229 1    
   213  107  108 2    
   214  107  109 am   BACKBONE|DICT|INTERRES
   215  109  110 1    
   216  109  230 1    
   217  110  111 1    
   218  110  112 1    
   219  110  231 1    
   220  111  232 1    
   221  111  233 1    
   222  111  234 1    
   223  112  113 2    
   224  112  114 am   BACKBONE|DICT|INTERRES
   225  114  115 1    
   226  114  235 1    
   227  115  116 1    
   228  115  117 1    
   229  115  236 1    
   230  116  237 1    
   231  116  238 1    
   232  116  239 1    
   233  117  118 2    
   234  117  119 am   BACKBONE|DICT|INTERRES
   235  119  120 1    
   236  119  240 1    
   237  120  121 1    
   238  120  124 1    
   239  120  241 1    
   240  121  122 am   BACKBONE|DICT|INTERRES
   241  121  123 2    
   242  122  242 1    
   243  122  243 1    
   244  124  125 1    
   245  124  244 1    
   246  124  245 1    
   247  125  126 1    
   248  126  246 1    
   249  126  247 1    
@<TRIPOS>SUBSTRUCTURE
     1 UNK         1 GROUP             0       ****    0 ROOT    
