@<TRIPOS>MOLECULE
3R540
247   249    1
SMALL
USER_CHARGES


@<TRIPOS>ATOM
      1 CA         -1.4320  -18.4062  -43.1280 C.3       0 UNK        -0.1800 
      2 C          -2.5301  -17.7549  -43.9548 C.2       0 UNK         0.5000 
      3 O          -3.6962  -18.1214  -43.8155 O.2       0 UNK        -0.5000 
      4 N          -2.1682  -16.7731  -44.7896 N.am      1 UNK        -0.5000 
      5 CA         -3.0941  -16.0062  -45.6401 C.3       1 UNK         0.1400 
      6 C6         -2.5006  -15.7030  -47.0393 C.3       23 UNK        -0.0398 
      7 S7         -2.0042  -17.1986  -47.9550 S.3       23 UNK        -0.2404 
      8 C8         -0.8143  -16.4745  -49.1245 C.3       23 UNK        -0.0205 
      9 C9         -0.1582  -17.5507  -49.9719 C.ar      23 UNK        -0.0193 
     10 C10        -0.6720  -17.8790  -51.2272 C.ar      23 UNK        -0.1150 
     11 C11        -0.0827  -18.8811  -52.0050 C.ar      23 UNK        -0.0193 
     12 C12         1.0330  -19.5628  -51.5023 C.ar      23 UNK        -0.1150 
     13 C13         1.5546  -19.2454  -50.2437 C.ar      23 UNK        -0.0193 
     14 C14         0.9618  -18.2285  -49.4923 C.ar      23 UNK        -0.1150 
     15 C15         2.7477  -20.0056  -49.6804 C.3       23 UNK        -0.0205 
     16 S16         2.3801  -21.7612  -49.3529 S.3       23 UNK        -0.2404 
     17 C17         0.8096  -21.6774  -48.4266 C.3       23 UNK        -0.0398 
     18 CA          0.4946  -23.0281  -47.7436 C.3       11 UNK         0.1400 
     19 N           1.3512  -23.2940  -46.5848 N.am      11 UNK        -0.5000 
     20 C           1.4896  -24.4976  -46.0110 C.2       10 UNK         0.5000 
     21 O           0.9335  -25.5166  -46.4187 O.2       10 UNK        -0.5000 
     22 CA          2.3578  -24.5649  -44.7415 C.3       10 UNK         0.1400 
     23 CB          3.8484  -24.6303  -45.1057 C.3       10 UNK        -0.1800 
     24 N           2.1256  -23.4353  -43.8404 N.am      10 UNK        -0.5000 
     25 C           0.9682  -23.1933  -43.2086 C.2       9 UNK         0.5000 
     26 O          -0.0186  -23.9231  -43.2878 O.2       9 UNK        -0.5000 
     27 CA          0.8806  -21.8936  -42.3887 C.3       9 UNK         0.1400 
     28 CB          1.3337  -22.1326  -40.9415 C.3       9 UNK        -0.1800 
     29 N           1.6537  -20.7890  -42.9582 N.am      9 UNK        -0.5000 
     30 C           1.4649  -20.2432  -44.1654 C.2       8 UNK         0.5000 
     31 O           0.6244  -20.6598  -44.9667 O.2       8 UNK        -0.5000 
     32 CA          2.3682  -19.0434  -44.5321 C.3       8 UNK         0.1400 
     33 CB          1.8947  -18.3341  -45.8098 C.3       8 UNK        -0.1800 
     34 N           2.4978  -18.0498  -43.4597 N.am      8 UNK        -0.5000 
     35 C           3.2633  -18.1757  -42.3641 C.2       7 UNK         0.5000 
     36 O           3.9059  -19.1951  -42.1095 O.2       7 UNK        -0.5000 
     37 CA          3.3326  -16.9869  -41.3830 C.3       7 UNK         0.1400 
     38 CB          4.6753  -16.2540  -41.5270 C.3       7 UNK        -0.1800 
     39 N           2.2520  -16.0172  -41.5548 N.am      7 UNK        -0.5000 
     40 C           0.9744  -16.2144  -41.2039 C.2       6 UNK         0.5000 
     41 O           0.5749  -17.2281  -40.6321 O.2       6 UNK        -0.5000 
     42 CA         -0.0313  -15.1022  -41.5686 C.3       6 UNK         0.1400 
     43 CB         -0.3936  -14.2838  -40.3210 C.3       6 UNK        -0.1800 
     44 N           0.4392  -14.1937  -42.6215 N.am      6 UNK        -0.5000 
     45 C           0.6921  -14.5474  -43.8916 C.2       5 UNK         0.5000 
     46 O           0.5023  -15.6888  -44.3145 O.2       5 UNK        -0.5000 
     47 CA          1.2748  -13.4779  -44.8369 C.3       5 UNK         0.1400 
     48 CB          0.5804  -13.4872  -46.2065 C.3       5 UNK        -0.1800 
     49 N           1.1870  -12.1295  -44.2788 N.am      5 UNK        -0.5000 
     50 C           2.1768  -11.4838  -43.6478 C.2       4 UNK         0.5000 
     51 O           3.2914  -11.9698  -43.4547 O.2       4 UNK        -0.5000 
     52 CA          1.8740  -10.0599  -43.1341 C.3       4 UNK         0.1400 
     53 CB          2.4821   -9.0098  -44.0766 C.3       4 UNK        -0.1800 
     54 N           0.4432   -9.7822  -42.9781 N.am      4 UNK        -0.5000 
     55 C          -0.3493  -10.3581  -42.0651 C.2       3 UNK         0.5000 
     56 O           0.0639  -11.1610  -41.2268 O.2       3 UNK        -0.5000 
     57 CA         -1.8561  -10.0200  -42.1043 C.3       3 UNK         0.1400 
     58 CB         -2.2688   -9.0697  -43.2517 C.3       3 UNK        -0.1800 
     59 N          -2.6753  -11.2373  -42.1261 N.am      3 UNK        -0.5000 
     60 C          -2.6304  -12.2202  -43.0379 C.2       2 UNK         0.5000 
     61 O          -1.8946  -12.1998  -44.0280 O.2       2 UNK        -0.5000 
     62 CA         -3.5354  -13.4361  -42.7485 C.3       2 UNK         0.1400 
     63 CB         -5.0309  -13.0545  -42.7281 C.3       2 UNK        -0.1800 
     64 N          -3.2816  -14.5752  -43.6392 N.am      2 UNK        -0.5000 
     65 C          -3.5708  -14.7074  -44.9437 C.2       1 UNK         0.5000 
     66 O          -4.1895  -13.8670  -45.5984 O.2       1 UNK        -0.5000 
     67 C          -0.9940  -23.1384  -47.3702 C.2       11 UNK         0.5000 
     68 O          -1.7591  -23.7242  -48.1356 O.2       11 UNK        -0.5000 
     69 N          -1.3731  -22.6384  -46.1852 N.am      12 UNK        -0.5000 
     70 CA         -2.7260  -22.7776  -45.6430 C.3       12 UNK         0.1400 
     71 CB         -2.8727  -21.9279  -44.3747 C.3       12 UNK        -0.1800 
     72 C          -3.1169  -24.2457  -45.3843 C.2       12 UNK         0.5000 
     73 O          -4.2161  -24.6512  -45.7619 O.2       12 UNK        -0.5000 
     74 N          -2.1960  -25.0287  -44.8031 N.am      13 UNK        -0.5000 
     75 CA         -2.3488  -26.4675  -44.5672 C.3       13 UNK         0.1400 
     76 CB         -1.1855  -26.9713  -43.6999 C.3       13 UNK        -0.1800 
     77 C          -2.4504  -27.2885  -45.8675 C.2       13 UNK         0.5000 
     78 O          -3.2206  -28.2477  -45.9215 O.2       13 UNK        -0.5000 
     79 N          -1.7002  -26.8790  -46.8994 N.am      14 UNK        -0.5000 
     80 CA         -1.7376  -27.4541  -48.2466 C.3       14 UNK         0.1400 
     81 CB         -0.4489  -27.0607  -48.9867 C.3       14 UNK        -0.1800 
     82 C          -2.9750  -27.0331  -49.0683 C.2       14 UNK         0.5000 
     83 O          -3.1880  -27.5864  -50.1479 O.2       14 UNK        -0.5000 
     84 N          -3.7473  -26.0583  -48.5638 N.am      15 UNK        -0.5000 
     85 CA         -4.8964  -25.4041  -49.1983 C.3       15 UNK         0.1400 
     86 CB         -6.0502  -26.4006  -49.4355 C.3       15 UNK        -0.1800 
     87 C          -4.5123  -24.6046  -50.4624 C.2       15 UNK         0.5000 
     88 O          -5.3233  -24.4619  -51.3799 O.2       15 UNK        -0.5000 
     89 N          -3.2855  -24.0687  -50.4791 N.am      16 UNK        -0.5000 
     90 CA         -2.7606  -23.1851  -51.5125 C.3       16 UNK         0.1400 
     91 CB         -1.2323  -23.3436  -51.5815 C.3       16 UNK        -0.1800 
     92 C          -3.2009  -21.7432  -51.2074 C.2       16 UNK         0.5000 
     93 O          -2.4246  -20.9524  -50.6726 O.2       16 UNK        -0.5000 
     94 N          -4.4731  -21.4575  -51.5051 N.am      17 UNK        -0.5000 
     95 CA         -5.1159  -20.1573  -51.3361 C.3       17 UNK         0.1400 
     96 CB         -6.6215  -20.3280  -51.5943 C.3       17 UNK        -0.1800 
     97 C          -4.5406  -19.0701  -52.2645 C.2       17 UNK         0.5000 
     98 O          -3.9890  -19.3749  -53.3256 O.2       17 UNK        -0.5000 
     99 N          -4.7550  -17.8078  -51.8705 N.am      18 UNK        -0.5000 
    100 CA        -4.3275  -16.5972  -52.5798 C.3       18 UNK         0.1400 
    101 CB        -4.5764  -15.3807  -51.6753 C.3       18 UNK        -0.1800 
    102 C         -4.9646  -16.3918  -53.9689 C.2       18 UNK         0.5000 
    103 O         -4.4559  -15.5847  -54.7472 O.2       18 UNK        -0.5000 
    104 N         -6.0223  -17.1489  -54.2899 N.am      19 UNK        -0.5000 
    105 CA        -6.6866  -17.2101  -55.5959 C.3       19 UNK         0.1400 
    106 CB        -8.0985  -17.7900  -55.3947 C.3       19 UNK        -0.1800 
    107 C         -5.8713  -17.9893  -56.6590 C.2       19 UNK         0.5000 
    108 O         -6.4386  -18.7804  -57.4140 O.2       19 UNK        -0.5000 
    109 N         -4.5516  -17.7543  -56.6896 N.am      20 UNK        -0.5000 
    110 CA        -3.5421  -18.3064  -57.5997 C.3       20 UNK         0.1400 
    111 CB        -3.7770  -17.7931  -59.0355 C.3       20 UNK        -0.1800 
    112 C         -3.3855  -19.8421  -57.5437 C.2       20 UNK         0.5000 
    113 O         -2.8670  -20.4321  -58.4939 O.2       20 UNK        -0.5000 
    114 N         -3.7931  -20.4752  -56.4330 N.am      21 UNK        -0.5000 
    115 CA        -3.7594  -21.9326  -56.2562 C.3       21 UNK         0.1400 
    116 CB        -4.5657  -22.3082  -55.0074 C.3       21 UNK        -0.1800 
    117 C         -2.3322  -22.5125  -56.1797 C.2       21 UNK         0.5000 
    118 O         -2.1335  -23.6849  -56.4986 O.2       21 UNK        -0.5000 
    119 N         -1.3683  -21.6721  -55.7876 N.am      22 UNK        -0.5000 
    120 CA         0.0766  -21.9378  -55.8444 C.3       22 UNK         0.1400 
    121 C          0.7131  -21.7561  -57.2568 C.2       22 UNK         0.5000 
    122 N         -0.0174  -21.3306  -58.2821 N.am      22 UNK        -0.7600 
    123 O          1.8976  -22.0276  -57.4335 O.2       22 UNK        -0.5000 
    124 C124        0.8438  -21.1546  -54.7445 C.3       23 UNK        -0.0398 
    125 S125        0.4939  -19.3580  -54.7212 S.3       23 UNK        -0.2404 
    126 C126       -0.7057  -19.2419  -53.3510 C.3       23 UNK        -0.0205 
    127 H127       -0.4513  -17.9960  -43.3633 H         1 UNK         0.0600 
    128 H128       -1.4003  -19.4783  -43.3126 H         1 UNK         0.0600 
    129 H129       -1.6198  -18.2519  -42.0658 H         1 UNK         0.0600 
    130 H130       -1.1919  -16.4924  -44.8349 H         1 UNK         0.3000 
    131 H131       -3.9957  -16.5993  -45.8063 H         1 UNK         0.0600 
    132 H132       -1.6386  -15.0465  -46.9437 H         1 UNK         0.0800 
    133 H133       -3.2238  -15.1701  -47.6592 H         1 UNK         0.0800 
    134 H134       -0.0483  -15.9244  -48.5761 H         1 UNK         0.0800 
    135 H135       -1.3246  -15.7488  -49.7598 H         1 UNK         0.0800 
    136 H136       -1.5463  -17.3617  -51.5869 H         1 UNK         0.1150 
    137 H137        1.4925  -20.3530  -52.0760 H         1 UNK         0.1150 
    138 H138        1.3584  -17.9670  -48.5240 H         1 UNK         0.1150 
    139 H139        3.1017  -19.5435  -48.7580 H         1 UNK         0.0800 
    140 H140        3.5756  -19.9446  -50.3878 H         1 UNK         0.0800 
    141 H141        0.8492  -20.8701  -47.6949 H         1 UNK         0.0800 
    142 H142        0.0257  -21.4056  -49.1368 H         1 UNK         0.0800 
    143 H143        0.6802  -23.8178  -48.4753 H         1 UNK         0.0600 
    144 H144        1.7973  -22.4944  -46.1606 H         1 UNK         0.3000 
    145 H145        2.0959  -25.4811  -44.2080 H         1 UNK         0.0600 
    146 H146        4.0514  -25.4754  -45.7650 H         1 UNK         0.0600 
    147 H147        4.4662  -24.7577  -44.2166 H         1 UNK         0.0600 
    148 H148        4.1798  -23.7267  -45.6189 H         1 UNK         0.0600 
    149 H149        2.8850  -22.7821  -43.7173 H         1 UNK         0.3000 
    150 H150       -0.1664  -21.5861  -42.3704 H         1 UNK         0.0600 
    151 H151        2.3878  -22.4081  -40.8900 H         1 UNK         0.0600 
    152 H152        0.7596  -22.9372  -40.4799 H         1 UNK         0.0600 
    153 H153        1.1898  -21.2402  -40.3318 H         1 UNK         0.0600 
    154 H154        2.3919  -20.3966  -42.3824 H         1 UNK         0.3000 
    155 H155        3.3600  -19.4516  -44.7364 H         1 UNK         0.0600 
    156 H156        1.9266  -19.0230  -46.6519 H         1 UNK         0.0600 
    157 H157        2.5325  -17.4858  -46.0582 H         1 UNK         0.0600 
    158 H158        0.8698  -17.9719  -45.7187 H         1 UNK         0.0600 
    159 H159        1.9628  -17.1990  -43.5815 H         1 UNK         0.3000 
    160 H160        3.2721  -17.3946  -40.3717 H         1 UNK         0.0600 
    161 H161        4.7703  -15.4558  -40.7906 H         1 UNK         0.0600 
    162 H162        4.7887  -15.8126  -42.5180 H         1 UNK         0.0600 
    163 H163        5.5127  -16.9361  -41.3735 H         1 UNK         0.0600 
    164 H164        2.4926  -15.1468  -42.0058 H         1 UNK         0.3000 
    165 H165       -0.9367  -15.5924  -41.9295 H         1 UNK         0.0600 
    166 H166       -1.1639  -13.5451  -40.5385 H         1 UNK         0.0600 
    167 H167       -0.7773  -14.9260  -39.5272 H         1 UNK         0.0600 
    168 H168        0.4731  -13.7532  -39.9248 H         1 UNK         0.0600 
    169 H169        0.5990  -13.2327  -42.3491 H         1 UNK         0.3000 
    170 H170        2.3207  -13.7457  -44.9989 H         1 UNK         0.0600 
    171 H171        1.0419  -12.7690  -46.8842 H         1 UNK         0.0600 
    172 H172       -0.4756  -13.2309  -46.1200 H         1 UNK         0.0600 
    173 H173        0.6557  -14.4670  -46.6786 H         1 UNK         0.0600 
    174 H174        0.2759  -11.6905  -44.3403 H         1 UNK         0.3000 
    175 H175        2.3491   -9.9578  -42.1562 H         1 UNK         0.0600 
    176 H176        3.5556   -9.1640  -44.1936 H         1 UNK         0.0600 
    177 H177        2.0341   -9.0536  -45.0701 H         1 UNK         0.0600 
    178 H178        2.3412   -8.0011  -43.6877 H         1 UNK         0.0600 
    179 H179        0.0307   -9.1437  -43.6427 H         1 UNK         0.3000 
    180 H180       -2.0760   -9.5153  -41.1626 H         1 UNK         0.0600 
    181 H181       -2.0577   -9.4919  -44.2349 H         1 UNK         0.0600 
    182 H182       -1.7515   -8.1123  -43.1788 H         1 UNK         0.0600 
    183 H183       -3.3368   -8.8556  -43.2109 H         1 UNK         0.0600 
    184 H184       -3.2804  -11.3570  -41.3263 H         1 UNK         0.3000 
    185 H185       -3.2740  -13.7888  -41.7503 H         1 UNK         0.0600 
    186 H186       -5.2512  -12.3675  -41.9107 H         1 UNK         0.0600 
    187 H187       -5.3405  -12.5640  -43.6512 H         1 UNK         0.0600 
    188 H188       -5.6609  -13.9327  -42.5866 H         1 UNK         0.0600 
    189 H189       -2.7618  -15.3348  -43.2273 H         1 UNK         0.3000 
    190 H190       -0.6929  -22.1407  -45.6206 H         1 UNK         0.3000 
    191 H191       -3.4204  -22.3831  -46.3880 H         1 UNK         0.0600 
    192 H192       -2.7217  -20.8732  -44.6003 H         1 UNK         0.0600 
    193 H193       -3.8723  -22.0271  -43.9499 H         1 UNK         0.0600 
    194 H194       -2.1580  -22.2183  -43.6055 H         1 UNK         0.0600 
    195 H195       -1.3338  -24.6063  -44.4679 H         1 UNK         0.3000 
    196 H196       -3.2762  -26.6161  -44.0103 H         1 UNK         0.0600 
    197 H197       -0.2229  -26.8128  -44.1872 H         1 UNK         0.0600 
    198 H198       -1.2808  -28.0388  -43.4978 H         1 UNK         0.0600 
    199 H199       -1.1612  -26.4593  -42.7378 H         1 UNK         0.0600 
    200 H200       -1.0407  -26.1227  -46.7514 H         1 UNK         0.3000 
    201 H201       -1.7602  -28.5421  -48.1583 H         1 UNK         0.0600 
    202 H202       -0.4125  -27.5095  -49.9800 H         1 UNK         0.0600 
    203 H203        0.4357  -27.3987  -48.4468 H         1 UNK         0.0600 
    204 H204       -0.3731  -25.9804  -49.1128 H         1 UNK         0.0600 
    205 H205       -3.4713  -25.6633  -47.6737 H         1 UNK         0.3000 
    206 H206       -5.2494  -24.6651  -48.4778 H         1 UNK         0.0600 
    207 H207       -6.2917  -26.9475  -48.5240 H         1 UNK         0.0600 
    208 H208       -6.9556  -25.8805  -49.7501 H         1 UNK         0.0600 
    209 H209       -5.8079  -27.1279  -50.2105 H         1 UNK         0.0600 
    210 H210       -2.7153  -24.1479  -49.6390 H         1 UNK         0.3000 
    211 H211       -3.1656  -23.4731  -52.4846 H         1 UNK         0.0600 
    212 H212       -0.8107  -22.6795  -52.3346 H         1 UNK         0.0600 
    213 H213       -0.9545  -24.3626  -51.8506 H         1 UNK         0.0600 
    214 H214       -0.7538  -23.1084  -50.6319 H         1 UNK         0.0600 
    215 H215       -5.0447  -22.1944  -51.8961 H         1 UNK         0.3000 
    216 H216       -4.9666  -19.8420  -50.3013 H         1 UNK         0.0600 
    217 H217       -7.1607  -19.3939  -51.4317 H         1 UNK         0.0600 
    218 H218       -7.0550  -21.0699  -50.9230 H         1 UNK         0.0600 
    219 H219       -6.8192  -20.6477  -52.6186 H         1 UNK         0.0600 
    220 H220       -5.2396  -17.6532  -50.9982 H         1 UNK         0.3000 
    221 H221       -3.2550  -16.6752  -52.7548 H         1 UNK         0.0600 
    222 H222       -4.0347  -15.4723  -50.7333 H         1 UNK         0.0600 
    223 H223       -4.2385  -14.4599  -52.1528 H         1 UNK         0.0600 
    224 H224       -5.6359  -15.2615  -51.4452 H         1 UNK         0.0600 
    225 H225       -6.3467  -17.8069  -53.5977 H         1 UNK         0.3000 
    226 H226       -6.7977  -16.1909  -55.9715 H         1 UNK         0.0600 
    227 H227       -8.6664  -17.2045  -54.6714 H         1 UNK         0.0600 
    228 H228       -8.0619  -18.8203  -55.0384 H         1 UNK         0.0600 
    229 H229       -8.6642  -17.7831  -56.3273 H         1 UNK         0.0600 
    230 H230       -4.2095  -17.0624  -56.0306 H         1 UNK         0.3000 
    231 H231       -2.5867  -17.9029  -57.2617 H         1 UNK         0.0600 
    232 H232       -4.6881  -18.2073  -59.4683 H         1 UNK         0.0600 
    233 H233       -2.9500  -18.0659  -59.6922 H         1 UNK         0.0600 
    234 H234       -3.8589  -16.7064  -59.0574 H         1 UNK         0.0600 
    235 H235       -4.1662  -19.9302  -55.6661 H         1 UNK         0.3000 
    236 H236       -4.2483  -22.3847  -57.1217 H         1 UNK         0.0600 
    237 H237       -4.1065  -21.8925  -54.1144 H         1 UNK         0.0600 
    238 H238       -5.5890  -21.9368  -55.0660 H         1 UNK         0.0600 
    239 H239       -4.6152  -23.3904  -54.8801 H         1 UNK         0.0600 
    240 H240       -1.6280  -20.7236  -55.5608 H         1 UNK         0.3000 
    241 H241        0.2180  -22.9962  -55.6175 H         1 UNK         0.0600 
    242 H242       -1.0028  -21.1138  -58.1851 H         1 UNK         0.3800 
    243 H243        0.4203  -21.2312  -59.1843 H         1 UNK         0.3800 
    244 H244        1.9214  -21.2941  -54.8459 H         1 UNK         0.0800 
    245 H245        0.5977  -21.5795  -53.7732 H         1 UNK         0.0800 
    246 H246       -1.4413  -18.4871  -53.6318 H         1 UNK         0.0800 
    247 H247       -1.2617  -20.1741  -53.2464 H         1 UNK         0.0800 
@<TRIPOS>BOND
     1    1    2 1    
     2    1  127 1    
     3    1  128 1    
     4    1  129 1    
     5    2    3 2    
     6    2    4 am   BACKBONE|DICT|INTERRES
     7    4    5 1    
     8    4  130 1    
     9    5    6 1    
    10    5   65 1    
    11    5  131 1    
    12    6    7 1    
    13    6  132 1    
    14    6  133 1    
    15    7    8 1    
    16    8    9 1    
    17    8  134 1    
    18    8  135 1    
    19    9   10 ar   
    20    9   14 ar   
    21   10   11 ar   
    22   10  136 1    
    23   11   12 ar   
    24   11  126 1    
    25   12   13 ar   
    26   12  137 1    
    27   13   14 ar   
    28   13   15 1    
    29   14  138 1    
    30   15   16 1    
    31   15  139 1    
    32   15  140 1    
    33   16   17 1    
    34   17   18 1    
    35   17  141 1    
    36   17  142 1    
    37   18   19 1    
    38   18   67 1    
    39   18  143 1    
    40   19   20 am   BACKBONE|DICT|INTERRES
    41   19  144 1    
    42   20   21 2    
    43   20   22 1    
    44   22   23 1    
    45   22   24 1    
    46   22  145 1    
    47   23  146 1    
    48   23  147 1    
    49   23  148 1    
    50   24   25 am   BACKBONE|DICT|INTERRES
    51   24  149 1    
    52   25   26 2    
    53   25   27 1    
    54   27   28 1    
    55   27   29 1    
    56   27  150 1    
    57   28  151 1    
    58   28  152 1    
    59   28  153 1    
    60   29   30 am   BACKBONE|DICT|INTERRES
    61   29  154 1    
    62   30   31 2    
    63   30   32 1    
    64   32   33 1    
    65   32   34 1    
    66   32  155 1    
    67   33  156 1    
    68   33  157 1    
    69   33  158 1    
    70   34   35 am   BACKBONE|DICT|INTERRES
    71   34  159 1    
    72   35   36 2    
    73   35   37 1    
    74   37   38 1    
    75   37   39 1    
    76   37  160 1    
    77   38  161 1    
    78   38  162 1    
    79   38  163 1    
    80   39   40 am   BACKBONE|DICT|INTERRES
    81   39  164 1    
    82   40   41 2    
    83   40   42 1    
    84   42   43 1    
    85   42   44 1    
    86   42  165 1    
    87   43  166 1    
    88   43  167 1    
    89   43  168 1    
    90   44   45 am   BACKBONE|DICT|INTERRES
    91   44  169 1    
    92   45   46 2    
    93   45   47 1    
    94   47   48 1    
    95   47   49 1    
    96   47  170 1    
    97   48  171 1    
    98   48  172 1    
    99   48  173 1    
   100   49   50 am   BACKBONE|DICT|INTERRES
   101   49  174 1    
   102   50   51 2    
   103   50   52 1    
   104   52   53 1    
   105   52   54 1    
   106   52  175 1    
   107   53  176 1    
   108   53  177 1    
   109   53  178 1    
   110   54   55 am   BACKBONE|DICT|INTERRES
   111   54  179 1    
   112   55   56 2    
   113   55   57 1    
   114   57   58 1    
   115   57   59 1    
   116   57  180 1    
   117   58  181 1    
   118   58  182 1    
   119   58  183 1    
   120   59   60 am   BACKBONE|DICT|INTERRES
   121   59  184 1    
   122   60   61 2    
   123   60   62 1    
   124   62   63 1    
   125   62   64 1    
   126   62  185 1    
   127   63  186 1    
   128   63  187 1    
   129   63  188 1    
   130   64   65 am   BACKBONE|DICT|INTERRES
   131   64  189 1    
   132   65   66 2    
   133   67   68 2    
   134   67   69 am   BACKBONE|DICT|INTERRES
   135   69   70 1    
   136   69  190 1    
   137   70   71 1    
   138   70   72 1    
   139   70  191 1    
   140   71  192 1    
   141   71  193 1    
   142   71  194 1    
   143   72   73 2    
   144   72   74 am   BACKBONE|DICT|INTERRES
   145   74   75 1    
   146   74  195 1    
   147   75   76 1    
   148   75   77 1    
   149   75  196 1    
   150   76  197 1    
   151   76  198 1    
   152   76  199 1    
   153   77   78 2    
   154   77   79 am   BACKBONE|DICT|INTERRES
   155   79   80 1    
   156   79  200 1    
   157   80   81 1    
   158   80   82 1    
   159   80  201 1    
   160   81  202 1    
   161   81  203 1    
   162   81  204 1    
   163   82   83 2    
   164   82   84 am   BACKBONE|DICT|INTERRES
   165   84   85 1    
   166   84  205 1    
   167   85   86 1    
   168   85   87 1    
   169   85  206 1    
   170   86  207 1    
   171   86  208 1    
   172   86  209 1    
   173   87   88 2    
   174   87   89 am   BACKBONE|DICT|INTERRES
   175   89   90 1    
   176   89  210 1    
   177   90   91 1    
   178   90   92 1    
   179   90  211 1    
   180   91  212 1    
   181   91  213 1    
   182   91  214 1    
   183   92   93 2    
   184   92   94 am   BACKBONE|DICT|INTERRES
   185   94   95 1    
   186   94  215 1    
   187   95   96 1    
   188   95   97 1    
   189   95  216 1    
   190   96  217 1    
   191   96  218 1    
   192   96  219 1    
   193   97   98 2    
   194   97   99 am   BACKBONE|DICT|INTERRES
   195   99  100 1    
   196   99  220 1    
   197  100  101 1    
   198  100  102 1    
   199  100  221 1    
   200  101  222 1    
   201  101  223 1    
   202  101  224 1    
   203  102  103 2    
   204  102  104 am   BACKBONE|DICT|INTERRES
   205  104  105 1    
   206  104  225 1    
   207  105  106 1    
   208  105  107 1    
   209  105  226 1    
   210  106  227 1    
   211  106  228 1    
   212  106  229 1    
   213  107  108 2    
   214  107  109 am   BACKBONE|DICT|INTERRES
   215  109  110 1    
   216  109  230 1    
   217  110  111 1    
   218  110  112 1    
   219  110  231 1    
   220  111  232 1    
   221  111  233 1    
   222  111  234 1    
   223  112  113 2    
   224  112  114 am   BACKBONE|DICT|INTERRES
   225  114  115 1    
   226  114  235 1    
   227  115  116 1    
   228  115  117 1    
   229  115  236 1    
   230  116  237 1    
   231  116  238 1    
   232  116  239 1    
   233  117  118 2    
   234  117  119 am   BACKBONE|DICT|INTERRES
   235  119  120 1    
   236  119  240 1    
   237  120  121 1    
   238  120  124 1    
   239  120  241 1    
   240  121  122 am   BACKBONE|DICT|INTERRES
   241  121  123 2    
   242  122  242 1    
   243  122  243 1    
   244  124  125 1    
   245  124  244 1    
   246  124  245 1    
   247  125  126 1    
   248  126  246 1    
   249  126  247 1    
@<TRIPOS>SUBSTRUCTURE
     1 UNK         1 GROUP             0       ****    0 ROOT    
