@<TRIPOS>MOLECULE
3R540
247   249    1
SMALL
USER_CHARGES


@<TRIPOS>ATOM
      1 CA          3.1919  -12.9289  -47.8902 C.3       0 UNK        -0.1800 
      2 C           2.2266  -13.3660  -46.7988 C.2       0 UNK         0.5000 
      3 O           2.6277  -13.5089  -45.6445 O.2       0 UNK        -0.5000 
      4 N           0.9513  -13.5671  -47.1501 N.am      1 UNK        -0.5000 
      5 CA         -0.1323  -14.0411  -46.2764 C.3       1 UNK         0.1400 
      6 C6         -1.2864  -14.6644  -47.1058 C.3       23 UNK        -0.0398 
      7 S7         -0.7944  -16.1608  -48.0259 S.3       23 UNK        -0.2404 
      8 C8         -0.3911  -15.5094  -49.6811 C.3       23 UNK        -0.0205 
      9 C9         -0.4776  -16.5963  -50.7454 C.ar      23 UNK        -0.0193 
     10 C10        -1.3333  -16.4481  -51.8413 C.ar      23 UNK        -0.1150 
     11 C11        -1.4519  -17.4533  -52.8077 C.ar      23 UNK        -0.0193 
     12 C12        -0.7096  -18.6324  -52.6480 C.ar      23 UNK        -0.1150 
     13 C13         0.1557  -18.7910  -51.5626 C.ar      23 UNK        -0.0193 
     14 C14         0.2890  -17.7582  -50.6321 C.ar      23 UNK        -0.1150 
     15 C15         0.9343  -20.0860  -51.3912 C.3       23 UNK        -0.0205 
     16 S16        -0.0377  -21.3415  -50.4970 S.3       23 UNK        -0.2404 
     17 C17         0.0759  -20.7139  -48.7921 C.3       23 UNK        -0.0398 
     18 CA         -0.8588  -21.4414  -47.8010 C.3       11 UNK         0.1400 
     19 N          -0.4148  -21.2392  -46.4217 N.am      11 UNK        -0.5000 
     20 C          -0.8618  -21.9239  -45.3589 C.2       10 UNK         0.5000 
     21 O          -1.6467  -22.8669  -45.4427 O.2       10 UNK        -0.5000 
     22 CA         -0.3918  -21.4512  -43.9661 C.3       10 UNK         0.1400 
     23 CB          0.8292  -22.2622  -43.5104 C.3       10 UNK        -0.1800 
     24 N          -0.0705  -20.0222  -43.9225 N.am      10 UNK        -0.5000 
     25 C          -0.9544  -19.0408  -44.1636 C.2       9 UNK         0.5000 
     26 O          -2.1597  -19.2458  -44.3070 O.2       9 UNK        -0.5000 
     27 CA         -0.4117  -17.6072  -44.3503 C.3       9 UNK         0.1400 
     28 CB         -0.7203  -16.7436  -43.1216 C.3       9 UNK        -0.1800 
     29 N           1.0233  -17.5340  -44.6437 N.am      9 UNK        -0.5000 
     30 C           1.6280  -18.0932  -45.7031 C.2       8 UNK         0.5000 
     31 O           1.0230  -18.6993  -46.5857 O.2       8 UNK        -0.5000 
     32 CA          3.1665  -18.0461  -45.7509 C.3       8 UNK         0.1400 
     33 CB          3.6481  -16.9177  -46.6716 C.3       8 UNK        -0.1800 
     34 N           3.8093  -17.9072  -44.4412 N.am      8 UNK        -0.5000 
     35 C           3.6999  -18.7589  -43.4138 C.2       7 UNK         0.5000 
     36 O           2.9843  -19.7606  -43.4404 O.2       7 UNK        -0.5000 
     37 CA          4.4838  -18.4297  -42.1288 C.3       7 UNK         0.1400 
     38 CB          5.9102  -19.0073  -42.1851 C.3       7 UNK        -0.1800 
     39 N           4.4925  -17.0082  -41.7550 N.am      7 UNK        -0.5000 
     40 C           5.0769  -15.9638  -42.3652 C.2       6 UNK         0.5000 
     41 O           5.7076  -16.0579  -43.4187 O.2       6 UNK        -0.5000 
     42 CA          4.9149  -14.5750  -41.7127 C.3       6 UNK         0.1400 
     43 CB          4.1240  -13.6297  -42.6323 C.3       6 UNK        -0.1800 
     44 N           4.2505  -14.6395  -40.4088 N.am      6 UNK        -0.5000 
     45 C           4.8764  -14.8923  -39.2491 C.2       5 UNK         0.5000 
     46 O           6.0964  -15.0282  -39.1519 O.2       5 UNK        -0.5000 
     47 CA          4.0028  -15.0390  -37.9849 C.3       5 UNK         0.1400 
     48 CB          4.0127  -13.7339  -37.1742 C.3       5 UNK        -0.1800 
     49 N           2.6134  -15.4098  -38.2612 N.am      5 UNK        -0.5000 
     50 C           2.2078  -16.5627  -38.8125 C.2       4 UNK         0.5000 
     51 O           2.9700  -17.4796  -39.1173 O.2       4 UNK        -0.5000 
     52 CA          0.7053  -16.6789  -39.1416 C.3       4 UNK         0.1400 
     53 CB         -0.0509  -17.3451  -37.9830 C.3       4 UNK        -0.1800 
     54 N           0.0729  -15.3911  -39.4561 N.am      4 UNK        -0.5000 
     55 C           0.4420  -14.5861  -40.4612 C.2       3 UNK         0.5000 
     56 O           1.3472  -14.8590  -41.2543 O.2       3 UNK        -0.5000 
     57 CA         -0.2702  -13.2314  -40.5574 C.3       3 UNK         0.1400 
     58 CB          0.2117  -12.3015  -39.4242 C.3       3 UNK        -0.1800 
     59 N           0.0349  -12.6472  -41.8593 N.am      3 UNK        -0.5000 
     60 C          -0.5272  -11.5582  -42.3945 C.2       2 UNK         0.5000 
     61 O          -1.4332  -10.9174  -41.8601 O.2       2 UNK        -0.5000 
     62 CA          0.0181  -11.1080  -43.7605 C.3       2 UNK         0.1400 
     63 CB          1.3054  -10.2875  -43.5837 C.3       2 UNK        -0.1800 
     64 N           0.2890  -12.2294  -44.6589 N.am      2 UNK        -0.5000 
     65 C          -0.6398  -12.9317  -45.3184 C.2       1 UNK         0.5000 
     66 O          -1.8471  -12.7104  -45.2103 O.2       1 UNK        -0.5000 
     67 C          -2.3278  -21.0031  -47.9753 C.2       11 UNK         0.5000 
     68 O          -3.1177  -21.7427  -48.5610 O.2       11 UNK        -0.5000 
     69 N          -2.6841  -19.8387  -47.4106 N.am      12 UNK        -0.5000 
     70 CA         -4.0537  -19.3213  -47.3830 C.3       12 UNK         0.1400 
     71 CB         -4.0579  -17.8588  -46.9150 C.3       12 UNK        -0.1800 
     72 C          -4.9919  -20.1852  -46.5222 C.2       12 UNK         0.5000 
     73 O          -6.1361  -20.4069  -46.9171 O.2       12 UNK        -0.5000 
     74 N          -4.4807  -20.7147  -45.4009 N.am      13 UNK        -0.5000 
     75 CA         -5.1771  -21.6859  -44.5499 C.3       13 UNK         0.1400 
     76 CB         -4.3735  -21.9108  -43.2611 C.3       13 UNK        -0.1800 
     77 C          -5.4524  -23.0264  -45.2651 C.2       13 UNK         0.5000 
     78 O          -6.4783  -23.6546  -45.0040 O.2       13 UNK        -0.5000 
     79 N          -4.5607  -23.4110  -46.1889 N.am      14 UNK        -0.5000 
     80 CA         -4.7057  -24.5521  -47.0967 C.3       14 UNK         0.1400 
     81 CB         -3.3060  -25.0570  -47.4876 C.3       14 UNK        -0.1800 
     82 C          -5.5568  -24.2350  -48.3483 C.2       14 UNK         0.5000 
     83 O          -5.6779  -25.0943  -49.2208 O.2       14 UNK        -0.5000 
     84 N          -6.1312  -23.0244  -48.4165 N.am      15 UNK        -0.5000 
     85 CA         -7.0139  -22.4924  -49.4596 C.3       15 UNK         0.1400 
     86 CB         -8.2607  -23.3789  -49.6586 C.3       15 UNK        -0.1800 
     87 C          -6.3069  -22.1198  -50.7799 C.2       15 UNK         0.5000 
     88 O          -6.9934  -21.8852  -51.7756 O.2       15 UNK        -0.5000 
     89 N          -4.9694  -22.0057  -50.7467 N.am      16 UNK        -0.5000 
     90 CA         -4.0682  -21.4272  -51.7497 C.3       16 UNK         0.1400 
     91 CB         -4.0425  -19.8960  -51.5754 C.3       16 UNK        -0.1800 
     92 C          -4.3464  -21.8641  -53.2034 C.2       16 UNK         0.5000 
     93 O          -3.8746  -22.9205  -53.6263 O.2       16 UNK        -0.5000 
     94 N          -5.1149  -21.0538  -53.9437 N.am      17 UNK        -0.5000 
     95 CA         -5.5179  -21.2929  -55.3295 C.3       17 UNK         0.1400 
     96 CB         -6.2923  -20.0727  -55.8478 C.3       17 UNK        -0.1800 
     97 C          -6.3462  -22.5773  -55.5207 C.2       17 UNK         0.5000 
     98 O          -6.2277  -23.2148  -56.5666 O.2       17 UNK        -0.5000 
     99 N          -7.1238  -22.9723  -54.5016 N.am      18 UNK        -0.5000 
    100 CA        -7.8901  -24.2225  -54.4913 C.3       18 UNK         0.1400 
    101 CB        -8.9468  -24.1650  -53.3807 C.3       18 UNK        -0.1800 
    102 C         -6.9977  -25.4699  -54.3296 C.2       18 UNK         0.5000 
    103 O         -7.3942  -26.5554  -54.7541 O.2       18 UNK        -0.5000 
    104 N         -5.7998  -25.2881  -53.7568 N.am      19 UNK        -0.5000 
    105 CA        -4.7403  -26.2951  -53.6724 C.3       19 UNK         0.1400 
    106 CB        -3.9953  -26.1163  -52.3383 C.3       19 UNK        -0.1800 
    107 C         -3.7681  -26.2118  -54.8697 C.2       19 UNK         0.5000 
    108 O         -2.7868  -26.9553  -54.8994 O.2       19 UNK        -0.5000 
    109 N         -4.0476  -25.3079  -55.8235 N.am      20 UNK        -0.5000 
    110 CA        -3.2723  -24.9901  -57.0260 C.3       20 UNK         0.1400 
    111 CB        -3.2016  -26.2034  -57.9768 C.3       20 UNK        -0.1800 
    112 C         -1.8877  -24.3771  -56.7263 C.2       20 UNK         0.5000 
    113 O         -0.9836  -24.4794  -57.5569 O.2       20 UNK        -0.5000 
    114 N         -1.7419  -23.7268  -55.5622 N.am      21 UNK        -0.5000 
    115 CA        -0.4874  -23.1140  -55.1160 C.3       21 UNK         0.1400 
    116 CB        -0.5347  -22.9390  -53.5934 C.3       21 UNK        -0.1800 
    117 C         -0.1824  -21.7685  -55.8051 C.2       21 UNK         0.5000 
    118 O          0.9709  -21.3368  -55.8054 O.2       21 UNK        -0.5000 
    119 N         -1.2113  -21.1350  -56.3764 N.am      22 UNK        -0.5000 
    120 CA        -1.1429  -19.8496  -57.0889 C.3       22 UNK         0.1400 
    121 C         -2.1216  -19.7698  -58.2977 C.2       22 UNK         0.5000 
    122 N         -2.6230  -20.8866  -58.8135 N.am      22 UNK        -0.7600 
    123 O         -2.4178  -18.6874  -58.7964 O.2       22 UNK        -0.5000 
    124 C124       -1.2256  -18.6327  -56.1265 C.3       23 UNK        -0.0398 
    125 S125       -2.7278  -18.6268  -55.0874 S.3       23 UNK        -0.2404 
    126 C126       -2.4036  -17.2077  -53.9834 C.3       23 UNK        -0.0205 
    127 H127        4.0017  -13.6526  -47.9830 H         1 UNK         0.0600 
    128 H128        3.6250  -11.9601  -47.6414 H         1 UNK         0.0600 
    129 H129        2.6982  -12.8443  -48.8586 H         1 UNK         0.0600 
    130 H130        0.6801  -13.3871  -48.1050 H         1 UNK         0.3000 
    131 H131        0.2746  -14.8274  -45.6376 H         1 UNK         0.0600 
    132 H132       -2.1008  -14.9726  -46.4477 H         1 UNK         0.0800 
    133 H133       -1.7170  -13.9307  -47.7889 H         1 UNK         0.0800 
    134 H134        0.6181  -15.0965  -49.6723 H         1 UNK         0.0800 
    135 H135       -1.0670  -14.6888  -49.9253 H         1 UNK         0.0800 
    136 H136       -1.9185  -15.5446  -51.9419 H         1 UNK         0.1150 
    137 H137       -0.8006  -19.4438  -53.3541 H         1 UNK         0.1150 
    138 H138        0.9601  -17.8718  -49.7920 H         1 UNK         0.1150 
    139 H139        1.2074  -20.4793  -52.3714 H         1 UNK         0.0800 
    140 H140        1.8731  -19.9031  -50.8661 H         1 UNK         0.0800 
    141 H141       -0.1220  -19.6431  -48.7762 H         1 UNK         0.0800 
    142 H142        1.1147  -20.8325  -48.4802 H         1 UNK         0.0800 
    143 H143       -0.8048  -22.5137  -48.0023 H         1 UNK         0.0600 
    144 H144        0.2043  -20.4483  -46.2724 H         1 UNK         0.3000 
    145 H145       -1.2033  -21.6313  -43.2594 H         1 UNK         0.0600 
    146 H146        0.6023  -23.3288  -43.4847 H         1 UNK         0.0600 
    147 H147        1.1448  -21.9720  -42.5081 H         1 UNK         0.0600 
    148 H148        1.6773  -22.1224  -44.1821 H         1 UNK         0.0600 
    149 H149        0.9096  -19.7862  -43.8093 H         1 UNK         0.3000 
    150 H150       -0.9428  -17.1813  -45.2028 H         1 UNK         0.0600 
    151 H151       -0.1887  -17.1035  -42.2413 H         1 UNK         0.0600 
    152 H152       -1.7862  -16.7543  -42.8902 H         1 UNK         0.0600 
    153 H153       -0.4361  -15.7045  -43.2877 H         1 UNK         0.0600 
    154 H154        1.6035  -17.0747  -43.9570 H         1 UNK         0.3000 
    155 H155        3.4970  -18.9951  -46.1776 H         1 UNK         0.0600 
    156 H156        4.7182  -16.9963  -46.8634 H         1 UNK         0.0600 
    157 H157        3.4618  -15.9420  -46.2270 H         1 UNK         0.0600 
    158 H158        3.1398  -16.9463  -47.6367 H         1 UNK         0.0600 
    159 H159        4.4432  -17.1216  -44.3202 H         1 UNK         0.3000 
    160 H160        3.9629  -18.9373  -41.3155 H         1 UNK         0.0600 
    161 H161        6.4975  -18.5714  -42.9936 H         1 UNK         0.0600 
    162 H162        5.8853  -20.0855  -42.3477 H         1 UNK         0.0600 
    163 H163        6.4428  -18.8320  -41.2503 H         1 UNK         0.0600 
    164 H164        3.9856  -16.8110  -40.9006 H         1 UNK         0.3000 
    165 H165        5.9150  -14.1556  -41.5848 H         1 UNK         0.0600 
    166 H166        4.6661  -13.4484  -43.5612 H         1 UNK         0.0600 
    167 H167        3.1542  -14.0449  -42.9053 H         1 UNK         0.0600 
    168 H168        3.9564  -12.6614  -42.1608 H         1 UNK         0.0600 
    169 H169        3.2390  -14.5773  -40.4256 H         1 UNK         0.3000 
    170 H170        4.4444  -15.8280  -37.3726 H         1 UNK         0.0600 
    171 H171        3.4682  -13.8470  -36.2365 H         1 UNK         0.0600 
    172 H172        3.5594  -12.9120  -37.7299 H         1 UNK         0.0600 
    173 H173        5.0318  -13.4372  -36.9222 H         1 UNK         0.0600 
    174 H174        1.9131  -14.7155  -38.0477 H         1 UNK         0.3000 
    175 H175        0.6155  -17.3205  -40.0198 H         1 UNK         0.0600 
    176 H176        0.3836  -18.3157  -37.7396 H         1 UNK         0.0600 
    177 H177       -0.0207  -16.7357  -37.0788 H         1 UNK         0.0600 
    178 H178       -1.0966  -17.5146  -38.2401 H         1 UNK         0.0600 
    179 H179       -0.6743  -15.0982  -38.8428 H         1 UNK         0.3000 
    180 H180       -1.3469  -13.3942  -40.4810 H         1 UNK         0.0600 
    181 H181        1.2832  -12.1085  -39.4937 H         1 UNK         0.0600 
    182 H182        0.0191  -12.7371  -38.4432 H         1 UNK         0.0600 
    183 H183       -0.3008  -11.3400  -39.4467 H         1 UNK         0.0600 
    184 H184        0.7532  -13.1456  -42.3702 H         1 UNK         0.3000 
    185 H185       -0.7324  -10.4648  -44.2252 H         1 UNK         0.0600 
    186 H186        1.6578   -9.8978  -44.5389 H         1 UNK         0.0600 
    187 H187        1.1375   -9.4335  -42.9263 H         1 UNK         0.0600 
    188 H188        2.1083  -10.8846  -43.1493 H         1 UNK         0.0600 
    189 H189        1.2611  -12.4863  -44.8090 H         1 UNK         0.3000 
    190 H190       -1.9861  -19.3005  -46.9187 H         1 UNK         0.3000 
    191 H191       -4.4417  -19.3445  -48.4031 H         1 UNK         0.0600 
    192 H192       -3.5134  -17.2247  -47.6133 H         1 UNK         0.0600 
    193 H193       -5.0757  -17.4709  -46.8578 H         1 UNK         0.0600 
    194 H194       -3.6076  -17.7418  -45.9297 H         1 UNK         0.0600 
    195 H195       -3.5544  -20.4212  -45.1061 H         1 UNK         0.3000 
    196 H196       -6.1411  -21.2522  -44.2764 H         1 UNK         0.0600 
    197 H197       -4.9324  -22.5316  -42.5600 H         1 UNK         0.0600 
    198 H198       -4.1536  -20.9681  -42.7594 H         1 UNK         0.0600 
    199 H199       -3.4293  -22.4162  -43.4594 H         1 UNK         0.0600 
    200 H200       -3.7204  -22.8581  -46.3055 H         1 UNK         0.3000 
    201 H201       -5.2132  -25.3592  -46.5648 H         1 UNK         0.0600 
    202 H202       -3.3690  -25.9575  -48.0997 H         1 UNK         0.0600 
    203 H203       -2.7170  -25.3072  -46.6051 H         1 UNK         0.0600 
    204 H204       -2.7516  -24.3126  -48.0584 H         1 UNK         0.0600 
    205 H205       -5.9465  -22.3761  -47.6604 H         1 UNK         0.3000 
    206 H206       -7.3736  -21.5418  -49.0644 H         1 UNK         0.0600 
    207 H207       -8.7612  -23.5706  -48.7095 H         1 UNK         0.0600 
    208 H208       -8.9871  -22.8933  -50.3112 H         1 UNK         0.0600 
    209 H209       -8.0111  -24.3411  -50.1048 H         1 UNK         0.0600 
    210 H210       -4.5104  -22.2166  -49.8652 H         1 UNK         0.3000 
    211 H211       -3.0696  -21.7973  -51.5129 H         1 UNK         0.0600 
    212 H212       -5.0404  -19.4579  -51.6085 H         1 UNK         0.0600 
    213 H213       -3.4462  -19.4242  -52.3528 H         1 UNK         0.0600 
    214 H214       -3.5888  -19.6216  -50.6236 H         1 UNK         0.0600 
    215 H215       -5.4851  -20.2230  -53.5065 H         1 UNK         0.3000 
    216 H216       -4.6078  -21.3969  -55.9237 H         1 UNK         0.0600 
    217 H217       -6.5831  -20.2088  -56.8903 H         1 UNK         0.0600 
    218 H218       -5.6861  -19.1683  -55.7979 H         1 UNK         0.0600 
    219 H219       -7.2022  -19.8999  -55.2717 H         1 UNK         0.0600 
    220 H220       -7.1343  -22.4231  -53.6452 H         1 UNK         0.3000 
    221 H221       -8.4111  -24.3111  -55.4470 H         1 UNK         0.0600 
    222 H222       -8.4826  -24.1276  -52.3972 H         1 UNK         0.0600 
    223 H223       -9.5874  -23.2893  -53.4854 H         1 UNK         0.0600 
    224 H224       -9.5891  -25.0461  -53.4063 H         1 UNK         0.0600 
    225 H225       -5.5357  -24.3542  -53.4684 H         1 UNK         0.3000 
    226 H226       -5.1791  -27.2947  -53.6809 H         1 UNK         0.0600 
    227 H227       -3.2308  -26.8832  -52.2088 H         1 UNK         0.0600 
    228 H228       -3.5001  -25.1474  -52.2732 H         1 UNK         0.0600 
    229 H229       -4.6793  -26.1988  -51.4941 H         1 UNK         0.0600 
    230 H230       -4.8832  -24.7504  -55.7033 H         1 UNK         0.3000 
    231 H231       -3.8326  -24.2096  -57.5420 H         1 UNK         0.0600 
    232 H232       -2.5833  -27.0037  -57.5697 H         1 UNK         0.0600 
    233 H233       -2.7755  -25.9215  -58.9403 H         1 UNK         0.0600 
    234 H234       -4.1940  -26.6105  -58.1706 H         1 UNK         0.0600 
    235 H235       -2.5304  -23.6613  -54.9250 H         1 UNK         0.3000 
    236 H236        0.3312  -23.7982  -55.3492 H         1 UNK         0.0600 
    237 H237       -1.2432  -22.1649  -53.2982 H         1 UNK         0.0600 
    238 H238       -0.8180  -23.8645  -53.0915 H         1 UNK         0.0600 
    239 H239        0.4449  -22.6509  -53.2122 H         1 UNK         0.0600 
    240 H240       -2.1300  -21.5438  -56.3001 H         1 UNK         0.3000 
    241 H241       -0.1630  -19.7972  -57.5668 H         1 UNK         0.0600 
    242 H242       -3.2476  -20.8216  -59.6024 H         1 UNK         0.3800 
    243 H243       -2.3102  -21.7900  -58.4993 H         1 UNK         0.3800 
    244 H244       -1.1776  -17.6950  -56.6821 H         1 UNK         0.0800 
    245 H245       -0.3484  -18.6292  -55.4797 H         1 UNK         0.0800 
    246 H246       -3.3653  -16.8853  -53.5818 H         1 UNK         0.0800 
    247 H247       -2.0266  -16.3746  -54.5781 H         1 UNK         0.0800 
@<TRIPOS>BOND
     1    1    2 1    
     2    1  127 1    
     3    1  128 1    
     4    1  129 1    
     5    2    3 2    
     6    2    4 am   BACKBONE|DICT|INTERRES
     7    4    5 1    
     8    4  130 1    
     9    5    6 1    
    10    5   65 1    
    11    5  131 1    
    12    6    7 1    
    13    6  132 1    
    14    6  133 1    
    15    7    8 1    
    16    8    9 1    
    17    8  134 1    
    18    8  135 1    
    19    9   10 ar   
    20    9   14 ar   
    21   10   11 ar   
    22   10  136 1    
    23   11   12 ar   
    24   11  126 1    
    25   12   13 ar   
    26   12  137 1    
    27   13   14 ar   
    28   13   15 1    
    29   14  138 1    
    30   15   16 1    
    31   15  139 1    
    32   15  140 1    
    33   16   17 1    
    34   17   18 1    
    35   17  141 1    
    36   17  142 1    
    37   18   19 1    
    38   18   67 1    
    39   18  143 1    
    40   19   20 am   BACKBONE|DICT|INTERRES
    41   19  144 1    
    42   20   21 2    
    43   20   22 1    
    44   22   23 1    
    45   22   24 1    
    46   22  145 1    
    47   23  146 1    
    48   23  147 1    
    49   23  148 1    
    50   24   25 am   BACKBONE|DICT|INTERRES
    51   24  149 1    
    52   25   26 2    
    53   25   27 1    
    54   27   28 1    
    55   27   29 1    
    56   27  150 1    
    57   28  151 1    
    58   28  152 1    
    59   28  153 1    
    60   29   30 am   BACKBONE|DICT|INTERRES
    61   29  154 1    
    62   30   31 2    
    63   30   32 1    
    64   32   33 1    
    65   32   34 1    
    66   32  155 1    
    67   33  156 1    
    68   33  157 1    
    69   33  158 1    
    70   34   35 am   BACKBONE|DICT|INTERRES
    71   34  159 1    
    72   35   36 2    
    73   35   37 1    
    74   37   38 1    
    75   37   39 1    
    76   37  160 1    
    77   38  161 1    
    78   38  162 1    
    79   38  163 1    
    80   39   40 am   BACKBONE|DICT|INTERRES
    81   39  164 1    
    82   40   41 2    
    83   40   42 1    
    84   42   43 1    
    85   42   44 1    
    86   42  165 1    
    87   43  166 1    
    88   43  167 1    
    89   43  168 1    
    90   44   45 am   BACKBONE|DICT|INTERRES
    91   44  169 1    
    92   45   46 2    
    93   45   47 1    
    94   47   48 1    
    95   47   49 1    
    96   47  170 1    
    97   48  171 1    
    98   48  172 1    
    99   48  173 1    
   100   49   50 am   BACKBONE|DICT|INTERRES
   101   49  174 1    
   102   50   51 2    
   103   50   52 1    
   104   52   53 1    
   105   52   54 1    
   106   52  175 1    
   107   53  176 1    
   108   53  177 1    
   109   53  178 1    
   110   54   55 am   BACKBONE|DICT|INTERRES
   111   54  179 1    
   112   55   56 2    
   113   55   57 1    
   114   57   58 1    
   115   57   59 1    
   116   57  180 1    
   117   58  181 1    
   118   58  182 1    
   119   58  183 1    
   120   59   60 am   BACKBONE|DICT|INTERRES
   121   59  184 1    
   122   60   61 2    
   123   60   62 1    
   124   62   63 1    
   125   62   64 1    
   126   62  185 1    
   127   63  186 1    
   128   63  187 1    
   129   63  188 1    
   130   64   65 am   BACKBONE|DICT|INTERRES
   131   64  189 1    
   132   65   66 2    
   133   67   68 2    
   134   67   69 am   BACKBONE|DICT|INTERRES
   135   69   70 1    
   136   69  190 1    
   137   70   71 1    
   138   70   72 1    
   139   70  191 1    
   140   71  192 1    
   141   71  193 1    
   142   71  194 1    
   143   72   73 2    
   144   72   74 am   BACKBONE|DICT|INTERRES
   145   74   75 1    
   146   74  195 1    
   147   75   76 1    
   148   75   77 1    
   149   75  196 1    
   150   76  197 1    
   151   76  198 1    
   152   76  199 1    
   153   77   78 2    
   154   77   79 am   BACKBONE|DICT|INTERRES
   155   79   80 1    
   156   79  200 1    
   157   80   81 1    
   158   80   82 1    
   159   80  201 1    
   160   81  202 1    
   161   81  203 1    
   162   81  204 1    
   163   82   83 2    
   164   82   84 am   BACKBONE|DICT|INTERRES
   165   84   85 1    
   166   84  205 1    
   167   85   86 1    
   168   85   87 1    
   169   85  206 1    
   170   86  207 1    
   171   86  208 1    
   172   86  209 1    
   173   87   88 2    
   174   87   89 am   BACKBONE|DICT|INTERRES
   175   89   90 1    
   176   89  210 1    
   177   90   91 1    
   178   90   92 1    
   179   90  211 1    
   180   91  212 1    
   181   91  213 1    
   182   91  214 1    
   183   92   93 2    
   184   92   94 am   BACKBONE|DICT|INTERRES
   185   94   95 1    
   186   94  215 1    
   187   95   96 1    
   188   95   97 1    
   189   95  216 1    
   190   96  217 1    
   191   96  218 1    
   192   96  219 1    
   193   97   98 2    
   194   97   99 am   BACKBONE|DICT|INTERRES
   195   99  100 1    
   196   99  220 1    
   197  100  101 1    
   198  100  102 1    
   199  100  221 1    
   200  101  222 1    
   201  101  223 1    
   202  101  224 1    
   203  102  103 2    
   204  102  104 am   BACKBONE|DICT|INTERRES
   205  104  105 1    
   206  104  225 1    
   207  105  106 1    
   208  105  107 1    
   209  105  226 1    
   210  106  227 1    
   211  106  228 1    
   212  106  229 1    
   213  107  108 2    
   214  107  109 am   BACKBONE|DICT|INTERRES
   215  109  110 1    
   216  109  230 1    
   217  110  111 1    
   218  110  112 1    
   219  110  231 1    
   220  111  232 1    
   221  111  233 1    
   222  111  234 1    
   223  112  113 2    
   224  112  114 am   BACKBONE|DICT|INTERRES
   225  114  115 1    
   226  114  235 1    
   227  115  116 1    
   228  115  117 1    
   229  115  236 1    
   230  116  237 1    
   231  116  238 1    
   232  116  239 1    
   233  117  118 2    
   234  117  119 am   BACKBONE|DICT|INTERRES
   235  119  120 1    
   236  119  240 1    
   237  120  121 1    
   238  120  124 1    
   239  120  241 1    
   240  121  122 am   BACKBONE|DICT|INTERRES
   241  121  123 2    
   242  122  242 1    
   243  122  243 1    
   244  124  125 1    
   245  124  244 1    
   246  124  245 1    
   247  125  126 1    
   248  126  246 1    
   249  126  247 1    
@<TRIPOS>SUBSTRUCTURE
     1 UNK         1 GROUP             0       ****    0 ROOT    
