@<TRIPOS>MOLECULE
3R540
247   249    1
SMALL
USER_CHARGES


@<TRIPOS>ATOM
      1 CA          2.4304  -13.8242  -45.6128 C.3       0 UNK        -0.1800 
      2 C           1.7547  -15.0007  -46.2988 C.2       0 UNK         0.5000 
      3 O           1.1249  -15.8227  -45.6322 O.2       0 UNK        -0.5000 
      4 N           1.8894  -15.0792  -47.6281 N.am      1 UNK        -0.5000 
      5 CA          1.3512  -16.1267  -48.5088 C.3       1 UNK         0.1400 
      6 C6          2.2355  -16.3102  -49.7747 C.3       23 UNK        -0.0398 
      7 S7          3.7305  -17.3038  -49.4450 S.3       23 UNK        -0.2404 
      8 C8          3.9606  -18.2017  -51.0186 C.3       23 UNK        -0.0205 
      9 C9          3.0181  -19.3908  -51.1716 C.ar      23 UNK        -0.0193 
     10 C10         1.7825  -19.2325  -51.8056 C.ar      23 UNK        -0.1150 
     11 C11         0.9129  -20.3137  -51.9524 C.ar      23 UNK        -0.0193 
     12 C12         1.3022  -21.5715  -51.4868 C.ar      23 UNK        -0.1150 
     13 C13         2.5422  -21.7621  -50.8704 C.ar      23 UNK        -0.0193 
     14 C14         3.3947  -20.6588  -50.7122 C.ar      23 UNK        -0.1150 
     15 C15         2.9184  -23.1837  -50.4383 C.3       23 UNK        -0.0205 
     16 S16         4.2516  -23.3244  -49.2006 S.3       23 UNK        -0.2404 
     17 C17         3.4339  -22.6818  -47.7039 C.3       23 UNK        -0.0398 
     18 CA          3.3976  -23.7005  -46.5314 C.3       11 UNK         0.1400 
     19 N           3.4994  -23.0078  -45.2427 N.am      11 UNK        -0.5000 
     20 C           3.9305  -23.5409  -44.0924 C.2       10 UNK         0.5000 
     21 O           4.3385  -24.6971  -43.9828 O.2       10 UNK        -0.5000 
     22 CA          3.8557  -22.6329  -42.8494 C.3       10 UNK         0.1400 
     23 CB          5.0727  -21.6979  -42.7838 C.3       10 UNK        -0.1800 
     24 N           2.6270  -21.8346  -42.8023 N.am      10 UNK        -0.5000 
     25 C           1.3962  -22.3376  -42.6259 C.2       9 UNK         0.5000 
     26 O           1.1609  -23.5364  -42.4790 O.2       9 UNK        -0.5000 
     27 CA          0.2275  -21.3387  -42.6669 C.3       9 UNK         0.1400 
     28 CB          0.0407  -20.6454  -41.3090 C.3       9 UNK        -0.1800 
     29 N           0.4231  -20.3349  -43.7103 N.am      9 UNK        -0.5000 
     30 C           0.2204  -20.5697  -45.0139 C.2       8 UNK         0.5000 
     31 O          -0.1961  -21.6396  -45.4609 O.2       8 UNK        -0.5000 
     32 CA          0.5495  -19.4234  -45.9865 C.3       8 UNK         0.1400 
     33 CB         -0.6726  -18.5105  -46.1333 C.3       8 UNK        -0.1800 
     34 N           1.7079  -18.6177  -45.5932 N.am      8 UNK        -0.5000 
     35 C           2.9478  -19.0951  -45.4202 C.2       7 UNK         0.5000 
     36 O           3.2506  -20.2686  -45.6129 O.2       7 UNK        -0.5000 
     37 CA          4.0183  -18.1376  -44.8664 C.3       7 UNK         0.1400 
     38 CB          4.7797  -17.4435  -46.0021 C.3       7 UNK        -0.1800 
     39 N           3.5092  -17.1293  -43.9368 N.am      7 UNK        -0.5000 
     40 C           2.8321  -17.3775  -42.8084 C.2       6 UNK         0.5000 
     41 O           2.4783  -18.5024  -42.4518 O.2       6 UNK        -0.5000 
     42 CA          2.4635  -16.1595  -41.9565 C.3       6 UNK         0.1400 
     43 CB          3.5305  -15.0426  -41.9853 C.3       6 UNK        -0.1800 
     44 N           1.1693  -15.6588  -42.4042 N.am      6 UNK        -0.5000 
     45 C           0.3606  -14.8902  -41.6668 C.2       5 UNK         0.5000 
     46 O           0.6482  -14.4646  -40.5468 O.2       5 UNK        -0.5000 
     47 CA         -1.0152  -14.5569  -42.2683 C.3       5 UNK         0.1400 
     48 CB         -0.9126  -13.3770  -43.2459 C.3       5 UNK        -0.1800 
     49 N          -1.6634  -15.6916  -42.9308 N.am      5 UNK        -0.5000 
     50 C          -2.0671  -16.8110  -42.3065 C.2       4 UNK         0.5000 
     51 O          -1.8338  -17.0451  -41.1196 O.2       4 UNK        -0.5000 
     52 CA         -2.8862  -17.8299  -43.1342 C.3       4 UNK         0.1400 
     53 CB         -3.8150  -18.7013  -42.2639 C.3       4 UNK        -0.1800 
     54 N          -3.6430  -17.2273  -44.2379 N.am      4 UNK        -0.5000 
     55 C          -4.5644  -16.2552  -44.1625 C.2       3 UNK         0.5000 
     56 O          -4.9397  -15.7500  -43.1029 O.2       3 UNK        -0.5000 
     57 CA         -5.1500  -15.7538  -45.5029 C.3       3 UNK         0.1400 
     58 CB         -5.7815  -14.3520  -45.3798 C.3       3 UNK        -0.1800 
     59 N          -4.2147  -15.7653  -46.6376 N.am      3 UNK        -0.5000 
     60 C          -3.0016  -15.1983  -46.6965 C.2       2 UNK         0.5000 
     61 O          -2.4017  -14.7289  -45.7275 O.2       2 UNK        -0.5000 
     62 CA         -2.3602  -15.1126  -48.0850 C.3       2 UNK         0.1400 
     63 CB         -2.6500  -13.7529  -48.7407 C.3       2 UNK        -0.1800 
     64 N          -0.9193  -15.2992  -47.9542 N.am      2 UNK        -0.5000 
     65 C          -0.1425  -15.9021  -48.8598 C.2       1 UNK         0.5000 
     66 O          -0.5864  -16.3147  -49.9310 O.2       1 UNK        -0.5000 
     67 C           2.1633  -24.6345  -46.6031 C.2       11 UNK         0.5000 
     68 O           2.0529  -25.4149  -47.5489 O.2       11 UNK        -0.5000 
     69 N           1.2677  -24.5461  -45.6044 N.am      12 UNK        -0.5000 
     70 CA          0.0274  -25.3120  -45.4320 C.3       12 UNK         0.1400 
     71 CB          0.3353  -26.8022  -45.1786 C.3       12 UNK        -0.1800 
     72 C          -0.9817  -25.0841  -46.5768 C.2       12 UNK         0.5000 
     73 O          -1.6628  -26.0170  -47.0065 O.2       12 UNK        -0.5000 
     74 N          -1.0489  -23.8348  -47.0487 N.am      13 UNK        -0.5000 
     75 CA         -1.8898  -23.3911  -48.1585 C.3       13 UNK         0.1400 
     76 CB         -1.0459  -22.4638  -49.0419 C.3       13 UNK        -0.1800 
     77 C          -3.1842  -22.7029  -47.6821 C.2       13 UNK         0.5000 
     78 O          -4.0597  -22.4384  -48.5079 O.2       13 UNK        -0.5000 
     79 N          -3.2931  -22.4416  -46.3685 N.am      14 UNK        -0.5000 
     80 CA         -4.4392  -21.8580  -45.6632 C.3       14 UNK         0.1400 
     81 CB         -5.6270  -22.8453  -45.6481 C.3       14 UNK        -0.1800 
     82 C          -4.7940  -20.4630  -46.2112 C.2       14 UNK         0.5000 
     83 O          -4.0709  -19.5105  -45.9243 O.2       14 UNK        -0.5000 
     84 N          -5.8675  -20.3614  -47.0090 N.am      15 UNK        -0.5000 
     85 CA         -6.2597  -19.1437  -47.7242 C.3       15 UNK         0.1400 
     86 CB         -7.5841  -19.3846  -48.4612 C.3       15 UNK        -0.1800 
     87 C          -5.1800  -18.6527  -48.7064 C.2       15 UNK         0.5000 
     88 O          -5.0008  -17.4416  -48.8561 O.2       15 UNK        -0.5000 
     89 N          -4.4524  -19.6063  -49.3070 N.am      16 UNK        -0.5000 
     90 CA         -3.2881  -19.4153  -50.1665 C.3       16 UNK         0.1400 
     91 CB         -2.0807  -19.0216  -49.2993 C.3       16 UNK        -0.1800 
     92 C          -3.5911  -18.4675  -51.3418 C.2       16 UNK         0.5000 
     93 O          -4.5585  -18.7247  -52.0604 O.2       16 UNK        -0.5000 
     94 N          -2.8075  -17.3947  -51.5286 N.am      17 UNK        -0.5000 
     95 CA         -2.9465  -16.4581  -52.6494 C.3       17 UNK         0.1400 
     96 CB         -1.7428  -15.5061  -52.6871 C.3       17 UNK        -0.1800 
     97 C          -4.2682  -15.6633  -52.6670 C.2       17 UNK         0.5000 
     98 O          -4.6183  -15.1240  -53.7166 O.2       17 UNK        -0.5000 
     99 N          -5.0038  -15.6349  -51.5441 N.am      18 UNK        -0.5000 
    100 CA        -6.3482  -15.0560  -51.4649 C.3       18 UNK         0.1400 
    101 CB        -6.7530  -14.8894  -49.9915 C.3       18 UNK        -0.1800 
    102 C         -7.4027  -15.8903  -52.2229 C.2       18 UNK         0.5000 
    103 O         -8.4083  -15.3314  -52.6619 O.2       18 UNK        -0.5000 
    104 N         -7.1520  -17.1992  -52.3684 N.am      19 UNK        -0.5000 
    105 CA        -8.0075  -18.1527  -53.0798 C.3       19 UNK         0.1400 
    106 CB        -8.3853  -19.2740  -52.0977 C.3       19 UNK        -0.1800 
    107 C         -7.3207  -18.7434  -54.3284 C.2       19 UNK         0.5000 
    108 O         -7.9516  -19.5207  -55.0455 O.2       19 UNK        -0.5000 
    109 N         -6.0406  -18.4002  -54.5440 N.am      20 UNK        -0.5000 
    110 CA        -5.0973  -19.0007  -55.4976 C.3       20 UNK         0.1400 
    111 CB        -5.5258  -18.7315  -56.9545 C.3       20 UNK        -0.1800 
    112 C         -4.8361  -20.4966  -55.2059 C.2       20 UNK         0.5000 
    113 O         -4.5909  -21.2818  -56.1233 O.2       20 UNK        -0.5000 
    114 N         -4.8877  -20.8658  -53.9199 N.am      21 UNK        -0.5000 
    115 CA        -4.7971  -22.2301  -53.4027 C.3       21 UNK         0.1400 
    116 CB        -5.6177  -22.3088  -52.1016 C.3       21 UNK        -0.1800 
    117 C         -3.3369  -22.6893  -53.2137 C.2       21 UNK         0.5000 
    118 O         -2.9905  -23.2246  -52.1598 O.2       21 UNK        -0.5000 
    119 N         -2.4970  -22.4571  -54.2292 N.am      22 UNK        -0.5000 
    120 CA        -1.0715  -22.8313  -54.2340 C.3       22 UNK         0.1400 
    121 C         -0.7881  -24.2449  -54.8211 C.2       22 UNK         0.5000 
    122 N         -1.7797  -24.9729  -55.3204 N.am      22 UNK        -0.7600 
    123 O          0.3532  -24.6974  -54.8127 O.2       22 UNK        -0.5000 
    124 C124       -0.1722  -21.7569  -54.9049 C.3       23 UNK        -0.0398 
    125 S125       -0.4546  -20.0266  -54.3817 S.3       23 UNK        -0.2404 
    126 C126       -0.4641  -20.1003  -52.5626 C.3       23 UNK        -0.0205 
    127 H127        2.3646  -12.9237  -46.2235 H         1 UNK         0.0600 
    128 H128        3.4827  -14.0464  -45.4378 H         1 UNK         0.0600 
    129 H129        1.9604  -13.6151  -44.6524 H         1 UNK         0.0600 
    130 H130        2.4095  -14.3537  -48.1006 H         1 UNK         0.3000 
    131 H131        1.3723  -17.0707  -47.9629 H         1 UNK         0.0600 
    132 H132        2.5308  -15.3443  -50.1866 H         1 UNK         0.0800 
    133 H133        1.6927  -16.8080  -50.5729 H         1 UNK         0.0800 
    134 H134        4.9930  -18.5508  -51.0681 H         1 UNK         0.0800 
    135 H135        3.8393  -17.5111  -51.8545 H         1 UNK         0.0800 
    136 H136        1.4868  -18.2660  -52.1869 H         1 UNK         0.1150 
    137 H137        0.6366  -22.4132  -51.5970 H         1 UNK         0.1150 
    138 H138        4.3612  -20.7787  -50.2452 H         1 UNK         0.1150 
    139 H139        2.0400  -23.7024  -50.0515 H         1 UNK         0.0800 
    140 H140        3.2273  -23.7326  -51.3287 H         1 UNK         0.0800 
    141 H141        4.0308  -21.8135  -47.4264 H         1 UNK         0.0800 
    142 H142        2.4401  -22.2913  -47.9319 H         1 UNK         0.0800 
    143 H143        4.2770  -24.3431  -46.6123 H         1 UNK         0.0600 
    144 H144        3.2516  -22.0193  -45.2548 H         1 UNK         0.3000 
    145 H145        3.8726  -23.2747  -41.9660 H         1 UNK         0.0600 
    146 H146        5.0426  -21.0705  -41.8927 H         1 UNK         0.0600 
    147 H147        5.1261  -21.0438  -43.6540 H         1 UNK         0.0600 
    148 H148        6.0006  -22.2701  -42.7481 H         1 UNK         0.0600 
    149 H149        2.7252  -20.8344  -42.9173 H         1 UNK         0.3000 
    150 H150       -0.6858  -21.8967  -42.8851 H         1 UNK         0.0600 
    151 H151       -0.1794  -21.3747  -40.5285 H         1 UNK         0.0600 
    152 H152       -0.7884  -19.9384  -41.3369 H         1 UNK         0.0600 
    153 H153        0.9336  -20.1002  -41.0029 H         1 UNK         0.0600 
    154 H154        0.8479  -19.4607  -43.4246 H         1 UNK         0.3000 
    155 H155        0.7643  -19.8745  -46.9576 H         1 UNK         0.0600 
    156 H156       -1.5916  -19.0885  -46.2133 H         1 UNK         0.0600 
    157 H157       -0.6005  -17.9114  -47.0331 H         1 UNK         0.0600 
    158 H158       -0.7760  -17.8281  -45.2906 H         1 UNK         0.0600 
    159 H159        1.5418  -17.6260  -45.4414 H         1 UNK         0.3000 
    160 H160        4.7334  -18.7476  -44.3119 H         1 UNK         0.0600 
    161 H161        4.1403  -16.7527  -46.5499 H         1 UNK         0.0600 
    162 H162        5.1667  -18.1713  -46.7168 H         1 UNK         0.0600 
    163 H163        5.6314  -16.8802  -45.6207 H         1 UNK         0.0600 
    164 H164        3.7371  -16.1707  -44.1505 H         1 UNK         0.3000 
    165 H165        2.3683  -16.5162  -40.9286 H         1 UNK         0.0600 
    166 H166        3.3207  -14.2802  -41.2353 H         1 UNK         0.0600 
    167 H167        4.5216  -15.4410  -41.7640 H         1 UNK         0.0600 
    168 H168        3.5799  -14.5430  -42.9521 H         1 UNK         0.0600 
    169 H169        0.8618  -15.9584  -43.3217 H         1 UNK         0.3000 
    170 H170       -1.6618  -14.2491  -41.4439 H         1 UNK         0.0600 
    171 H171       -0.3965  -12.5303  -42.7916 H         1 UNK         0.0600 
    172 H172       -0.3688  -13.6510  -44.1498 H         1 UNK         0.0600 
    173 H173       -1.9018  -13.0312  -43.5466 H         1 UNK         0.0600 
    174 H174       -1.9195  -15.5521  -43.9034 H         1 UNK         0.3000 
    175 H175       -2.1601  -18.5031  -43.5886 H         1 UNK         0.0600 
    176 H176       -4.5433  -18.0983  -41.7211 H         1 UNK         0.0600 
    177 H177       -4.3620  -19.4208  -42.8733 H         1 UNK         0.0600 
    178 H178       -3.2465  -19.2701  -41.5275 H         1 UNK         0.0600 
    179 H179       -3.4791  -17.6443  -45.1472 H         1 UNK         0.3000 
    180 H180       -5.9496  -16.4494  -45.7559 H         1 UNK         0.0600 
    181 H181       -6.2210  -14.0336  -46.3253 H         1 UNK         0.0600 
    182 H182       -5.0435  -13.6050  -45.0848 H         1 UNK         0.0600 
    183 H183       -6.5782  -14.3403  -44.6351 H         1 UNK         0.0600 
    184 H184       -4.5743  -16.2002  -47.4839 H         1 UNK         0.3000 
    185 H185       -2.7882  -15.8955  -48.7114 H         1 UNK         0.0600 
    186 H186       -2.2424  -12.9300  -48.1521 H         1 UNK         0.0600 
    187 H187       -2.2181  -13.6955  -49.7393 H         1 UNK         0.0600 
    188 H188       -3.7229  -13.5870  -48.8405 H         1 UNK         0.0600 
    189 H189       -0.5330  -15.0531  -47.0502 H         1 UNK         0.3000 
    190 H190        1.4576  -23.8731  -44.8748 H         1 UNK         0.3000 
    191 H191       -0.4463  -24.9185  -44.5314 H         1 UNK         0.0600 
    192 H192       -0.5702  -27.3489  -44.9133 H         1 UNK         0.0600 
    193 H193        1.0391  -26.9232  -44.3551 H         1 UNK         0.0600 
    194 H194        0.7619  -27.2841  -46.0587 H         1 UNK         0.0600 
    195 H195       -0.5002  -23.1139  -46.5858 H         1 UNK         0.3000 
    196 H196       -2.1915  -24.2458  -48.7674 H         1 UNK         0.0600 
    197 H197       -0.6469  -21.6191  -48.4809 H         1 UNK         0.0600 
    198 H198       -1.6240  -22.0783  -49.8812 H         1 UNK         0.0600 
    199 H199       -0.2001  -23.0091  -49.4570 H         1 UNK         0.0600 
    200 H200       -2.4855  -22.6406  -45.7951 H         1 UNK         0.3000 
    201 H201       -4.1239  -21.7068  -44.6297 H         1 UNK         0.0600 
    202 H202       -5.9650  -23.1081  -46.6509 H         1 UNK         0.0600 
    203 H203       -6.4779  -22.4276  -45.1084 H         1 UNK         0.0600 
    204 H204       -5.3521  -23.7718  -45.1439 H         1 UNK         0.0600 
    205 H205       -6.3903  -21.1998  -47.2158 H         1 UNK         0.3000 
    206 H206       -6.4183  -18.3585  -46.9846 H         1 UNK         0.0600 
    207 H207       -8.3809  -19.6480  -47.7655 H         1 UNK         0.0600 
    208 H208       -7.9020  -18.4869  -48.9934 H         1 UNK         0.0600 
    209 H209       -7.4973  -20.1890  -49.1927 H         1 UNK         0.0600 
    210 H210       -4.6600  -20.5737  -49.0808 H         1 UNK         0.3000 
    211 H211       -3.0777  -20.3863  -50.6147 H         1 UNK         0.0600 
    212 H212       -2.2377  -18.0650  -48.8084 H         1 UNK         0.0600 
    213 H213       -1.1571  -18.9695  -49.8748 H         1 UNK         0.0600 
    214 H214       -1.9276  -19.7537  -48.5095 H         1 UNK         0.0600 
    215 H215       -2.0455  -17.2000  -50.8838 H         1 UNK         0.3000 
    216 H216       -2.9230  -17.0514  -53.5658 H         1 UNK         0.0600 
    217 H217       -1.7732  -14.8721  -53.5740 H         1 UNK         0.0600 
    218 H218       -0.8026  -16.0575  -52.7156 H         1 UNK         0.0600 
    219 H219       -1.7235  -14.8488  -51.8181 H         1 UNK         0.0600 
    220 H220       -4.6731  -16.1314  -50.7264 H         1 UNK         0.3000 
    221 H221       -6.3169  -14.0639  -51.9203 H         1 UNK         0.0600 
    222 H222       -7.6800  -14.3208  -49.9090 H         1 UNK         0.0600 
    223 H223       -6.9226  -15.8505  -49.5065 H         1 UNK         0.0600 
    224 H224       -5.9924  -14.3535  -49.4243 H         1 UNK         0.0600 
    225 H225       -6.2963  -17.5777  -51.9779 H         1 UNK         0.3000 
    226 H226       -8.9259  -17.6716  -53.4216 H         1 UNK         0.0600 
    227 H227       -8.9497  -18.8800  -51.2528 H         1 UNK         0.0600 
    228 H228       -9.0087  -20.0298  -52.5770 H         1 UNK         0.0600 
    229 H229       -7.4999  -19.7759  -51.7058 H         1 UNK         0.0600 
    230 H230       -5.6252  -17.7694  -53.8744 H         1 UNK         0.3000 
    231 H231       -4.1439  -18.4953  -55.3382 H         1 UNK         0.0600 
    232 H232       -4.7478  -19.0419  -57.6529 H         1 UNK         0.0600 
    233 H233       -5.7062  -17.6697  -57.1222 H         1 UNK         0.0600 
    234 H234       -6.4343  -19.2729  -57.2188 H         1 UNK         0.0600 
    235 H235       -4.9946  -20.1319  -53.2251 H         1 UNK         0.3000 
    236 H236       -5.2535  -22.9126  -54.1225 H         1 UNK         0.0600 
    237 H237       -5.2235  -21.6411  -51.3350 H         1 UNK         0.0600 
    238 H238       -6.6590  -22.0396  -52.2777 H         1 UNK         0.0600 
    239 H239       -5.6128  -23.3193  -51.6910 H         1 UNK         0.0600 
    240 H240       -2.8610  -22.0218  -55.0681 H         1 UNK         0.3000 
    241 H241       -0.7435  -22.9125  -53.2002 H         1 UNK         0.0600 
    242 H242       -1.5839  -25.8892  -55.6927 H         1 UNK         0.3800 
    243 H243       -2.7222  -24.6178  -55.3337 H         1 UNK         0.3800 
    244 H244       -0.3041  -21.7876  -55.9877 H         1 UNK         0.0800 
    245 H245        0.8798  -21.9857  -54.7252 H         1 UNK         0.0800 
    246 H246       -1.1701  -20.8495  -52.2068 H         1 UNK         0.0800 
    247 H247       -0.8429  -19.1431  -52.2103 H         1 UNK         0.0800 
@<TRIPOS>BOND
     1    1    2 1    
     2    1  127 1    
     3    1  128 1    
     4    1  129 1    
     5    2    3 2    
     6    2    4 am   BACKBONE|DICT|INTERRES
     7    4    5 1    
     8    4  130 1    
     9    5    6 1    
    10    5   65 1    
    11    5  131 1    
    12    6    7 1    
    13    6  132 1    
    14    6  133 1    
    15    7    8 1    
    16    8    9 1    
    17    8  134 1    
    18    8  135 1    
    19    9   10 ar   
    20    9   14 ar   
    21   10   11 ar   
    22   10  136 1    
    23   11   12 ar   
    24   11  126 1    
    25   12   13 ar   
    26   12  137 1    
    27   13   14 ar   
    28   13   15 1    
    29   14  138 1    
    30   15   16 1    
    31   15  139 1    
    32   15  140 1    
    33   16   17 1    
    34   17   18 1    
    35   17  141 1    
    36   17  142 1    
    37   18   19 1    
    38   18   67 1    
    39   18  143 1    
    40   19   20 am   BACKBONE|DICT|INTERRES
    41   19  144 1    
    42   20   21 2    
    43   20   22 1    
    44   22   23 1    
    45   22   24 1    
    46   22  145 1    
    47   23  146 1    
    48   23  147 1    
    49   23  148 1    
    50   24   25 am   BACKBONE|DICT|INTERRES
    51   24  149 1    
    52   25   26 2    
    53   25   27 1    
    54   27   28 1    
    55   27   29 1    
    56   27  150 1    
    57   28  151 1    
    58   28  152 1    
    59   28  153 1    
    60   29   30 am   BACKBONE|DICT|INTERRES
    61   29  154 1    
    62   30   31 2    
    63   30   32 1    
    64   32   33 1    
    65   32   34 1    
    66   32  155 1    
    67   33  156 1    
    68   33  157 1    
    69   33  158 1    
    70   34   35 am   BACKBONE|DICT|INTERRES
    71   34  159 1    
    72   35   36 2    
    73   35   37 1    
    74   37   38 1    
    75   37   39 1    
    76   37  160 1    
    77   38  161 1    
    78   38  162 1    
    79   38  163 1    
    80   39   40 am   BACKBONE|DICT|INTERRES
    81   39  164 1    
    82   40   41 2    
    83   40   42 1    
    84   42   43 1    
    85   42   44 1    
    86   42  165 1    
    87   43  166 1    
    88   43  167 1    
    89   43  168 1    
    90   44   45 am   BACKBONE|DICT|INTERRES
    91   44  169 1    
    92   45   46 2    
    93   45   47 1    
    94   47   48 1    
    95   47   49 1    
    96   47  170 1    
    97   48  171 1    
    98   48  172 1    
    99   48  173 1    
   100   49   50 am   BACKBONE|DICT|INTERRES
   101   49  174 1    
   102   50   51 2    
   103   50   52 1    
   104   52   53 1    
   105   52   54 1    
   106   52  175 1    
   107   53  176 1    
   108   53  177 1    
   109   53  178 1    
   110   54   55 am   BACKBONE|DICT|INTERRES
   111   54  179 1    
   112   55   56 2    
   113   55   57 1    
   114   57   58 1    
   115   57   59 1    
   116   57  180 1    
   117   58  181 1    
   118   58  182 1    
   119   58  183 1    
   120   59   60 am   BACKBONE|DICT|INTERRES
   121   59  184 1    
   122   60   61 2    
   123   60   62 1    
   124   62   63 1    
   125   62   64 1    
   126   62  185 1    
   127   63  186 1    
   128   63  187 1    
   129   63  188 1    
   130   64   65 am   BACKBONE|DICT|INTERRES
   131   64  189 1    
   132   65   66 2    
   133   67   68 2    
   134   67   69 am   BACKBONE|DICT|INTERRES
   135   69   70 1    
   136   69  190 1    
   137   70   71 1    
   138   70   72 1    
   139   70  191 1    
   140   71  192 1    
   141   71  193 1    
   142   71  194 1    
   143   72   73 2    
   144   72   74 am   BACKBONE|DICT|INTERRES
   145   74   75 1    
   146   74  195 1    
   147   75   76 1    
   148   75   77 1    
   149   75  196 1    
   150   76  197 1    
   151   76  198 1    
   152   76  199 1    
   153   77   78 2    
   154   77   79 am   BACKBONE|DICT|INTERRES
   155   79   80 1    
   156   79  200 1    
   157   80   81 1    
   158   80   82 1    
   159   80  201 1    
   160   81  202 1    
   161   81  203 1    
   162   81  204 1    
   163   82   83 2    
   164   82   84 am   BACKBONE|DICT|INTERRES
   165   84   85 1    
   166   84  205 1    
   167   85   86 1    
   168   85   87 1    
   169   85  206 1    
   170   86  207 1    
   171   86  208 1    
   172   86  209 1    
   173   87   88 2    
   174   87   89 am   BACKBONE|DICT|INTERRES
   175   89   90 1    
   176   89  210 1    
   177   90   91 1    
   178   90   92 1    
   179   90  211 1    
   180   91  212 1    
   181   91  213 1    
   182   91  214 1    
   183   92   93 2    
   184   92   94 am   BACKBONE|DICT|INTERRES
   185   94   95 1    
   186   94  215 1    
   187   95   96 1    
   188   95   97 1    
   189   95  216 1    
   190   96  217 1    
   191   96  218 1    
   192   96  219 1    
   193   97   98 2    
   194   97   99 am   BACKBONE|DICT|INTERRES
   195   99  100 1    
   196   99  220 1    
   197  100  101 1    
   198  100  102 1    
   199  100  221 1    
   200  101  222 1    
   201  101  223 1    
   202  101  224 1    
   203  102  103 2    
   204  102  104 am   BACKBONE|DICT|INTERRES
   205  104  105 1    
   206  104  225 1    
   207  105  106 1    
   208  105  107 1    
   209  105  226 1    
   210  106  227 1    
   211  106  228 1    
   212  106  229 1    
   213  107  108 2    
   214  107  109 am   BACKBONE|DICT|INTERRES
   215  109  110 1    
   216  109  230 1    
   217  110  111 1    
   218  110  112 1    
   219  110  231 1    
   220  111  232 1    
   221  111  233 1    
   222  111  234 1    
   223  112  113 2    
   224  112  114 am   BACKBONE|DICT|INTERRES
   225  114  115 1    
   226  114  235 1    
   227  115  116 1    
   228  115  117 1    
   229  115  236 1    
   230  116  237 1    
   231  116  238 1    
   232  116  239 1    
   233  117  118 2    
   234  117  119 am   BACKBONE|DICT|INTERRES
   235  119  120 1    
   236  119  240 1    
   237  120  121 1    
   238  120  124 1    
   239  120  241 1    
   240  121  122 am   BACKBONE|DICT|INTERRES
   241  121  123 2    
   242  122  242 1    
   243  122  243 1    
   244  124  125 1    
   245  124  244 1    
   246  124  245 1    
   247  125  126 1    
   248  126  246 1    
   249  126  247 1    
@<TRIPOS>SUBSTRUCTURE
     1 UNK         1 GROUP             0       ****    0 ROOT    
