@<TRIPOS>MOLECULE
3R540
247   249    1
SMALL
USER_CHARGES


@<TRIPOS>ATOM
      1 CA         -3.3284  -14.7568  -53.1616 C.3       0 UNK        -0.1800 
      2 C          -2.5499  -13.6664  -52.4420 C.2       0 UNK         0.5000 
      3 O          -1.7440  -12.9754  -53.0654 O.2       0 UNK        -0.5000 
      4 N          -2.7871  -13.5078  -51.1380 N.am      1 UNK        -0.5000 
      5 CA         -2.1309  -12.5358  -50.2656 C.3       1 UNK         0.1400 
      6 C6         -0.6383  -12.8657  -49.9870 C.3       23 UNK        -0.0398 
      7 S7         -0.3461  -14.5565  -49.3580 S.3       23 UNK        -0.2404 
      8 C8          0.7380  -15.2227  -50.6577 C.3       23 UNK        -0.0205 
      9 C9          1.1368  -16.6656  -50.3859 C.ar      23 UNK        -0.0193 
     10 C10         0.8274  -17.6707  -51.3067 C.ar      23 UNK        -0.1150 
     11 C11         1.2224  -18.9913  -51.0729 C.ar      23 UNK        -0.0193 
     12 C12         1.9278  -19.3027  -49.9080 C.ar      23 UNK        -0.1150 
     13 C13         2.2283  -18.3109  -48.9667 C.ar      23 UNK        -0.0193 
     14 C14         1.8385  -16.9937  -49.2222 C.ar      23 UNK        -0.1150 
     15 C15         2.9972  -18.6159  -47.6835 C.3       23 UNK        -0.0205 
     16 S16         2.7517  -20.2942  -47.0149 S.3       23 UNK        -0.2404 
     17 C17         0.9976  -20.2652  -46.4982 C.3       23 UNK        -0.0398 
     18 CA          0.2483  -21.5608  -46.9074 C.3       11 UNK         0.1400 
     19 N           0.9216  -22.7527  -46.3984 N.am      11 UNK        -0.5000 
     20 C           1.2129  -23.8459  -47.1108 C.2       10 UNK         0.5000 
     21 O           0.9146  -23.9898  -48.2955 O.2       10 UNK        -0.5000 
     22 CA          1.9801  -24.9731  -46.3874 C.3       10 UNK         0.1400 
     23 CB          3.4422  -25.0103  -46.8583 C.3       10 UNK        -0.1800 
     24 N           1.9622  -24.8596  -44.9268 N.am      10 UNK        -0.5000 
     25 C           0.8738  -25.0193  -44.1637 C.2       9 UNK         0.5000 
     26 O          -0.2368  -25.3009  -44.6110 O.2       9 UNK        -0.5000 
     27 CA          1.0409  -24.7484  -42.6573 C.3       9 UNK         0.1400 
     28 CB          1.4911  -26.0214  -41.9268 C.3       9 UNK        -0.1800 
     29 N           1.9678  -23.6525  -42.3507 N.am      9 UNK        -0.5000 
     30 C           1.8031  -22.3822  -42.7436 C.2       8 UNK         0.5000 
     31 O           0.8888  -22.0114  -43.4813 O.2       8 UNK        -0.5000 
     32 CA          2.8285  -21.3527  -42.2432 C.3       8 UNK         0.1400 
     33 CB          3.6171  -20.7445  -43.4112 C.3       8 UNK        -0.1800 
     34 N           2.1628  -20.2806  -41.5077 N.am      8 UNK        -0.5000 
     35 C           1.6281  -20.4125  -40.2900 C.2       7 UNK         0.5000 
     36 O           1.6728  -21.4576  -39.6393 O.2       7 UNK        -0.5000 
     37 CA          0.9364  -19.1804  -39.6788 C.3       7 UNK         0.1400 
     38 CB          1.9688  -18.1927  -39.1014 C.3       7 UNK        -0.1800 
     39 N          -0.0300  -18.4969  -40.5497 N.am      7 UNK        -0.5000 
     40 C           0.1799  -17.7761  -41.6608 C.2       6 UNK         0.5000 
     41 O           1.2745  -17.6582  -42.2169 O.2       6 UNK        -0.5000 
     42 CA         -1.0591  -17.0216  -42.1822 C.3       6 UNK         0.1400 
     43 CB         -1.4384  -15.8808  -41.2221 C.3       6 UNK        -0.1800 
     44 N          -0.8797  -16.4505  -43.5146 N.am      6 UNK        -0.5000 
     45 C          -0.9664  -17.1344  -44.6630 C.2       5 UNK         0.5000 
     46 O          -1.1229  -18.3522  -44.7250 O.2       5 UNK        -0.5000 
     47 CA         -0.9431  -16.3199  -45.9696 C.3       5 UNK         0.1400 
     48 CB         -2.3860  -16.1179  -46.4628 C.3       5 UNK        -0.1800 
     49 N          -0.3086  -15.0099  -45.8269 N.am      5 UNK        -0.5000 
     50 C           1.0109  -14.8156  -45.6865 C.2       4 UNK         0.5000 
     51 O           1.8368  -15.7273  -45.7044 O.2       4 UNK        -0.5000 
     52 CA          1.5042  -13.3672  -45.4816 C.3       4 UNK         0.1400 
     53 CB          2.1364  -12.8245  -46.7725 C.3       4 UNK        -0.1800 
     54 N           0.4653  -12.4363  -45.0343 N.am      4 UNK        -0.5000 
     55 C          -0.1764  -12.5026  -43.8596 C.2       3 UNK         0.5000 
     56 O           0.0722  -13.3432  -42.9956 O.2       3 UNK        -0.5000 
     57 CA         -1.3162  -11.4905  -43.6250 C.3       3 UNK         0.1400 
     58 CB         -0.8105  -10.2978  -42.7996 C.3       3 UNK        -0.1800 
     59 N          -1.9589  -10.9873  -44.8464 N.am      3 UNK        -0.5000 
     60 C          -2.5791  -11.7365  -45.7703 C.2       2 UNK         0.5000 
     61 O          -2.5954  -12.9661  -45.7321 O.2       2 UNK        -0.5000 
     62 CA         -3.2902  -11.0037  -46.9278 C.3       2 UNK         0.1400 
     63 CB         -3.3252   -9.4694  -46.7722 C.3       2 UNK        -0.1800 
     64 N          -2.6556  -11.3291  -48.2042 N.am      2 UNK        -0.5000 
     65 C          -2.9596  -12.3816  -48.9755 C.2       1 UNK         0.5000 
     66 O          -3.8588  -13.1889  -48.7217 O.2       1 UNK        -0.5000 
     67 C          -1.2056  -21.5555  -46.3992 C.2       11 UNK         0.5000 
     68 O          -2.1330  -21.4660  -47.2075 O.2       11 UNK        -0.5000 
     69 N          -1.3644  -21.6685  -45.0723 N.am      12 UNK        -0.5000 
     70 CA         -2.6226  -21.5226  -44.3490 C.3       12 UNK         0.1400 
     71 CB         -2.3292  -21.0309  -42.9187 C.3       12 UNK        -0.1800 
     72 C          -3.4334  -22.8253  -44.3099 C.2       12 UNK         0.5000 
     73 O          -4.5558  -22.8542  -44.8121 O.2       12 UNK        -0.5000 
     74 N          -2.8679  -23.8731  -43.6926 N.am      13 UNK        -0.5000 
     75 CA         -3.5563  -25.1397  -43.4166 C.3       13 UNK         0.1400 
     76 CB         -2.7694  -25.9481  -42.3729 C.3       13 UNK        -0.1800 
     77 C          -3.8103  -25.9691  -44.6862 C.2       13 UNK         0.5000 
     78 O          -4.8791  -26.5650  -44.8237 O.2       13 UNK        -0.5000 
     79 N          -2.8424  -25.9482  -45.6113 N.am      14 UNK        -0.5000 
     80 CA         -2.9595  -26.5113  -46.9578 C.3       14 UNK         0.1400 
     81 CB         -1.5534  -26.6381  -47.5612 C.3       14 UNK        -0.1800 
     82 C          -3.8676  -25.6742  -47.8840 C.2       14 UNK         0.5000 
     83 O          -4.2744  -26.1700  -48.9347 O.2       14 UNK        -0.5000 
     84 N          -4.1528  -24.4250  -47.4832 N.am      15 UNK        -0.5000 
     85 CA         -5.0089  -23.4297  -48.1366 C.3       15 UNK         0.1400 
     86 CB         -6.4695  -23.9203  -48.2044 C.3       15 UNK        -0.1800 
     87 C          -4.4904  -22.9391  -49.5021 C.2       15 UNK         0.5000 
     88 O          -5.2496  -22.3240  -50.2502 O.2       15 UNK        -0.5000 
     89 N          -3.2051  -23.1735  -49.7993 N.am      16 UNK        -0.5000 
     90 CA         -2.5526  -22.7887  -51.0511 C.3       16 UNK         0.1400 
     91 CB         -1.1355  -23.3764  -51.0829 C.3       16 UNK        -0.1800 
     92 C          -2.5078  -21.2666  -51.2660 C.2       16 UNK         0.5000 
     93 O          -2.6262  -20.8117  -52.4046 O.2       16 UNK        -0.5000 
     94 N          -2.3618  -20.5065  -50.1721 N.am      17 UNK        -0.5000 
     95 CA         -2.3766  -19.0454  -50.1946 C.3       17 UNK         0.1400 
     96 CB         -1.7303  -18.5134  -48.9128 C.3       17 UNK        -0.1800 
     97 C          -3.7937  -18.4775  -50.3720 C.2       17 UNK         0.5000 
     98 O          -3.9588  -17.4731  -51.0622 O.2       17 UNK        -0.5000 
     99 N          -4.7923  -19.1496  -49.7819 N.am      18 UNK        -0.5000 
    100 CA        -6.2102  -18.8073  -49.9099 C.3       18 UNK         0.1400 
    101 CB        -7.0140  -19.5449  -48.8280 C.3       18 UNK        -0.1800 
    102 C         -6.7552  -19.1224  -51.3152 C.2       18 UNK         0.5000 
    103 O         -7.5235  -18.3329  -51.8650 O.2       18 UNK        -0.5000 
    104 N         -6.3156  -20.2542  -51.8818 N.am      19 UNK        -0.5000 
    105 CA        -6.6058  -20.6838  -53.2503 C.3       19 UNK         0.1400 
    106 CB        -6.2530  -22.1742  -53.3810 C.3       19 UNK        -0.1800 
    107 C         -5.8538  -19.8685  -54.3215 C.2       19 UNK         0.5000 
    108 O         -6.2399  -19.9209  -55.4897 O.2       19 UNK        -0.5000 
    109 N         -4.7943  -19.1546  -53.9093 N.am      20 UNK        -0.5000 
    110 CA        -3.8569  -18.3863  -54.7340 C.3       20 UNK         0.1400 
    111 CB        -4.5642  -17.1898  -55.4038 C.3       20 UNK        -0.1800 
    112 C         -3.1005  -19.2871  -55.7325 C.2       20 UNK         0.5000 
    113 O         -2.9747  -18.9503  -56.9112 O.2       20 UNK        -0.5000 
    114 N         -2.6330  -20.4403  -55.2357 N.am      21 UNK        -0.5000 
    115 CA        -1.9414  -21.4671  -56.0158 C.3       21 UNK         0.1400 
    116 CB        -1.9549  -22.7814  -55.2201 C.3       21 UNK        -0.1800 
    117 C         -0.4986  -21.0760  -56.3877 C.2       21 UNK         0.5000 
    118 O          0.0168  -21.5507  -57.4008 O.2       21 UNK        -0.5000 
    119 N          0.1256  -20.2314  -55.5595 N.am      22 UNK        -0.5000 
    120 CA         1.4798  -19.6990  -55.7597 C.3       22 UNK         0.1400 
    121 C          1.5019  -18.5935  -56.8491 C.2       22 UNK         0.5000 
    122 N          2.4635  -18.6272  -57.7614 N.am      22 UNK        -0.7600 
    123 O          0.6800  -17.6800  -56.8464 O.2       22 UNK        -0.5000 
    124 C124        2.0845  -19.1694  -54.4356 C.3       23 UNK        -0.0398 
    125 S125        2.2469  -20.4819  -53.1768 S.3       23 UNK        -0.2404 
    126 C126        0.8680  -20.0954  -52.0556 C.3       23 UNK        -0.0205 
    127 H127       -4.1243  -15.1643  -52.5378 H         1 UNK         0.0600 
    128 H128       -2.6594  -15.5718  -53.4365 H         1 UNK         0.0600 
    129 H129       -3.7804  -14.3609  -54.0710 H         1 UNK         0.0600 
    130 H130       -3.4711  -14.0810  -50.6584 H         1 UNK         0.3000 
    131 H131       -2.1748  -11.5679  -50.7696 H         1 UNK         0.0600 
    132 H132       -0.0657  -12.7223  -50.9038 H         1 UNK         0.0800 
    133 H133       -0.2105  -12.1566  -49.2779 H         1 UNK         0.0800 
    134 H134        1.6403  -14.6132  -50.7229 H         1 UNK         0.0800 
    135 H135        0.2306  -15.1372  -51.6200 H         1 UNK         0.0800 
    136 H136        0.2776  -17.4249  -52.2039 H         1 UNK         0.1150 
    137 H137        2.2360  -20.3244  -49.7389 H         1 UNK         0.1150 
    138 H138        2.0776  -16.2160  -48.5098 H         1 UNK         0.1150 
    139 H139        2.7316  -17.8999  -46.9052 H         1 UNK         0.0800 
    140 H140        4.0602  -18.4758  -47.8818 H         1 UNK         0.0800 
    141 H141        0.5062  -19.3910  -46.9248 H         1 UNK         0.0800 
    142 H142        0.9719  -20.1201  -45.4173 H         1 UNK         0.0800 
    143 H143        0.2129  -21.5876  -47.9988 H         1 UNK         0.0600 
    144 H144        1.1775  -22.7277  -45.4199 H         1 UNK         0.3000 
    145 H145        1.5056  -25.9176  -46.6616 H         1 UNK         0.0600 
    146 H146        3.5017  -25.1332  -47.9406 H         1 UNK         0.0600 
    147 H147        3.9817  -25.8440  -46.4084 H         1 UNK         0.0600 
    148 H148        3.9691  -24.0898  -46.6036 H         1 UNK         0.0600 
    149 H149        2.8321  -24.6121  -44.4787 H         1 UNK         0.3000 
    150 H150        0.0615  -24.4646  -42.2674 H         1 UNK         0.0600 
    151 H151        2.4858  -26.3378  -42.2432 H         1 UNK         0.0600 
    152 H152        0.8057  -26.8474  -42.1226 H         1 UNK         0.0600 
    153 H153        1.5137  -25.8697  -40.8475 H         1 UNK         0.0600 
    154 H154        2.7396  -23.8772  -41.7392 H         1 UNK         0.3000 
    155 H155        3.5367  -21.8492  -41.5765 H         1 UNK         0.0600 
    156 H156        4.4317  -20.1172  -43.0494 H         1 UNK         0.0600 
    157 H157        2.9802  -20.1256  -44.0428 H         1 UNK         0.0600 
    158 H158        4.0562  -21.5196  -44.0408 H         1 UNK         0.0600 
    159 H159        2.0366  -19.3917  -41.9841 H         1 UNK         0.3000 
    160 H160        0.3476  -19.5498  -38.8376 H         1 UNK         0.0600 
    161 H161        2.6119  -17.7736  -39.8757 H         1 UNK         0.0600 
    162 H162        2.6155  -18.6869  -38.3755 H         1 UNK         0.0600 
    163 H163        1.4785  -17.3650  -38.5888 H         1 UNK         0.0600 
    164 H164       -0.9808  -18.5425  -40.2107 H         1 UNK         0.3000 
    165 H165       -1.8929  -17.7254  -42.2228 H         1 UNK         0.0600 
    166 H166       -2.3032  -15.3263  -41.5874 H         1 UNK         0.0600 
    167 H167       -1.6958  -16.2609  -40.2329 H         1 UNK         0.0600 
    168 H168       -0.6173  -15.1741  -41.0959 H         1 UNK         0.0600 
    169 H169       -0.6818  -15.4593  -43.5556 H         1 UNK         0.3000 
    170 H170       -0.3926  -16.8933  -46.7184 H         1 UNK         0.0600 
    171 H171       -2.4165  -15.5716  -47.4053 H         1 UNK         0.0600 
    172 H172       -2.9820  -15.5634  -45.7377 H         1 UNK         0.0600 
    173 H173       -2.8883  -17.0721  -46.6191 H         1 UNK         0.0600 
    174 H174       -0.9335  -14.2110  -45.8078 H         1 UNK         0.3000 
    175 H175        2.2773  -13.3981  -44.7111 H         1 UNK         0.0600 
    176 H176        2.9284  -13.4847  -47.1289 H         1 UNK         0.0600 
    177 H177        1.4015  -12.7359  -47.5717 H         1 UNK         0.0600 
    178 H178        2.5809  -11.8421  -46.6128 H         1 UNK         0.0600 
    179 H179        0.1877  -11.7182  -45.6863 H         1 UNK         0.3000 
    180 H180       -2.0836  -12.0053  -43.0433 H         1 UNK         0.0600 
    181 H181       -0.0640   -9.7193  -43.3453 H         1 UNK         0.0600 
    182 H182       -0.3504  -10.6327  -41.8688 H         1 UNK         0.0600 
    183 H183       -1.6273   -9.6271  -42.5323 H         1 UNK         0.0600 
    184 H184       -1.9809   -9.9837  -44.9552 H         1 UNK         0.3000 
    185 H185       -4.3237  -11.3563  -46.9353 H         1 UNK         0.0600 
    186 H186       -3.8146   -9.1761  -45.8423 H         1 UNK         0.0600 
    187 H187       -2.3266   -9.0306  -46.7828 H         1 UNK         0.0600 
    188 H188       -3.8916   -9.0120  -47.5838 H         1 UNK         0.0600 
    189 H189       -1.9053  -10.7167  -48.4892 H         1 UNK         0.3000 
    190 H190       -0.5332  -21.7556  -44.4899 H         1 UNK         0.3000 
    191 H191       -3.2258  -20.7612  -44.8486 H         1 UNK         0.0600 
    192 H192       -1.8074  -20.0762  -42.9282 H         1 UNK         0.0600 
    193 H193       -3.2528  -20.8898  -42.3562 H         1 UNK         0.0600 
    194 H194       -1.7071  -21.7320  -42.3613 H         1 UNK         0.0600 
    195 H195       -1.9189  -23.7892  -43.3623 H         1 UNK         0.3000 
    196 H196       -4.5297  -24.8995  -42.9831 H         1 UNK         0.0600 
    197 H197       -3.3183  -26.8461  -42.0871 H         1 UNK         0.0600 
    198 H198       -2.6029  -25.3679  -41.4652 H         1 UNK         0.0600 
    199 H199       -1.7994  -26.2700  -42.7499 H         1 UNK         0.0600 
    200 H200       -1.9572  -25.5086  -45.3697 H         1 UNK         0.3000 
    201 H201       -3.3932  -27.5103  -46.8805 H         1 UNK         0.0600 
    202 H202       -1.5877  -27.1163  -48.5409 H         1 UNK         0.0600 
    203 H203       -0.9018  -27.2392  -46.9267 H         1 UNK         0.0600 
    204 H204       -1.0896  -25.6611  -47.6895 H         1 UNK         0.0600 
    205 H205       -3.7802  -24.1317  -46.5903 H         1 UNK         0.3000 
    206 H206       -4.9905  -22.5521  -47.4893 H         1 UNK         0.0600 
    207 H207       -6.8220  -24.2398  -47.2236 H         1 UNK         0.0600 
    208 H208       -7.1364  -23.1271  -48.5437 H         1 UNK         0.0600 
    209 H209       -6.5844  -24.7578  -48.8930 H         1 UNK         0.0600 
    210 H210       -2.6400  -23.6555  -49.1165 H         1 UNK         0.3000 
    211 H211       -3.1241  -23.2231  -51.8739 H         1 UNK         0.0600 
    212 H212       -0.5152  -22.9647  -50.2865 H         1 UNK         0.0600 
    213 H213       -0.6397  -23.1580  -52.0290 H         1 UNK         0.0600 
    214 H214       -1.1525  -24.4604  -50.9680 H         1 UNK         0.0600 
    215 H215       -2.2892  -20.9534  -49.2645 H         1 UNK         0.3000 
    216 H216       -1.7808  -18.7035  -51.0422 H         1 UNK         0.0600 
    217 H217       -1.6857  -17.4243  -48.9277 H         1 UNK         0.0600 
    218 H218       -2.2813  -18.8209  -48.0241 H         1 UNK         0.0600 
    219 H219       -0.7094  -18.8752  -48.8145 H         1 UNK         0.0600 
    220 H220       -4.5714  -19.9883  -49.2669 H         1 UNK         0.3000 
    221 H221       -6.3197  -17.7337  -49.7415 H         1 UNK         0.0600 
    222 H222       -6.9442  -20.6271  -48.9378 H         1 UNK         0.0600 
    223 H223       -6.6622  -19.2855  -47.8294 H         1 UNK         0.0600 
    224 H224       -8.0705  -19.2787  -48.8797 H         1 UNK         0.0600 
    225 H225       -5.7552  -20.8927  -51.3215 H         1 UNK         0.3000 
    226 H226       -7.6758  -20.5641  -53.4314 H         1 UNK         0.0600 
    227 H227       -6.4912  -22.5489  -54.3772 H         1 UNK         0.0600 
    228 H228       -5.1903  -22.3500  -53.2089 H         1 UNK         0.0600 
    229 H229       -6.8120  -22.7766  -52.6646 H         1 UNK         0.0600 
    230 H230       -4.5601  -19.2089  -52.9281 H         1 UNK         0.3000 
    231 H231       -3.1070  -17.9878  -54.0493 H         1 UNK         0.0600 
    232 H232       -5.2713  -17.5100  -56.1693 H         1 UNK         0.0600 
    233 H233       -3.8406  -16.5301  -55.8838 H         1 UNK         0.0600 
    234 H234       -5.1118  -16.5965  -54.6718 H         1 UNK         0.0600 
    235 H235       -2.7582  -20.6284  -54.2429 H         1 UNK         0.3000 
    236 H236       -2.4939  -21.6243  -56.9446 H         1 UNK         0.0600 
    237 H237       -1.4092  -22.6853  -54.2813 H         1 UNK         0.0600 
    238 H238       -2.9735  -23.0914  -54.9856 H         1 UNK         0.0600 
    239 H239       -1.4909  -23.5880  -55.7890 H         1 UNK         0.0600 
    240 H240       -0.3908  -19.8684  -54.7745 H         1 UNK         0.3000 
    241 H241        2.1102  -20.5225  -56.1022 H         1 UNK         0.0600 
    242 H242        3.1518  -19.3644  -57.7791 H         1 UNK         0.3800 
    243 H243        2.4967  -17.9050  -58.4645 H         1 UNK         0.3800 
    244 H244        1.4937  -18.3408  -54.0444 H         1 UNK         0.0800 
    245 H245        3.0837  -18.7674  -54.6124 H         1 UNK         0.0800 
    246 H246       -0.0214  -19.8331  -52.6290 H         1 UNK         0.0800 
    247 H247        0.6133  -20.9976  -51.4993 H         1 UNK         0.0800 
@<TRIPOS>BOND
     1    1    2 1    
     2    1  127 1    
     3    1  128 1    
     4    1  129 1    
     5    2    3 2    
     6    2    4 am   BACKBONE|DICT|INTERRES
     7    4    5 1    
     8    4  130 1    
     9    5    6 1    
    10    5   65 1    
    11    5  131 1    
    12    6    7 1    
    13    6  132 1    
    14    6  133 1    
    15    7    8 1    
    16    8    9 1    
    17    8  134 1    
    18    8  135 1    
    19    9   10 ar   
    20    9   14 ar   
    21   10   11 ar   
    22   10  136 1    
    23   11   12 ar   
    24   11  126 1    
    25   12   13 ar   
    26   12  137 1    
    27   13   14 ar   
    28   13   15 1    
    29   14  138 1    
    30   15   16 1    
    31   15  139 1    
    32   15  140 1    
    33   16   17 1    
    34   17   18 1    
    35   17  141 1    
    36   17  142 1    
    37   18   19 1    
    38   18   67 1    
    39   18  143 1    
    40   19   20 am   BACKBONE|DICT|INTERRES
    41   19  144 1    
    42   20   21 2    
    43   20   22 1    
    44   22   23 1    
    45   22   24 1    
    46   22  145 1    
    47   23  146 1    
    48   23  147 1    
    49   23  148 1    
    50   24   25 am   BACKBONE|DICT|INTERRES
    51   24  149 1    
    52   25   26 2    
    53   25   27 1    
    54   27   28 1    
    55   27   29 1    
    56   27  150 1    
    57   28  151 1    
    58   28  152 1    
    59   28  153 1    
    60   29   30 am   BACKBONE|DICT|INTERRES
    61   29  154 1    
    62   30   31 2    
    63   30   32 1    
    64   32   33 1    
    65   32   34 1    
    66   32  155 1    
    67   33  156 1    
    68   33  157 1    
    69   33  158 1    
    70   34   35 am   BACKBONE|DICT|INTERRES
    71   34  159 1    
    72   35   36 2    
    73   35   37 1    
    74   37   38 1    
    75   37   39 1    
    76   37  160 1    
    77   38  161 1    
    78   38  162 1    
    79   38  163 1    
    80   39   40 am   BACKBONE|DICT|INTERRES
    81   39  164 1    
    82   40   41 2    
    83   40   42 1    
    84   42   43 1    
    85   42   44 1    
    86   42  165 1    
    87   43  166 1    
    88   43  167 1    
    89   43  168 1    
    90   44   45 am   BACKBONE|DICT|INTERRES
    91   44  169 1    
    92   45   46 2    
    93   45   47 1    
    94   47   48 1    
    95   47   49 1    
    96   47  170 1    
    97   48  171 1    
    98   48  172 1    
    99   48  173 1    
   100   49   50 am   BACKBONE|DICT|INTERRES
   101   49  174 1    
   102   50   51 2    
   103   50   52 1    
   104   52   53 1    
   105   52   54 1    
   106   52  175 1    
   107   53  176 1    
   108   53  177 1    
   109   53  178 1    
   110   54   55 am   BACKBONE|DICT|INTERRES
   111   54  179 1    
   112   55   56 2    
   113   55   57 1    
   114   57   58 1    
   115   57   59 1    
   116   57  180 1    
   117   58  181 1    
   118   58  182 1    
   119   58  183 1    
   120   59   60 am   BACKBONE|DICT|INTERRES
   121   59  184 1    
   122   60   61 2    
   123   60   62 1    
   124   62   63 1    
   125   62   64 1    
   126   62  185 1    
   127   63  186 1    
   128   63  187 1    
   129   63  188 1    
   130   64   65 am   BACKBONE|DICT|INTERRES
   131   64  189 1    
   132   65   66 2    
   133   67   68 2    
   134   67   69 am   BACKBONE|DICT|INTERRES
   135   69   70 1    
   136   69  190 1    
   137   70   71 1    
   138   70   72 1    
   139   70  191 1    
   140   71  192 1    
   141   71  193 1    
   142   71  194 1    
   143   72   73 2    
   144   72   74 am   BACKBONE|DICT|INTERRES
   145   74   75 1    
   146   74  195 1    
   147   75   76 1    
   148   75   77 1    
   149   75  196 1    
   150   76  197 1    
   151   76  198 1    
   152   76  199 1    
   153   77   78 2    
   154   77   79 am   BACKBONE|DICT|INTERRES
   155   79   80 1    
   156   79  200 1    
   157   80   81 1    
   158   80   82 1    
   159   80  201 1    
   160   81  202 1    
   161   81  203 1    
   162   81  204 1    
   163   82   83 2    
   164   82   84 am   BACKBONE|DICT|INTERRES
   165   84   85 1    
   166   84  205 1    
   167   85   86 1    
   168   85   87 1    
   169   85  206 1    
   170   86  207 1    
   171   86  208 1    
   172   86  209 1    
   173   87   88 2    
   174   87   89 am   BACKBONE|DICT|INTERRES
   175   89   90 1    
   176   89  210 1    
   177   90   91 1    
   178   90   92 1    
   179   90  211 1    
   180   91  212 1    
   181   91  213 1    
   182   91  214 1    
   183   92   93 2    
   184   92   94 am   BACKBONE|DICT|INTERRES
   185   94   95 1    
   186   94  215 1    
   187   95   96 1    
   188   95   97 1    
   189   95  216 1    
   190   96  217 1    
   191   96  218 1    
   192   96  219 1    
   193   97   98 2    
   194   97   99 am   BACKBONE|DICT|INTERRES
   195   99  100 1    
   196   99  220 1    
   197  100  101 1    
   198  100  102 1    
   199  100  221 1    
   200  101  222 1    
   201  101  223 1    
   202  101  224 1    
   203  102  103 2    
   204  102  104 am   BACKBONE|DICT|INTERRES
   205  104  105 1    
   206  104  225 1    
   207  105  106 1    
   208  105  107 1    
   209  105  226 1    
   210  106  227 1    
   211  106  228 1    
   212  106  229 1    
   213  107  108 2    
   214  107  109 am   BACKBONE|DICT|INTERRES
   215  109  110 1    
   216  109  230 1    
   217  110  111 1    
   218  110  112 1    
   219  110  231 1    
   220  111  232 1    
   221  111  233 1    
   222  111  234 1    
   223  112  113 2    
   224  112  114 am   BACKBONE|DICT|INTERRES
   225  114  115 1    
   226  114  235 1    
   227  115  116 1    
   228  115  117 1    
   229  115  236 1    
   230  116  237 1    
   231  116  238 1    
   232  116  239 1    
   233  117  118 2    
   234  117  119 am   BACKBONE|DICT|INTERRES
   235  119  120 1    
   236  119  240 1    
   237  120  121 1    
   238  120  124 1    
   239  120  241 1    
   240  121  122 am   BACKBONE|DICT|INTERRES
   241  121  123 2    
   242  122  242 1    
   243  122  243 1    
   244  124  125 1    
   245  124  244 1    
   246  124  245 1    
   247  125  126 1    
   248  126  246 1    
   249  126  247 1    
@<TRIPOS>SUBSTRUCTURE
     1 UNK         1 GROUP             0       ****    0 ROOT    
