@<TRIPOS>MOLECULE
3R540
247   249    1
SMALL
USER_CHARGES


@<TRIPOS>ATOM
      1 CA         -4.0654  -15.5727  -45.0045 C.3       0 UNK        -0.1800 
      2 C          -3.0810  -15.2620  -46.1217 C.2       0 UNK         0.5000 
      3 O          -1.8727  -15.2912  -45.8959 O.2       0 UNK        -0.5000 
      4 N          -3.5904  -14.9372  -47.3188 N.am      1 UNK        -0.5000 
      5 CA         -2.8284  -14.6981  -48.5598 C.3       1 UNK         0.1400 
      6 C6         -2.1380  -15.9778  -49.1070 C.3       23 UNK        -0.0398 
      7 S7         -3.2892  -17.3847  -49.2985 S.3       23 UNK        -0.2404 
      8 C8         -3.4381  -17.5146  -51.1072 C.3       23 UNK        -0.0205 
      9 C9         -2.1392  -17.9444  -51.7759 C.ar      23 UNK        -0.0193 
     10 C10        -1.5444  -17.1315  -52.7437 C.ar      23 UNK        -0.1150 
     11 C11        -0.3856  -17.5437  -53.4139 C.ar      23 UNK        -0.0193 
     12 C12         0.1972  -18.7693  -53.0718 C.ar      23 UNK        -0.1150 
     13 C13        -0.3784  -19.5841  -52.0923 C.ar      23 UNK        -0.0193 
     14 C14        -1.5490  -19.1684  -51.4534 C.ar      23 UNK        -0.1150 
     15 C15         0.2456  -20.9230  -51.7361 C.3       23 UNK        -0.0205 
     16 S16         1.5276  -20.7395  -50.4613 S.3       23 UNK        -0.2404 
     17 C17         1.5492  -22.4193  -49.7327 C.3       23 UNK        -0.0398 
     18 CA          1.1742  -22.4472  -48.2295 C.3       11 UNK         0.1400 
     19 N           2.1080  -21.6373  -47.4320 N.am      11 UNK        -0.5000 
     20 C           2.1347  -21.5446  -46.0956 C.2       10 UNK         0.5000 
     21 O           1.3643  -22.1606  -45.3556 O.2       10 UNK        -0.5000 
     22 CA          3.1480  -20.5332  -45.5234 C.3       10 UNK         0.1400 
     23 CB          2.7238  -19.0956  -45.8732 C.3       10 UNK        -0.1800 
     24 N           3.2922  -20.6258  -44.0729 N.am      10 UNK        -0.5000 
     25 C           3.8577  -21.6393  -43.4050 C.2       9 UNK         0.5000 
     26 O           4.3808  -22.6135  -43.9482 O.2       9 UNK        -0.5000 
     27 CA          3.8470  -21.5409  -41.8698 C.3       9 UNK         0.1400 
     28 CB          5.0611  -20.7388  -41.3744 C.3       9 UNK        -0.1800 
     29 N           2.6231  -20.9035  -41.3815 N.am      9 UNK        -0.5000 
     30 C           1.5377  -21.5639  -40.9553 C.2       8 UNK         0.5000 
     31 O           1.4711  -22.7913  -40.8817 O.2       8 UNK        -0.5000 
     32 CA          0.3214  -20.7215  -40.5168 C.3       8 UNK         0.1400 
     33 CB          0.3021  -20.5637  -38.9887 C.3       8 UNK        -0.1800 
     34 N           0.2852  -19.3919  -41.1263 N.am      8 UNK        -0.5000 
     35 C          -0.0314  -19.1513  -42.4057 C.2       7 UNK         0.5000 
     36 O          -0.3929  -20.0211  -43.1939 O.2       7 UNK        -0.5000 
     37 CA          0.1052  -17.6991  -42.9011 C.3       7 UNK         0.1400 
     38 CB         -1.2610  -17.0000  -42.8788 C.3       7 UNK        -0.1800 
     39 N           1.0905  -16.8967  -42.1639 N.am      7 UNK        -0.5000 
     40 C           2.4012  -17.1835  -42.0883 C.2       6 UNK         0.5000 
     41 O           2.8920  -18.1949  -42.5893 O.2       6 UNK        -0.5000 
     42 CA          3.3279  -16.2193  -41.3240 C.3       6 UNK         0.1400 
     43 CB          4.3751  -15.6053  -42.2665 C.3       6 UNK        -0.1800 
     44 N           2.6063  -15.1485  -40.6372 N.am      6 UNK        -0.5000 
     45 C           2.0575  -15.2697  -39.4197 C.2       5 UNK         0.5000 
     46 O           2.1231  -16.2980  -38.7452 O.2       5 UNK        -0.5000 
     47 CA          1.2879  -14.0532  -38.8646 C.3       5 UNK         0.1400 
     48 CB          2.1870  -13.2308  -37.9292 C.3       5 UNK        -0.1800 
     49 N           0.7443  -13.1699  -39.8993 N.am      5 UNK        -0.5000 
     50 C          -0.1802  -13.5241  -40.8014 C.2       4 UNK         0.5000 
     51 O          -0.6835  -14.6461  -40.8462 O.2       4 UNK        -0.5000 
     52 CA         -0.5890  -12.4778  -41.8578 C.3       4 UNK         0.1400 
     53 CB         -0.0877  -11.0469  -41.5593 C.3       4 UNK        -0.1800 
     54 N          -0.1821  -12.8849  -43.2061 N.am      4 UNK        -0.5000 
     55 C           1.0575  -13.1833  -43.6280 C.2       3 UNK         0.5000 
     56 O           2.0472  -13.1871  -42.8947 O.2       3 UNK        -0.5000 
     57 CA          1.2262  -13.5230  -45.1225 C.3       3 UNK         0.1400 
     58 CB          1.3995  -15.0361  -45.3255 C.3       3 UNK        -0.1800 
     59 N           0.1005  -13.0506  -45.9350 N.am      3 UNK        -0.5000 
     60 C          -0.0369  -11.7881  -46.3715 C.2       2 UNK         0.5000 
     61 O           0.8048  -10.9131  -46.1613 O.2       2 UNK        -0.5000 
     62 CA         -1.3331  -11.4151  -47.1299 C.3       2 UNK         0.1400 
     63 CB         -1.0708  -10.4573  -48.3114 C.3       2 UNK        -0.1800 
     64 N          -2.1460  -12.5641  -47.5466 N.am      2 UNK        -0.5000 
     65 C          -1.8356  -13.5133  -48.4438 C.2       1 UNK         0.5000 
     66 O          -0.8145  -13.4933  -49.1324 O.2       1 UNK        -0.5000 
     67 C          -0.3152  -22.0889  -48.0010 C.2       11 UNK         0.5000 
     68 O          -1.1851  -22.9313  -48.2243 O.2       11 UNK        -0.5000 
     69 N          -0.5684  -20.8659  -47.5104 N.am      12 UNK        -0.5000 
     70 CA         -1.8592  -20.3351  -47.0713 C.3       12 UNK         0.1400 
     71 CB         -1.6338  -18.9167  -46.5268 C.3       12 UNK        -0.1800 
     72 C          -2.5706  -21.1939  -46.0062 C.2       12 UNK         0.5000 
     73 O          -3.7996  -21.1665  -45.9390 O.2       12 UNK        -0.5000 
     74 N          -1.8033  -21.9683  -45.2231 N.am      13 UNK        -0.5000 
     75 CA         -2.2876  -22.8908  -44.1930 C.3       13 UNK         0.1400 
     76 CB         -1.0806  -23.5111  -43.4738 C.3       13 UNK        -0.1800 
     77 C          -3.2143  -24.0024  -44.7265 C.2       13 UNK         0.5000 
     78 O          -4.0252  -24.5288  -43.9637 O.2       13 UNK        -0.5000 
     79 N          -3.0980  -24.3265  -46.0224 N.am      14 UNK        -0.5000 
     80 CA         -3.9670  -25.2696  -46.7271 C.3       14 UNK         0.1400 
     81 CB         -3.2228  -25.7843  -47.9661 C.3       14 UNK        -0.1800 
     82 C          -5.3429  -24.6769  -47.1048 C.2       14 UNK         0.5000 
     83 O          -6.2130  -25.4297  -47.5454 O.2       14 UNK        -0.5000 
     84 N          -5.5275  -23.3583  -46.9255 N.am      15 UNK        -0.5000 
     85 CA         -6.7580  -22.5929  -47.1421 C.3       15 UNK         0.1400 
     86 CB         -7.7917  -22.9295  -46.0441 C.3       15 UNK        -0.1800 
     87 C          -7.2914  -22.7502  -48.5803 C.2       15 UNK         0.5000 
     88 O          -6.6356  -22.2970  -49.5175 O.2       15 UNK        -0.5000 
     89 N          -8.4454  -23.4101  -48.7438 N.am      16 UNK        -0.5000 
     90 CA         -9.0754  -23.6948  -50.0353 C.3       16 UNK         0.1400 
     91 CB        -10.4758  -24.2753  -49.7853 C.3       16 UNK        -0.1800 
     92 C          -8.2556  -24.6370  -50.9419 C.2       16 UNK         0.5000 
     93 O          -8.4488  -24.6153  -52.1579 O.2       16 UNK        -0.5000 
     94 N          -7.3597  -25.4370  -50.3474 N.am      17 UNK        -0.5000 
     95 CA         -6.4720  -26.3635  -51.0498 C.3       17 UNK         0.1400 
     96 CB         -6.3613  -27.6575  -50.2250 C.3       17 UNK        -0.1800 
     97 C          -5.0807  -25.7608  -51.3364 C.2       17 UNK         0.5000 
     98 O          -4.2256  -26.4718  -51.8671 O.2       17 UNK        -0.5000 
     99 N          -4.8522  -24.4874  -50.9778 N.am      18 UNK        -0.5000 
    100 CA        -3.5911  -23.7808  -51.2083 C.3       18 UNK         0.1400 
    101 CB        -3.6014  -22.4522  -50.4396 C.3       18 UNK        -0.1800 
    102 C         -3.3221  -23.5447  -52.7055 C.2       18 UNK         0.5000 
    103 O         -4.2439  -23.2177  -53.4579 O.2       18 UNK        -0.5000 
    104 N         -2.0550  -23.7031  -53.1052 N.am      19 UNK        -0.5000 
    105 CA        -1.5715  -23.5672  -54.4789 C.3       19 UNK         0.1400 
    106 CB        -0.2530  -24.3509  -54.6112 C.3       19 UNK        -0.1800 
    107 C         -1.4212  -22.0898  -54.8925 C.2       19 UNK         0.5000 
    108 O         -0.3038  -21.6169  -55.1102 O.2       19 UNK        -0.5000 
    109 N         -2.5513  -21.3790  -54.9858 N.am      20 UNK        -0.5000 
    110 CA        -2.6611  -19.9623  -55.3447 C.3       20 UNK         0.1400 
    111 CB        -4.0296  -19.4369  -54.8785 C.3       20 UNK        -0.1800 
    112 C         -2.3851  -19.6856  -56.8407 C.2       20 UNK         0.5000 
    113 O         -3.2080  -19.0799  -57.5308 O.2       20 UNK        -0.5000 
    114 N         -1.2118  -20.1234  -57.3159 N.am      21 UNK        -0.5000 
    115 CA        -0.7150  -19.9883  -58.6896 C.3       21 UNK         0.1400 
    116 CB         0.5837  -20.7981  -58.8222 C.3       21 UNK        -0.1800 
    117 C         -0.4935  -18.5292  -59.1382 C.2       21 UNK         0.5000 
    118 O         -0.4319  -18.2636  -60.3393 O.2       21 UNK        -0.5000 
    119 N         -0.4035  -17.6138  -58.1672 N.am      22 UNK        -0.5000 
    120 CA        -0.4373  -16.1569  -58.3489 C.3       22 UNK         0.1400 
    121 C         -1.7925  -15.5948  -58.8814 C.2       22 UNK         0.5000 
    122 N         -2.8937  -16.3381  -58.8364 N.am      22 UNK        -0.7600 
    123 O         -1.8403  -14.4627  -59.3551 O.2       22 UNK        -0.5000 
    124 C124        0.0102  -15.4263  -57.0548 C.3       23 UNK        -0.0398 
    125 S125       -0.9907  -15.8879  -55.5937 S.3       23 UNK        -0.2404 
    126 C126        0.2438  -16.6881  -54.5115 C.3       23 UNK        -0.0205 
    127 H127       -3.8254  -14.9856  -44.1181 H         1 UNK         0.0600 
    128 H128       -5.0919  -15.3483  -45.2949 H         1 UNK         0.0600 
    129 H129       -4.0079  -16.6286  -44.7411 H         1 UNK         0.0600 
    130 H130       -4.5947  -14.9206  -47.4292 H         1 UNK         0.3000 
    131 H131       -3.5631  -14.3854  -49.3031 H         1 UNK         0.0600 
    132 H132       -1.3313  -16.2854  -48.4409 H         1 UNK         0.0800 
    133 H133       -1.6652  -15.7737  -50.0685 H         1 UNK         0.0800 
    134 H134       -4.2102  -18.2482  -51.3426 H         1 UNK         0.0800 
    135 H135       -3.7892  -16.5613  -51.5051 H         1 UNK         0.0800 
    136 H136       -2.0004  -16.1838  -52.9920 H         1 UNK         0.1150 
    137 H137        1.0946  -19.1004  -53.5755 H         1 UNK         0.1150 
    138 H138       -2.0026  -19.7920  -50.6973 H         1 UNK         0.1150 
    139 H139       -0.5303  -21.6053  -51.3912 H         1 UNK         0.0800 
    140 H140        0.6884  -21.3823  -52.6206 H         1 UNK         0.0800 
    141 H141        0.9003  -23.0898  -50.2985 H         1 UNK         0.0800 
    142 H142        2.5550  -22.8217  -49.8612 H         1 UNK         0.0800 
    143 H143        1.2892  -23.4771  -47.8853 H         1 UNK         0.0600 
    144 H144        2.7571  -21.0801  -47.9695 H         1 UNK         0.3000 
    145 H145        4.1223  -20.7333  -45.9737 H         1 UNK         0.0600 
    146 H146        3.4097  -18.3640  -45.4450 H         1 UNK         0.0600 
    147 H147        2.7142  -18.9326  -46.9514 H         1 UNK         0.0600 
    148 H148        1.7243  -18.8737  -45.5000 H         1 UNK         0.0600 
    149 H149        2.9371  -19.8390  -43.5394 H         1 UNK         0.3000 
    150 H150        3.9287  -22.5534  -41.4690 H         1 UNK         0.0600 
    151 H151        5.9932  -21.1983  -41.7058 H         1 UNK         0.0600 
    152 H152        5.0879  -20.6983  -40.2854 H         1 UNK         0.0600 
    153 H153        5.0501  -19.7139  -41.7474 H         1 UNK         0.0600 
    154 H154        2.5804  -19.8955  -41.4658 H         1 UNK         0.3000 
    155 H155       -0.5789  -21.2632  -40.8154 H         1 UNK         0.0600 
    156 H156        0.3030  -21.5364  -38.4950 H         1 UNK         0.0600 
    157 H157       -0.5914  -20.0338  -38.6580 H         1 UNK         0.0600 
    158 H158        1.1723  -20.0122  -38.6301 H         1 UNK         0.0600 
    159 H159        0.5651  -18.6143  -40.5462 H         1 UNK         0.3000 
    160 H160        0.4387  -17.7447  -43.9380 H         1 UNK         0.0600 
    161 H161       -1.6708  -16.9510  -41.8695 H         1 UNK         0.0600 
    162 H162       -1.9807  -17.5348  -43.4995 H         1 UNK         0.0600 
    163 H163       -1.1951  -15.9829  -43.2646 H         1 UNK         0.0600 
    164 H164        0.7384  -16.0684  -41.6989 H         1 UNK         0.3000 
    165 H165        3.8656  -16.8168  -40.5848 H         1 UNK         0.0600 
    166 H166        3.9151  -15.0222  -43.0631 H         1 UNK         0.0600 
    167 H167        5.0577  -14.9511  -41.7242 H         1 UNK         0.0600 
    168 H168        4.9784  -16.3817  -42.7389 H         1 UNK         0.0600 
    169 H169        2.4747  -14.2878  -41.1590 H         1 UNK         0.3000 
    170 H170        0.4488  -14.4381  -38.2813 H         1 UNK         0.0600 
    171 H171        2.5883  -13.8514  -37.1269 H         1 UNK         0.0600 
    172 H172        3.0334  -12.7975  -38.4638 H         1 UNK         0.0600 
    173 H173        1.6318  -12.4174  -37.4616 H         1 UNK         0.0600 
    174 H174        1.1317  -12.2389  -39.9490 H         1 UNK         0.3000 
    175 H175       -1.6796  -12.4533  -41.8545 H         1 UNK         0.0600 
    176 H176       -0.4757  -10.3411  -42.2939 H         1 UNK         0.0600 
    177 H177       -0.4267  -10.7059  -40.5802 H         1 UNK         0.0600 
    178 H178        1.0002  -10.9748  -41.5818 H         1 UNK         0.0600 
    179 H179       -0.9270  -12.9579  -43.8831 H         1 UNK         0.3000 
    180 H180        2.1409  -13.0357  -45.4665 H         1 UNK         0.0600 
    181 H181        1.5385  -15.2803  -46.3787 H         1 UNK         0.0600 
    182 H182        2.2711  -15.4093  -44.7880 H         1 UNK         0.0600 
    183 H183        0.5341  -15.5902  -44.9671 H         1 UNK         0.0600 
    184 H184       -0.6284  -13.7309  -46.1284 H         1 UNK         0.3000 
    185 H185       -1.9448  -10.8728  -46.4077 H         1 UNK         0.0600 
    186 H186       -0.6304   -9.5214  -47.9658 H         1 UNK         0.0600 
    187 H187       -0.3839  -10.8877  -49.0403 H         1 UNK         0.0600 
    188 H188       -1.9964  -10.2055  -48.8289 H         1 UNK         0.0600 
    189 H189       -3.0072  -12.6906  -47.0333 H         1 UNK         0.3000 
    190 H190        0.2238  -20.2571  -47.3746 H         1 UNK         0.3000 
    191 H191       -2.5087  -20.2793  -47.9471 H         1 UNK         0.0600 
    192 H192       -2.5808  -18.4394  -46.2719 H         1 UNK         0.0600 
    193 H193       -1.1373  -18.2847  -47.2614 H         1 UNK         0.0600 
    194 H194       -1.0175  -18.9248  -45.6281 H         1 UNK         0.0600 
    195 H195       -0.7957  -21.9061  -45.3210 H         1 UNK         0.3000 
    196 H196       -2.8566  -22.3042  -43.4693 H         1 UNK         0.0600 
    197 H197       -1.3988  -24.1612  -42.6580 H         1 UNK         0.0600 
    198 H198       -0.4392  -22.7421  -43.0446 H         1 UNK         0.0600 
    199 H199       -0.4715  -24.1073  -44.1544 H         1 UNK         0.0600 
    200 H200       -2.4104  -23.8393  -46.5856 H         1 UNK         0.3000 
    201 H201       -4.1586  -26.1239  -46.0746 H         1 UNK         0.0600 
    202 H202       -2.3053  -26.3024  -47.6868 H         1 UNK         0.0600 
    203 H203       -2.9522  -24.9653  -48.6287 H         1 UNK         0.0600 
    204 H204       -3.8312  -26.4870  -48.5351 H         1 UNK         0.0600 
    205 H205       -4.7488  -22.8077  -46.5788 H         1 UNK         0.3000 
    206 H206       -6.4899  -21.5412  -47.0313 H         1 UNK         0.0600 
    207 H207       -7.3882  -22.7098  -45.0555 H         1 UNK         0.0600 
    208 H208       -8.6976  -22.3329  -46.1583 H         1 UNK         0.0600 
    209 H209       -8.0787  -23.9816  -46.0523 H         1 UNK         0.0600 
    210 H210       -8.9072  -23.7781  -47.9249 H         1 UNK         0.3000 
    211 H211       -9.1873  -22.7482  -50.5681 H         1 UNK         0.0600 
    212 H212      -10.4283  -25.2155  -49.2344 H         1 UNK         0.0600 
    213 H213      -10.9917  -24.4718  -50.7262 H         1 UNK         0.0600 
    214 H214      -11.0953  -23.5820  -49.2161 H         1 UNK         0.0600 
    215 H215       -7.2326  -25.3765  -49.3418 H         1 UNK         0.3000 
    216 H216       -6.9046  -26.6281  -52.0168 H         1 UNK         0.0600 
    217 H217       -5.7493  -28.4010  -50.7371 H         1 UNK         0.0600 
    218 H218       -7.3422  -28.1047  -50.0633 H         1 UNK         0.0600 
    219 H219       -5.9117  -27.4795  -49.2486 H         1 UNK         0.0600 
    220 H220       -5.6076  -23.9425  -50.5811 H         1 UNK         0.3000 
    221 H221       -2.7849  -24.3990  -50.8100 H         1 UNK         0.0600 
    222 H222       -4.3321  -21.7529  -50.8478 H         1 UNK         0.0600 
    223 H223       -3.8311  -22.6038  -49.3847 H         1 UNK         0.0600 
    224 H224       -2.6257  -21.9735  -50.4852 H         1 UNK         0.0600 
    225 H225       -1.3601  -23.9617  -52.4208 H         1 UNK         0.3000 
    226 H226       -2.2971  -24.0236  -55.1557 H         1 UNK         0.0600 
    227 H227        0.1347  -24.2945  -55.6293 H         1 UNK         0.0600 
    228 H228        0.5175  -23.9623  -53.9440 H         1 UNK         0.0600 
    229 H229       -0.3967  -25.4063  -54.3790 H         1 UNK         0.0600 
    230 H230       -3.4165  -21.8525  -54.7480 H         1 UNK         0.3000 
    231 H231       -1.9012  -19.4170  -54.7875 H         1 UNK         0.0600 
    232 H232       -4.1236  -18.3672  -55.0704 H         1 UNK         0.0600 
    233 H233       -4.1611  -19.5837  -53.8061 H         1 UNK         0.0600 
    234 H234       -4.8500  -19.9405  -55.3909 H         1 UNK         0.0600 
    235 H235       -0.6128  -20.6228  -56.6625 H         1 UNK         0.3000 
    236 H236       -1.4622  -20.4223  -59.3568 H         1 UNK         0.0600 
    237 H237        1.3607  -20.4213  -58.1558 H         1 UNK         0.0600 
    238 H238        0.4192  -21.8494  -58.5845 H         1 UNK         0.0600 
    239 H239        0.9725  -20.7529  -59.8404 H         1 UNK         0.0600 
    240 H240       -0.4789  -17.9327  -57.2132 H         1 UNK         0.3000 
    241 H241        0.2981  -15.9211  -59.1204 H         1 UNK         0.0600 
    242 H242       -3.7582  -15.9597  -59.1893 H         1 UNK         0.3800 
    243 H243       -2.8860  -17.2664  -58.4283 H         1 UNK         0.3800 
    244 H244       -0.0397  -14.3437  -57.1839 H         1 UNK         0.0800 
    245 H245        1.0608  -15.6448  -56.8598 H         1 UNK         0.0800 
    246 H246        0.9017  -17.3051  -55.1256 H         1 UNK         0.0800 
    247 H247        0.8691  -15.9219  -54.0519 H         1 UNK         0.0800 
@<TRIPOS>BOND
     1    1    2 1    
     2    1  127 1    
     3    1  128 1    
     4    1  129 1    
     5    2    3 2    
     6    2    4 am   BACKBONE|DICT|INTERRES
     7    4    5 1    
     8    4  130 1    
     9    5    6 1    
    10    5   65 1    
    11    5  131 1    
    12    6    7 1    
    13    6  132 1    
    14    6  133 1    
    15    7    8 1    
    16    8    9 1    
    17    8  134 1    
    18    8  135 1    
    19    9   10 ar   
    20    9   14 ar   
    21   10   11 ar   
    22   10  136 1    
    23   11   12 ar   
    24   11  126 1    
    25   12   13 ar   
    26   12  137 1    
    27   13   14 ar   
    28   13   15 1    
    29   14  138 1    
    30   15   16 1    
    31   15  139 1    
    32   15  140 1    
    33   16   17 1    
    34   17   18 1    
    35   17  141 1    
    36   17  142 1    
    37   18   19 1    
    38   18   67 1    
    39   18  143 1    
    40   19   20 am   BACKBONE|DICT|INTERRES
    41   19  144 1    
    42   20   21 2    
    43   20   22 1    
    44   22   23 1    
    45   22   24 1    
    46   22  145 1    
    47   23  146 1    
    48   23  147 1    
    49   23  148 1    
    50   24   25 am   BACKBONE|DICT|INTERRES
    51   24  149 1    
    52   25   26 2    
    53   25   27 1    
    54   27   28 1    
    55   27   29 1    
    56   27  150 1    
    57   28  151 1    
    58   28  152 1    
    59   28  153 1    
    60   29   30 am   BACKBONE|DICT|INTERRES
    61   29  154 1    
    62   30   31 2    
    63   30   32 1    
    64   32   33 1    
    65   32   34 1    
    66   32  155 1    
    67   33  156 1    
    68   33  157 1    
    69   33  158 1    
    70   34   35 am   BACKBONE|DICT|INTERRES
    71   34  159 1    
    72   35   36 2    
    73   35   37 1    
    74   37   38 1    
    75   37   39 1    
    76   37  160 1    
    77   38  161 1    
    78   38  162 1    
    79   38  163 1    
    80   39   40 am   BACKBONE|DICT|INTERRES
    81   39  164 1    
    82   40   41 2    
    83   40   42 1    
    84   42   43 1    
    85   42   44 1    
    86   42  165 1    
    87   43  166 1    
    88   43  167 1    
    89   43  168 1    
    90   44   45 am   BACKBONE|DICT|INTERRES
    91   44  169 1    
    92   45   46 2    
    93   45   47 1    
    94   47   48 1    
    95   47   49 1    
    96   47  170 1    
    97   48  171 1    
    98   48  172 1    
    99   48  173 1    
   100   49   50 am   BACKBONE|DICT|INTERRES
   101   49  174 1    
   102   50   51 2    
   103   50   52 1    
   104   52   53 1    
   105   52   54 1    
   106   52  175 1    
   107   53  176 1    
   108   53  177 1    
   109   53  178 1    
   110   54   55 am   BACKBONE|DICT|INTERRES
   111   54  179 1    
   112   55   56 2    
   113   55   57 1    
   114   57   58 1    
   115   57   59 1    
   116   57  180 1    
   117   58  181 1    
   118   58  182 1    
   119   58  183 1    
   120   59   60 am   BACKBONE|DICT|INTERRES
   121   59  184 1    
   122   60   61 2    
   123   60   62 1    
   124   62   63 1    
   125   62   64 1    
   126   62  185 1    
   127   63  186 1    
   128   63  187 1    
   129   63  188 1    
   130   64   65 am   BACKBONE|DICT|INTERRES
   131   64  189 1    
   132   65   66 2    
   133   67   68 2    
   134   67   69 am   BACKBONE|DICT|INTERRES
   135   69   70 1    
   136   69  190 1    
   137   70   71 1    
   138   70   72 1    
   139   70  191 1    
   140   71  192 1    
   141   71  193 1    
   142   71  194 1    
   143   72   73 2    
   144   72   74 am   BACKBONE|DICT|INTERRES
   145   74   75 1    
   146   74  195 1    
   147   75   76 1    
   148   75   77 1    
   149   75  196 1    
   150   76  197 1    
   151   76  198 1    
   152   76  199 1    
   153   77   78 2    
   154   77   79 am   BACKBONE|DICT|INTERRES
   155   79   80 1    
   156   79  200 1    
   157   80   81 1    
   158   80   82 1    
   159   80  201 1    
   160   81  202 1    
   161   81  203 1    
   162   81  204 1    
   163   82   83 2    
   164   82   84 am   BACKBONE|DICT|INTERRES
   165   84   85 1    
   166   84  205 1    
   167   85   86 1    
   168   85   87 1    
   169   85  206 1    
   170   86  207 1    
   171   86  208 1    
   172   86  209 1    
   173   87   88 2    
   174   87   89 am   BACKBONE|DICT|INTERRES
   175   89   90 1    
   176   89  210 1    
   177   90   91 1    
   178   90   92 1    
   179   90  211 1    
   180   91  212 1    
   181   91  213 1    
   182   91  214 1    
   183   92   93 2    
   184   92   94 am   BACKBONE|DICT|INTERRES
   185   94   95 1    
   186   94  215 1    
   187   95   96 1    
   188   95   97 1    
   189   95  216 1    
   190   96  217 1    
   191   96  218 1    
   192   96  219 1    
   193   97   98 2    
   194   97   99 am   BACKBONE|DICT|INTERRES
   195   99  100 1    
   196   99  220 1    
   197  100  101 1    
   198  100  102 1    
   199  100  221 1    
   200  101  222 1    
   201  101  223 1    
   202  101  224 1    
   203  102  103 2    
   204  102  104 am   BACKBONE|DICT|INTERRES
   205  104  105 1    
   206  104  225 1    
   207  105  106 1    
   208  105  107 1    
   209  105  226 1    
   210  106  227 1    
   211  106  228 1    
   212  106  229 1    
   213  107  108 2    
   214  107  109 am   BACKBONE|DICT|INTERRES
   215  109  110 1    
   216  109  230 1    
   217  110  111 1    
   218  110  112 1    
   219  110  231 1    
   220  111  232 1    
   221  111  233 1    
   222  111  234 1    
   223  112  113 2    
   224  112  114 am   BACKBONE|DICT|INTERRES
   225  114  115 1    
   226  114  235 1    
   227  115  116 1    
   228  115  117 1    
   229  115  236 1    
   230  116  237 1    
   231  116  238 1    
   232  116  239 1    
   233  117  118 2    
   234  117  119 am   BACKBONE|DICT|INTERRES
   235  119  120 1    
   236  119  240 1    
   237  120  121 1    
   238  120  124 1    
   239  120  241 1    
   240  121  122 am   BACKBONE|DICT|INTERRES
   241  121  123 2    
   242  122  242 1    
   243  122  243 1    
   244  124  125 1    
   245  124  244 1    
   246  124  245 1    
   247  125  126 1    
   248  126  246 1    
   249  126  247 1    
@<TRIPOS>SUBSTRUCTURE
     1 UNK         1 GROUP             0       ****    0 ROOT    
