@<TRIPOS>MOLECULE
3R540
247   249    1
SMALL
USER_CHARGES


@<TRIPOS>ATOM
      1 CA         -4.7701  -13.8385  -49.1291 C.3       0 UNK        -0.1800 
      2 C          -3.6593  -13.4802  -48.1522 C.2       0 UNK         0.5000 
      3 O          -3.9384  -13.1218  -47.0081 O.2       0 UNK        -0.5000 
      4 N          -2.3959  -13.6012  -48.5868 N.am      1 UNK        -0.5000 
      5 CA         -1.1887  -13.2657  -47.8120 C.3       1 UNK         0.1400 
      6 C6          0.0702  -13.1613  -48.7158 C.3       23 UNK        -0.0398 
      7 S7          0.9753  -14.6980  -49.1225 S.3       23 UNK        -0.2404 
      8 C8         -0.2389  -15.7003  -50.0332 C.3       23 UNK        -0.0205 
      9 C9          0.3999  -16.9675  -50.5859 C.ar      23 UNK        -0.0193 
     10 C10         1.1713  -16.9009  -51.7506 C.ar      23 UNK        -0.1150 
     11 C11         1.7411  -18.0557  -52.2939 C.ar      23 UNK        -0.0193 
     12 C12         1.5436  -19.2834  -51.6575 C.ar      23 UNK        -0.1150 
     13 C13         0.7713  -19.3682  -50.4966 C.ar      23 UNK        -0.0193 
     14 C14         0.2040  -18.2061  -49.9605 C.ar      23 UNK        -0.1150 
     15 C15         0.5266  -20.7272  -49.8581 C.3       23 UNK        -0.0205 
     16 S16         1.8753  -21.1883  -48.7263 S.3       23 UNK        -0.2404 
     17 C17         1.6874  -22.9996  -48.6125 C.3       23 UNK        -0.0398 
     18 CA          0.8272  -23.5396  -47.4414 C.3       11 UNK         0.1400 
     19 N           1.1969  -23.0254  -46.1168 N.am      11 UNK        -0.5000 
     20 C           1.0114  -23.7251  -44.9854 C.2       10 UNK         0.5000 
     21 O           0.5823  -24.8791  -44.9649 O.2       10 UNK        -0.5000 
     22 CA          1.3244  -23.0298  -43.6463 C.3       10 UNK         0.1400 
     23 CB          2.8259  -23.0918  -43.3297 C.3       10 UNK        -0.1800 
     24 N           0.8641  -21.6442  -43.5875 N.am      10 UNK        -0.5000 
     25 C          -0.4167  -21.2585  -43.6772 C.2       9 UNK         0.5000 
     26 O          -1.3611  -22.0375  -43.8034 O.2       9 UNK        -0.5000 
     27 CA         -0.6832  -19.7419  -43.6731 C.3       9 UNK         0.1400 
     28 CB         -0.8397  -19.2119  -42.2412 C.3       9 UNK        -0.1800 
     29 N           0.3533  -18.9839  -44.3771 N.am      9 UNK        -0.5000 
     30 C           0.6317  -19.1278  -45.6809 C.2       8 UNK         0.5000 
     31 O          -0.0099  -19.8604  -46.4311 O.2       8 UNK        -0.5000 
     32 CA          1.8491  -18.3657  -46.2255 C.3       8 UNK         0.1400 
     33 CB          1.4676  -16.9443  -46.6345 C.3       8 UNK        -0.1800 
     34 N           2.9406  -18.3184  -45.2581 N.am      8 UNK        -0.5000 
     35 C           3.7473  -19.3525  -44.9851 C.2       7 UNK         0.5000 
     36 O           3.7026  -20.4313  -45.5750 O.2       7 UNK        -0.5000 
     37 CA          4.7465  -19.1562  -43.8294 C.3       7 UNK         0.1400 
     38 CB          6.0596  -18.5500  -44.3466 C.3       7 UNK        -0.1800 
     39 N           4.2096  -18.3075  -42.7628 N.am      7 UNK        -0.5000 
     40 C           3.1788  -18.6448  -41.9745 C.2       6 UNK         0.5000 
     41 O           2.6133  -19.7365  -42.0270 O.2       6 UNK        -0.5000 
     42 CA          2.6657  -17.5648  -41.0023 C.3       6 UNK         0.1400 
     43 CB          3.3882  -17.6695  -39.6513 C.3       6 UNK        -0.1800 
     44 N           2.8142  -16.2042  -41.5289 N.am      6 UNK        -0.5000 
     45 C           2.1337  -15.7154  -42.5744 C.2       5 UNK         0.5000 
     46 O           1.2966  -16.3631  -43.2056 O.2       5 UNK        -0.5000 
     47 CA          2.5132  -14.2995  -43.0313 C.3       5 UNK         0.1400 
     48 CB          3.2913  -14.3483  -44.3561 C.3       5 UNK        -0.1800 
     49 N           1.3288  -13.4622  -43.2101 N.am      5 UNK        -0.5000 
     50 C           0.9337  -12.5268  -42.3365 C.2       4 UNK         0.5000 
     51 O           1.4659  -12.3476  -41.2399 O.2       4 UNK        -0.5000 
     52 CA         -0.2312  -11.6182  -42.7585 C.3       4 UNK         0.1400 
     53 CB          0.2050  -10.6588  -43.8789 C.3       4 UNK        -0.1800 
     54 N          -1.3812  -12.3939  -43.2137 N.am      4 UNK        -0.5000 
     55 C          -2.5240  -12.5428  -42.5283 C.2       3 UNK         0.5000 
     56 O          -2.7213  -12.0550  -41.4145 O.2       3 UNK        -0.5000 
     57 CA         -3.6532  -13.3565  -43.1952 C.3       3 UNK         0.1400 
     58 CB         -4.7169  -12.4151  -43.7803 C.3       3 UNK        -0.1800 
     59 N          -3.1745  -14.2449  -44.2537 N.am      3 UNK        -0.5000 
     60 C          -2.4640  -15.3603  -44.0328 C.2       2 UNK         0.5000 
     61 O          -2.2386  -15.8059  -42.9084 O.2       2 UNK        -0.5000 
     62 CA         -1.8925  -16.0910  -45.2636 C.3       2 UNK         0.1400 
     63 CB         -2.7992  -17.2669  -45.6510 C.3       2 UNK        -0.1800 
     64 N          -1.7228  -15.2430  -46.4452 N.am      2 UNK        -0.5000 
     65 C          -0.9885  -14.1246  -46.5372 C.2       1 UNK         0.5000 
     66 O          -0.2459  -13.7243  -45.6391 O.2       1 UNK        -0.5000 
     67 C          -0.6845  -23.4078  -47.7037 C.2       11 UNK         0.5000 
     68 O          -1.2808  -24.3420  -48.2417 O.2       11 UNK        -0.5000 
     69 N          -1.3005  -22.2914  -47.2852 N.am      12 UNK        -0.5000 
     70 CA         -2.7324  -22.0213  -47.4550 C.3       12 UNK         0.1400 
     71 CB         -3.0416  -20.5738  -47.0613 C.3       12 UNK        -0.1800 
     72 C          -3.6513  -22.9968  -46.6977 C.2       12 UNK         0.5000 
     73 O          -4.8007  -23.1657  -47.0983 O.2       12 UNK        -0.5000 
     74 N          -3.1288  -23.6688  -45.6638 N.am      13 UNK        -0.5000 
     75 CA         -3.7905  -24.7748  -44.9692 C.3       13 UNK         0.1400 
     76 CB         -2.9270  -25.2025  -43.7732 C.3       13 UNK        -0.1800 
     77 C          -4.0912  -25.9873  -45.8787 C.2       13 UNK         0.5000 
     78 O          -5.0320  -26.7289  -45.5923 O.2       13 UNK        -0.5000 
     79 N          -3.3064  -26.1594  -46.9524 N.am      14 UNK        -0.5000 
     80 CA         -3.4886  -27.1974  -47.9658 C.3       14 UNK         0.1400 
     81 CB         -2.1576  -27.9401  -48.1652 C.3       14 UNK        -0.1800 
     82 C          -3.9761  -26.6026  -49.2985 C.2       14 UNK         0.5000 
     83 O          -4.8774  -27.1664  -49.9196 O.2       14 UNK        -0.5000 
     84 N          -3.3695  -25.4858  -49.7235 N.am      15 UNK        -0.5000 
     85 CA         -3.5925  -24.8595  -51.0297 C.3       15 UNK         0.1400 
     86 CB         -2.3448  -24.0412  -51.3932 C.3       15 UNK        -0.1800 
     87 C          -4.8500  -23.9715  -51.1094 C.2       15 UNK         0.5000 
     88 O          -5.2338  -23.5939  -52.2167 O.2       15 UNK        -0.5000 
     89 N          -5.4452  -23.6552  -49.9501 N.am      16 UNK        -0.5000 
     90 CA         -6.5272  -22.6986  -49.6953 C.3       16 UNK         0.1400 
     91 CB         -7.7662  -22.9468  -50.5775 C.3       16 UNK        -0.1800 
     92 C          -6.0408  -21.2385  -49.7734 C.2       16 UNK         0.5000 
     93 O          -5.2693  -20.8720  -50.6644 O.2       16 UNK        -0.5000 
     94 N          -6.5130  -20.4158  -48.8279 N.am      17 UNK        -0.5000 
     95 CA         -6.2497  -18.9773  -48.7759 C.3       17 UNK         0.1400 
     96 CB         -6.7602  -18.4147  -47.4413 C.3       17 UNK        -0.1800 
     97 C          -6.8974  -18.2459  -49.9649 C.2       17 UNK         0.5000 
     98 O          -7.9546  -18.6663  -50.4404 O.2       17 UNK        -0.5000 
     99 N          -6.2265  -17.1905  -50.4437 N.am      18 UNK        -0.5000 
    100 CA        -6.5323  -16.3737  -51.6290 C.3       18 UNK         0.1400 
    101 CB        -7.9259  -15.7230  -51.5383 C.3       18 UNK        -0.1800 
    102 C         -6.3320  -17.1050  -52.9740 C.2       18 UNK         0.5000 
    103 O         -5.8960  -16.4706  -53.9350 O.2       18 UNK        -0.5000 
    104 N         -6.6056  -18.4164  -53.0203 N.am      19 UNK        -0.5000 
    105 CA        -6.2643  -19.3068  -54.1301 C.3       19 UNK         0.1400 
    106 CB        -6.9715  -20.6574  -53.9492 C.3       19 UNK        -0.1800 
    107 C         -4.7403  -19.4891  -54.2421 C.2       19 UNK         0.5000 
    108 O         -4.1898  -19.3206  -55.3310 O.2       19 UNK        -0.5000 
    109 N         -4.0942  -19.7770  -53.1007 N.am      20 UNK        -0.5000 
    110 CA        -2.6519  -19.7959  -52.8240 C.3       20 UNK         0.1400 
    111 CB        -2.0465  -18.3986  -53.0446 C.3       20 UNK        -0.1800 
    112 C         -1.8265  -20.8716  -53.5581 C.2       20 UNK         0.5000 
    113 O         -0.9275  -21.4508  -52.9482 O.2       20 UNK        -0.5000 
    114 N         -2.1266  -21.1153  -54.8397 N.am      21 UNK        -0.5000 
    115 CA        -1.5008  -22.0414  -55.7923 C.3       21 UNK         0.1400 
    116 CB        -1.6166  -23.5023  -55.3167 C.3       21 UNK        -0.1800 
    117 C         -0.0461  -21.6866  -56.1632 C.2       21 UNK         0.5000 
    118 O          0.2706  -21.6104  -57.3509 O.2       21 UNK        -0.5000 
    119 N          0.8007  -21.4736  -55.1497 N.am      22 UNK        -0.5000 
    120 CA         2.2208  -21.0874  -55.2369 C.3       22 UNK         0.1400 
    121 C          3.1604  -22.1642  -55.8633 C.2       22 UNK         0.5000 
    122 N          2.7531  -23.4242  -55.9562 N.am      22 UNK        -0.7600 
    123 O          4.2903  -21.8664  -56.2421 O.2       22 UNK        -0.5000 
    124 C124        2.4376  -19.6744  -55.8523 C.3       23 UNK        -0.0398 
    125 S125        1.4781  -18.3636  -55.0164 S.3       23 UNK        -0.2404 
    126 C126        2.5397  -17.9858  -53.5849 C.3       23 UNK        -0.0205 
    127 H127       -5.4165  -12.9764  -49.2927 H         1 UNK         0.0600 
    128 H128       -4.3735  -14.1538  -50.0942 H         1 UNK         0.0600 
    129 H129       -5.3780  -14.6486  -48.7266 H         1 UNK         0.0600 
    130 H130       -2.2355  -13.8856  -49.5417 H         1 UNK         0.3000 
    131 H131       -1.3674  -12.2558  -47.4355 H         1 UNK         0.0600 
    132 H132        0.7930  -12.5105  -48.2209 H         1 UNK         0.0800 
    133 H133       -0.1756  -12.6485  -49.6467 H         1 UNK         0.0800 
    134 H134       -1.0675  -15.9597  -49.3740 H         1 UNK         0.0800 
    135 H135       -0.6561  -15.1148  -50.8538 H         1 UNK         0.0800 
    136 H136        1.3145  -15.9493  -52.2430 H         1 UNK         0.1150 
    137 H137        1.9712  -20.1819  -52.0775 H         1 UNK         0.1150 
    138 H138       -0.3982  -18.2720  -49.0653 H         1 UNK         0.1150 
    139 H139       -0.4193  -20.7163  -49.3171 H         1 UNK         0.0800 
    140 H140        0.4253  -21.4810  -50.6397 H         1 UNK         0.0800 
    141 H141        2.6954  -23.4027  -48.5076 H         1 UNK         0.0800 
    142 H142        1.3285  -23.3906  -49.5663 H         1 UNK         0.0800 
    143 H143        1.0188  -24.6153  -47.4333 H         1 UNK         0.0600 
    144 H144        1.5470  -22.0773  -46.0735 H         1 UNK         0.3000 
    145 H145        0.7961  -23.5774  -42.8630 H         1 UNK         0.0600 
    146 H146        3.0446  -22.6419  -42.3610 H         1 UNK         0.0600 
    147 H147        3.4199  -22.5733  -44.0815 H         1 UNK         0.0600 
    148 H148        3.1734  -24.1250  -43.2950 H         1 UNK         0.0600 
    149 H149        1.5679  -20.9343  -43.4203 H         1 UNK         0.3000 
    150 H150       -1.6245  -19.5764  -44.1944 H         1 UNK         0.0600 
    151 H151       -1.7044  -19.6647  -41.7549 H         1 UNK         0.0600 
    152 H152       -0.9882  -18.1322  -42.2313 H         1 UNK         0.0600 
    153 H153        0.0312  -19.4368  -41.6273 H         1 UNK         0.0600 
    154 H154        0.8800  -18.3088  -43.8349 H         1 UNK         0.3000 
    155 H155        2.1981  -18.8799  -47.1210 H         1 UNK         0.0600 
    156 H156        0.6141  -16.9556  -47.3111 H         1 UNK         0.0600 
    157 H157        2.2940  -16.4544  -47.1486 H         1 UNK         0.0600 
    158 H158        1.1944  -16.3294  -45.7808 H         1 UNK         0.0600 
    159 H159        3.0166  -17.4809  -44.7013 H         1 UNK         0.3000 
    160 H160        4.9639  -20.1396  -43.4067 H         1 UNK         0.0600 
    161 H161        5.9077  -17.5538  -44.7641 H         1 UNK         0.0600 
    162 H162        6.4934  -19.1720  -45.1307 H         1 UNK         0.0600 
    163 H163        6.7989  -18.4717  -43.5493 H         1 UNK         0.0600 
    164 H164        4.6292  -17.3971  -42.6466 H         1 UNK         0.3000 
    165 H165        1.6025  -17.7471  -40.8345 H         1 UNK         0.0600 
    166 H166        2.9805  -16.9608  -38.9302 H         1 UNK         0.0600 
    167 H167        3.2741  -18.6669  -39.2245 H         1 UNK         0.0600 
    168 H168        4.4569  -17.4741  -39.7483 H         1 UNK         0.0600 
    169 H169        3.4873  -15.6135  -41.0618 H         1 UNK         0.3000 
    170 H170        3.1772  -13.8603  -42.2836 H         1 UNK         0.0600 
    171 H171        2.6635  -14.6738  -45.1845 H         1 UNK         0.0600 
    172 H172        3.6836  -13.3639  -44.6117 H         1 UNK         0.0600 
    173 H173        4.1409  -15.0294  -44.2939 H         1 UNK         0.0600 
    174 H174        0.8107  -13.5933  -44.0752 H         1 UNK         0.3000 
    175 H175       -0.5008  -11.0080  -41.8940 H         1 UNK         0.0600 
    176 H176        0.4820  -11.1919  -44.7890 H         1 UNK         0.0600 
    177 H177       -0.5948   -9.9626  -44.1314 H         1 UNK         0.0600 
    178 H178        1.0669  -10.0655  -43.5709 H         1 UNK         0.0600 
    179 H179       -1.2743  -12.8725  -44.1003 H         1 UNK         0.3000 
    180 H180       -4.1253  -13.9642  -42.4204 H         1 UNK         0.0600 
    181 H181       -5.5422  -12.9758  -44.2198 H         1 UNK         0.0600 
    182 H182       -4.2998  -11.7708  -44.5553 H         1 UNK         0.0600 
    183 H183       -5.1369  -11.7700  -43.0075 H         1 UNK         0.0600 
    184 H184       -3.3473  -13.9452  -45.2080 H         1 UNK         0.3000 
    185 H185       -0.9175  -16.4804  -44.9732 H         1 UNK         0.0600 
    186 H186       -3.7499  -16.9260  -46.0629 H         1 UNK         0.0600 
    187 H187       -2.3132  -17.8947  -46.3962 H         1 UNK         0.0600 
    188 H188       -3.0286  -17.8928  -44.7889 H         1 UNK         0.0600 
    189 H189       -2.3170  -15.4615  -47.2299 H         1 UNK         0.3000 
    190 H190       -0.7486  -21.5427  -46.8716 H         1 UNK         0.3000 
    191 H191       -2.9624  -22.1310  -48.5169 H         1 UNK         0.0600 
    192 H192       -2.4990  -19.8733  -47.6958 H         1 UNK         0.0600 
    193 H193       -2.7710  -20.3794  -46.0247 H         1 UNK         0.0600 
    194 H194       -4.1038  -20.3548  -47.1666 H         1 UNK         0.0600 
    195 H195       -2.2056  -23.4110  -45.3371 H         1 UNK         0.3000 
    196 H196       -4.7446  -24.4046  -44.5890 H         1 UNK         0.0600 
    197 H197       -2.7683  -24.3732  -43.0836 H         1 UNK         0.0600 
    198 H198       -1.9494  -25.5640  -44.0936 H         1 UNK         0.0600 
    199 H199       -3.4064  -26.0050  -43.2110 H         1 UNK         0.0600 
    200 H200       -2.5637  -25.4912  -47.1227 H         1 UNK         0.3000 
    201 H201       -4.2322  -27.9276  -47.6398 H         1 UNK         0.0600 
    202 H202       -1.8363  -28.4228  -47.2421 H         1 UNK         0.0600 
    203 H203       -1.3610  -27.2662  -48.4837 H         1 UNK         0.0600 
    204 H204       -2.2536  -28.7186  -48.9231 H         1 UNK         0.0600 
    205 H205       -2.6138  -25.0919  -49.1665 H         1 UNK         0.3000 
    206 H206       -3.7052  -25.6476  -51.7773 H         1 UNK         0.0600 
    207 H207       -2.1939  -23.2047  -50.7098 H         1 UNK         0.0600 
    208 H208       -1.4445  -24.6556  -51.3772 H         1 UNK         0.0600 
    209 H209       -2.4376  -23.6294  -52.3976 H         1 UNK         0.0600 
    210 H210       -5.0169  -24.0127  -49.1057 H         1 UNK         0.3000 
    211 H211       -6.8381  -22.8862  -48.6670 H         1 UNK         0.0600 
    212 H212       -7.5780  -22.7370  -51.6290 H         1 UNK         0.0600 
    213 H213       -8.5933  -22.3069  -50.2680 H         1 UNK         0.0600 
    214 H214       -8.1056  -23.9794  -50.4975 H         1 UNK         0.0600 
    215 H215       -7.1629  -20.7760  -48.1449 H         1 UNK         0.3000 
    216 H216       -5.1684  -18.8311  -48.8231 H         1 UNK         0.0600 
    217 H217       -6.5524  -17.3468  -47.3615 H         1 UNK         0.0600 
    218 H218       -6.2749  -18.9023  -46.5955 H         1 UNK         0.0600 
    219 H219       -7.8375  -18.5484  -47.3344 H         1 UNK         0.0600 
    220 H220       -5.3543  -16.9545  -49.9930 H         1 UNK         0.3000 
    221 H221       -5.8015  -15.5638  -51.6153 H         1 UNK         0.0600 
    222 H222       -8.7284  -16.4576  -51.6059 H         1 UNK         0.0600 
    223 H223       -8.0460  -15.1773  -50.6024 H         1 UNK         0.0600 
    224 H224       -8.0726  -15.0107  -52.3510 H         1 UNK         0.0600 
    225 H225       -7.0070  -18.8400  -52.1910 H         1 UNK         0.3000 
    226 H226       -6.6234  -18.8538  -55.0566 H         1 UNK         0.0600 
    227 H227       -8.0529  -20.5342  -53.8886 H         1 UNK         0.0600 
    228 H228       -6.7639  -21.3213  -54.7892 H         1 UNK         0.0600 
    229 H229       -6.6395  -21.1645  -53.0440 H         1 UNK         0.0600 
    230 H230       -4.6643  -20.0021  -52.2888 H         1 UNK         0.3000 
    231 H231       -2.5644  -20.0232  -51.7600 H         1 UNK         0.0600 
    232 H232       -0.9832  -18.4018  -52.8166 H         1 UNK         0.0600 
    233 H233       -2.5166  -17.6561  -52.3999 H         1 UNK         0.0600 
    234 H234       -2.1482  -18.0640  -54.0770 H         1 UNK         0.0600 
    235 H235       -2.8627  -20.5300  -55.2305 H         1 UNK         0.3000 
    236 H236       -2.0879  -21.9517  -56.7075 H         1 UNK         0.0600 
    237 H237       -1.2688  -24.1894  -56.0889 H         1 UNK         0.0600 
    238 H238       -1.0210  -23.6912  -54.4234 H         1 UNK         0.0600 
    239 H239       -2.6508  -23.7626  -55.0911 H         1 UNK         0.0600 
    240 H240        0.4110  -21.5376  -54.2120 H         1 UNK         0.3000 
    241 H241        2.5545  -21.0309  -54.2015 H         1 UNK         0.0600 
    242 H242        3.3682  -24.1179  -56.3519 H         1 UNK         0.3800 
    243 H243        1.8341  -23.6886  -55.6399 H         1 UNK         0.3800 
    244 H244        2.1584  -19.6775  -56.9066 H         1 UNK         0.0800 
    245 H245        3.4920  -19.3946  -55.8259 H         1 UNK         0.0800 
    246 H246        3.3804  -18.6786  -53.5300 H         1 UNK         0.0800 
    247 H247        2.9718  -16.9923  -53.7131 H         1 UNK         0.0800 
@<TRIPOS>BOND
     1    1    2 1    
     2    1  127 1    
     3    1  128 1    
     4    1  129 1    
     5    2    3 2    
     6    2    4 am   BACKBONE|DICT|INTERRES
     7    4    5 1    
     8    4  130 1    
     9    5    6 1    
    10    5   65 1    
    11    5  131 1    
    12    6    7 1    
    13    6  132 1    
    14    6  133 1    
    15    7    8 1    
    16    8    9 1    
    17    8  134 1    
    18    8  135 1    
    19    9   10 ar   
    20    9   14 ar   
    21   10   11 ar   
    22   10  136 1    
    23   11   12 ar   
    24   11  126 1    
    25   12   13 ar   
    26   12  137 1    
    27   13   14 ar   
    28   13   15 1    
    29   14  138 1    
    30   15   16 1    
    31   15  139 1    
    32   15  140 1    
    33   16   17 1    
    34   17   18 1    
    35   17  141 1    
    36   17  142 1    
    37   18   19 1    
    38   18   67 1    
    39   18  143 1    
    40   19   20 am   BACKBONE|DICT|INTERRES
    41   19  144 1    
    42   20   21 2    
    43   20   22 1    
    44   22   23 1    
    45   22   24 1    
    46   22  145 1    
    47   23  146 1    
    48   23  147 1    
    49   23  148 1    
    50   24   25 am   BACKBONE|DICT|INTERRES
    51   24  149 1    
    52   25   26 2    
    53   25   27 1    
    54   27   28 1    
    55   27   29 1    
    56   27  150 1    
    57   28  151 1    
    58   28  152 1    
    59   28  153 1    
    60   29   30 am   BACKBONE|DICT|INTERRES
    61   29  154 1    
    62   30   31 2    
    63   30   32 1    
    64   32   33 1    
    65   32   34 1    
    66   32  155 1    
    67   33  156 1    
    68   33  157 1    
    69   33  158 1    
    70   34   35 am   BACKBONE|DICT|INTERRES
    71   34  159 1    
    72   35   36 2    
    73   35   37 1    
    74   37   38 1    
    75   37   39 1    
    76   37  160 1    
    77   38  161 1    
    78   38  162 1    
    79   38  163 1    
    80   39   40 am   BACKBONE|DICT|INTERRES
    81   39  164 1    
    82   40   41 2    
    83   40   42 1    
    84   42   43 1    
    85   42   44 1    
    86   42  165 1    
    87   43  166 1    
    88   43  167 1    
    89   43  168 1    
    90   44   45 am   BACKBONE|DICT|INTERRES
    91   44  169 1    
    92   45   46 2    
    93   45   47 1    
    94   47   48 1    
    95   47   49 1    
    96   47  170 1    
    97   48  171 1    
    98   48  172 1    
    99   48  173 1    
   100   49   50 am   BACKBONE|DICT|INTERRES
   101   49  174 1    
   102   50   51 2    
   103   50   52 1    
   104   52   53 1    
   105   52   54 1    
   106   52  175 1    
   107   53  176 1    
   108   53  177 1    
   109   53  178 1    
   110   54   55 am   BACKBONE|DICT|INTERRES
   111   54  179 1    
   112   55   56 2    
   113   55   57 1    
   114   57   58 1    
   115   57   59 1    
   116   57  180 1    
   117   58  181 1    
   118   58  182 1    
   119   58  183 1    
   120   59   60 am   BACKBONE|DICT|INTERRES
   121   59  184 1    
   122   60   61 2    
   123   60   62 1    
   124   62   63 1    
   125   62   64 1    
   126   62  185 1    
   127   63  186 1    
   128   63  187 1    
   129   63  188 1    
   130   64   65 am   BACKBONE|DICT|INTERRES
   131   64  189 1    
   132   65   66 2    
   133   67   68 2    
   134   67   69 am   BACKBONE|DICT|INTERRES
   135   69   70 1    
   136   69  190 1    
   137   70   71 1    
   138   70   72 1    
   139   70  191 1    
   140   71  192 1    
   141   71  193 1    
   142   71  194 1    
   143   72   73 2    
   144   72   74 am   BACKBONE|DICT|INTERRES
   145   74   75 1    
   146   74  195 1    
   147   75   76 1    
   148   75   77 1    
   149   75  196 1    
   150   76  197 1    
   151   76  198 1    
   152   76  199 1    
   153   77   78 2    
   154   77   79 am   BACKBONE|DICT|INTERRES
   155   79   80 1    
   156   79  200 1    
   157   80   81 1    
   158   80   82 1    
   159   80  201 1    
   160   81  202 1    
   161   81  203 1    
   162   81  204 1    
   163   82   83 2    
   164   82   84 am   BACKBONE|DICT|INTERRES
   165   84   85 1    
   166   84  205 1    
   167   85   86 1    
   168   85   87 1    
   169   85  206 1    
   170   86  207 1    
   171   86  208 1    
   172   86  209 1    
   173   87   88 2    
   174   87   89 am   BACKBONE|DICT|INTERRES
   175   89   90 1    
   176   89  210 1    
   177   90   91 1    
   178   90   92 1    
   179   90  211 1    
   180   91  212 1    
   181   91  213 1    
   182   91  214 1    
   183   92   93 2    
   184   92   94 am   BACKBONE|DICT|INTERRES
   185   94   95 1    
   186   94  215 1    
   187   95   96 1    
   188   95   97 1    
   189   95  216 1    
   190   96  217 1    
   191   96  218 1    
   192   96  219 1    
   193   97   98 2    
   194   97   99 am   BACKBONE|DICT|INTERRES
   195   99  100 1    
   196   99  220 1    
   197  100  101 1    
   198  100  102 1    
   199  100  221 1    
   200  101  222 1    
   201  101  223 1    
   202  101  224 1    
   203  102  103 2    
   204  102  104 am   BACKBONE|DICT|INTERRES
   205  104  105 1    
   206  104  225 1    
   207  105  106 1    
   208  105  107 1    
   209  105  226 1    
   210  106  227 1    
   211  106  228 1    
   212  106  229 1    
   213  107  108 2    
   214  107  109 am   BACKBONE|DICT|INTERRES
   215  109  110 1    
   216  109  230 1    
   217  110  111 1    
   218  110  112 1    
   219  110  231 1    
   220  111  232 1    
   221  111  233 1    
   222  111  234 1    
   223  112  113 2    
   224  112  114 am   BACKBONE|DICT|INTERRES
   225  114  115 1    
   226  114  235 1    
   227  115  116 1    
   228  115  117 1    
   229  115  236 1    
   230  116  237 1    
   231  116  238 1    
   232  116  239 1    
   233  117  118 2    
   234  117  119 am   BACKBONE|DICT|INTERRES
   235  119  120 1    
   236  119  240 1    
   237  120  121 1    
   238  120  124 1    
   239  120  241 1    
   240  121  122 am   BACKBONE|DICT|INTERRES
   241  121  123 2    
   242  122  242 1    
   243  122  243 1    
   244  124  125 1    
   245  124  244 1    
   246  124  245 1    
   247  125  126 1    
   248  126  246 1    
   249  126  247 1    
@<TRIPOS>SUBSTRUCTURE
     1 UNK         1 GROUP             0       ****    0 ROOT    
