@<TRIPOS>MOLECULE
3R540
247   249    1
SMALL
USER_CHARGES


@<TRIPOS>ATOM
      1 CA          2.5061  -15.7547  -49.1196 C.3       0 UNK        -0.1800 
      2 C           1.3390  -15.9899  -48.1750 C.2       0 UNK         0.5000 
      3 O           1.3681  -15.5237  -47.0349 O.2       0 UNK        -0.5000 
      4 N           0.3135  -16.7171  -48.6340 N.am      1 UNK        -0.5000 
      5 CA         -0.8921  -16.9938  -47.8504 C.3       1 UNK         0.1400 
      6 C6         -1.5119  -18.3749  -48.1520 C.3       23 UNK        -0.0398 
      7 S7         -1.9592  -18.6747  -49.8896 S.3       23 UNK        -0.2404 
      8 C8         -0.8920  -20.0823  -50.3147 C.3       23 UNK        -0.0205 
      9 C9          0.4618  -19.6224  -50.8267 C.ar      23 UNK        -0.0193 
     10 C10         0.5661  -19.1395  -52.1312 C.ar      23 UNK        -0.1150 
     11 C11         1.7943  -18.7189  -52.6421 C.ar      23 UNK        -0.0193 
     12 C12         2.9360  -18.8196  -51.8406 C.ar      23 UNK        -0.1150 
     13 C13         2.8471  -19.2820  -50.5235 C.ar      23 UNK        -0.0193 
     14 C14         1.6019  -19.6793  -50.0191 C.ar      23 UNK        -0.1150 
     15 C15         4.0939  -19.2875  -49.6470 C.3       23 UNK        -0.0205 
     16 S16         4.6049  -20.9625  -49.1461 S.3       23 UNK        -0.2404 
     17 C17         3.9773  -20.9776  -47.4351 C.3       23 UNK        -0.0398 
     18 CA          3.9303  -22.3634  -46.7511 C.3       11 UNK         0.1400 
     19 N           3.4429  -22.2426  -45.3738 N.am      11 UNK        -0.5000 
     20 C           3.7682  -23.0701  -44.3721 C.2       10 UNK         0.5000 
     21 O           4.5576  -24.0083  -44.4835 O.2       10 UNK        -0.5000 
     22 CA          3.0898  -22.8050  -43.0215 C.3       10 UNK         0.1400 
     23 CB          3.5192  -21.4435  -42.4386 C.3       10 UNK        -0.1800 
     24 N           1.6377  -22.8861  -43.1636 N.am      10 UNK        -0.5000 
     25 C           0.7654  -23.0189  -42.1576 C.2       9 UNK         0.5000 
     26 O           1.0898  -23.0545  -40.9693 O.2       9 UNK        -0.5000 
     27 CA         -0.7185  -23.0714  -42.5607 C.3       9 UNK         0.1400 
     28 CB         -1.6827  -23.1369  -41.3621 C.3       9 UNK        -0.1800 
     29 N          -1.0142  -21.8871  -43.3582 N.am      9 UNK        -0.5000 
     30 C          -1.7338  -21.8530  -44.4838 C.2       8 UNK         0.5000 
     31 O          -2.3249  -22.8217  -44.9605 O.2       8 UNK        -0.5000 
     32 CA         -1.8271  -20.4988  -45.2072 C.3       8 UNK         0.1400 
     33 CB         -3.1996  -19.8626  -44.9371 C.3       8 UNK        -0.1800 
     34 N          -0.7853  -19.5414  -44.8266 N.am      8 UNK        -0.5000 
     35 C           0.5241  -19.6317  -45.0916 C.2       7 UNK         0.5000 
     36 O           1.0254  -20.5780  -45.7052 O.2       7 UNK        -0.5000 
     37 CA          1.4219  -18.4841  -44.5656 C.3       7 UNK         0.1400 
     38 CB          2.7469  -18.3754  -45.3360 C.3       7 UNK        -0.1800 
     39 N           0.7900  -17.1602  -44.5526 N.am      7 UNK        -0.5000 
     40 C          -0.1319  -16.7346  -43.6786 C.2       6 UNK         0.5000 
     41 O          -0.6662  -17.4749  -42.8509 O.2       6 UNK        -0.5000 
     42 CA         -0.5092  -15.2404  -43.7486 C.3       6 UNK         0.1400 
     43 CB         -1.3410  -14.7742  -42.5370 C.3       6 UNK        -0.1800 
     44 N           0.6462  -14.3574  -43.9331 N.am      6 UNK        -0.5000 
     45 C           1.7568  -14.2842  -43.1795 C.2       5 UNK         0.5000 
     46 O           1.9834  -15.0029  -42.2056 O.2       5 UNK        -0.5000 
     47 CA          2.7928  -13.2112  -43.5730 C.3       5 UNK         0.1400 
     48 CB          3.8247  -13.8027  -44.5464 C.3       5 UNK        -0.1800 
     49 N           2.1888  -12.0267  -44.1845 N.am      5 UNK        -0.5000 
     50 C           1.3514  -11.1784  -43.5691 C.2       4 UNK         0.5000 
     51 O           1.1057  -11.2168  -42.3630 O.2       4 UNK        -0.5000 
     52 CA          0.6465  -10.1252  -44.4520 C.3       4 UNK         0.1400 
     53 CB          1.2984   -8.7461  -44.2676 C.3       4 UNK        -0.1800 
     54 N           0.6228  -10.4509  -45.8839 N.am      4 UNK        -0.5000 
     55 C           0.0384  -11.5279  -46.4270 C.2       3 UNK         0.5000 
     56 O          -0.5527  -12.3877  -45.7698 O.2       3 UNK        -0.5000 
     57 CA          0.2241  -11.6987  -47.9454 C.3       3 UNK         0.1400 
     58 CB          1.6828  -12.0694  -48.2577 C.3       3 UNK        -0.1800 
     59 N          -0.6503  -12.7352  -48.4918 N.am      3 UNK        -0.5000 
     60 C          -1.9751  -12.6174  -48.6534 C.2       2 UNK         0.5000 
     61 O          -2.5971  -11.5760  -48.4376 O.2       2 UNK        -0.5000 
     62 CA         -2.7368  -13.8611  -49.1525 C.3       2 UNK         0.1400 
     63 CB         -3.1737  -13.6680  -50.6117 C.3       2 UNK        -0.1800 
     64 N          -1.9468  -15.0927  -49.0279 N.am      2 UNK        -0.5000 
     65 C          -1.9083  -15.8363  -47.9106 C.2       1 UNK         0.5000 
     66 O          -2.6107  -15.6172  -46.9235 O.2       1 UNK        -0.5000 
     67 C           3.0474  -23.3748  -47.5037 C.2       11 UNK         0.5000 
     68 O           3.5627  -24.3251  -48.0951 O.2       11 UNK        -0.5000 
     69 N           1.7294  -23.1763  -47.4008 N.am      12 UNK        -0.5000 
     70 CA          0.7093  -24.1505  -47.7698 C.3       12 UNK         0.1400 
     71 CB         -0.3715  -23.4295  -48.5880 C.3       12 UNK        -0.1800 
     72 C           0.1141  -24.7552  -46.4874 C.2       12 UNK         0.5000 
     73 O           0.4510  -24.3128  -45.3866 O.2       12 UNK        -0.5000 
     74 N          -0.7790  -25.7339  -46.6549 N.am      13 UNK        -0.5000 
     75 CA         -1.6390  -26.2646  -45.6021 C.3       13 UNK         0.1400 
     76 CB         -1.3645  -27.7654  -45.4211 C.3       13 UNK        -0.1800 
     77 C          -3.0862  -26.0162  -46.0421 C.2       13 UNK         0.5000 
     78 O          -3.4411  -26.3884  -47.1629 O.2       13 UNK        -0.5000 
     79 N          -3.8725  -25.3475  -45.1874 N.am      14 UNK        -0.5000 
     80 CA         -5.2567  -24.9075  -45.4157 C.3       14 UNK         0.1400 
     81 CB         -6.2086  -26.1220  -45.4074 C.3       14 UNK        -0.1800 
     82 C          -5.4176  -24.0362  -46.6833 C.2       14 UNK         0.5000 
     83 O          -6.4016  -24.1829  -47.4104 O.2       14 UNK        -0.5000 
     84 N          -4.4064  -23.1973  -46.9647 N.am      15 UNK        -0.5000 
     85 CA         -4.2406  -22.3895  -48.1843 C.3       15 UNK         0.1400 
     86 CB         -5.2634  -21.2350  -48.2212 C.3       15 UNK        -0.1800 
     87 C          -4.2491  -23.2316  -49.4838 C.2       15 UNK         0.5000 
     88 O          -4.6829  -22.7493  -50.5296 O.2       15 UNK        -0.5000 
     89 N          -3.7941  -24.4906  -49.3780 N.am      16 UNK        -0.5000 
     90 CA         -3.7886  -25.5364  -50.4065 C.3       16 UNK         0.1400 
     91 CB         -2.9324  -25.1249  -51.6231 C.3       16 UNK        -0.1800 
     92 C          -5.2030  -26.0190  -50.7968 C.2       16 UNK         0.5000 
     93 O          -5.3715  -26.5851  -51.8780 O.2       16 UNK        -0.5000 
     94 N          -6.1879  -25.7980  -49.9089 N.am      17 UNK        -0.5000 
     95 CA         -7.6147  -26.1049  -50.0639 C.3       17 UNK         0.1400 
     96 CB         -7.8488  -27.6298  -50.0795 C.3       17 UNK        -0.1800 
     97 C          -8.2524  -25.3763  -51.2669 C.2       17 UNK         0.5000 
     98 O          -9.1023  -25.9388  -51.9605 O.2       17 UNK        -0.5000 
     99 N          -7.8141  -24.1348  -51.4958 N.am      18 UNK        -0.5000 
    100 CA        -8.2119  -23.2712  -52.6000 C.3       18 UNK         0.1400 
    101 CB        -7.2893  -23.5453  -53.8042 C.3       18 UNK        -0.1800 
    102 C         -8.1468  -21.8051  -52.1403 C.2       18 UNK         0.5000 
    103 O         -7.9031  -21.5359  -50.9603 O.2       18 UNK        -0.5000 
    104 N         -8.3719  -20.8764  -53.0783 N.am      19 UNK        -0.5000 
    105 CA        -8.1902  -19.4394  -52.8737 C.3       19 UNK         0.1400 
    106 CB        -8.7473  -18.6828  -54.0894 C.3       19 UNK        -0.1800 
    107 C         -6.7057  -19.0915  -52.6496 C.2       19 UNK         0.5000 
    108 O         -5.8354  -19.6714  -53.3048 O.2       19 UNK        -0.5000 
    109 N         -6.4515  -18.1518  -51.7324 N.am      20 UNK        -0.5000 
    110 CA        -5.1126  -17.6935  -51.3660 C.3       20 UNK         0.1400 
    111 CB        -5.2156  -16.8789  -50.0673 C.3       20 UNK        -0.1800 
    112 C         -4.4362  -16.8770  -52.4866 C.2       20 UNK         0.5000 
    113 O         -5.1264  -16.2887  -53.3237 O.2       20 UNK        -0.5000 
    114 N         -3.0995  -16.8360  -52.4669 N.am      21 UNK        -0.5000 
    115 CA        -2.2647  -16.1606  -53.4568 C.3       21 UNK         0.1400 
    116 CB        -2.0515  -17.0950  -54.6644 C.3       21 UNK        -0.1800 
    117 C         -0.9383  -15.6988  -52.8259 C.2       21 UNK         0.5000 
    118 O         -0.7191  -15.8994  -51.6261 O.2       21 UNK        -0.5000 
    119 N         -0.0965  -15.0602  -53.6517 N.am      22 UNK        -0.5000 
    120 CA         1.2205  -14.4884  -53.3075 C.3       22 UNK         0.1400 
    121 C          1.1734  -13.2470  -52.3639 C.2       22 UNK         0.5000 
    122 N          0.0337  -12.5923  -52.1852 N.am      22 UNK        -0.7600 
    123 O          2.1950  -12.8342  -51.8236 O.2       22 UNK        -0.5000 
    124 C124        2.2457  -15.5601  -52.8423 C.3       23 UNK        -0.0398 
    125 S125        2.8498  -16.6180  -54.2053 S.3       23 UNK        -0.2404 
    126 C126        1.8590  -18.1445  -54.0534 C.3       23 UNK        -0.0205 
    127 H127        3.4453  -15.7495  -48.5667 H         1 UNK         0.0600 
    128 H128        2.3973  -14.7943  -49.6228 H         1 UNK         0.0600 
    129 H129        2.5662  -16.5360  -49.8746 H         1 UNK         0.0600 
    130 H130        0.3118  -17.0609  -49.5866 H         1 UNK         0.3000 
    131 H131       -0.5998  -17.0490  -46.8025 H         1 UNK         0.0600 
    132 H132       -0.8093  -19.1425  -47.8291 H         1 UNK         0.0800 
    133 H133       -2.4090  -18.5253  -47.5520 H         1 UNK         0.0800 
    134 H134       -0.7826  -20.7425  -49.4562 H         1 UNK         0.0800 
    135 H135       -1.3861  -20.6736  -51.0873 H         1 UNK         0.0800 
    136 H136       -0.3217  -19.0815  -52.7433 H         1 UNK         0.1150 
    137 H137        3.8905  -18.4999  -52.2341 H         1 UNK         0.1150 
    138 H138        1.5145  -20.0337  -49.0034 H         1 UNK         0.1150 
    139 H139        4.9300  -18.8278  -50.1762 H         1 UNK         0.0800 
    140 H140        3.9209  -18.6608  -48.7710 H         1 UNK         0.0800 
    141 H141        2.9900  -20.5198  -47.4208 H         1 UNK         0.0800 
    142 H142        4.6250  -20.3183  -46.8564 H         1 UNK         0.0800 
    143 H143        4.9488  -22.7580  -46.7342 H         1 UNK         0.0600 
    144 H144        2.7349  -21.5350  -45.2164 H         1 UNK         0.3000 
    145 H145        3.4121  -23.5916  -42.3358 H         1 UNK         0.0600 
    146 H146        3.1539  -21.3120  -41.4203 H         1 UNK         0.0600 
    147 H147        4.6061  -21.3602  -42.4019 H         1 UNK         0.0600 
    148 H148        3.1462  -20.6118  -43.0347 H         1 UNK         0.0600 
    149 H149        1.2823  -22.9988  -44.1096 H         1 UNK         0.3000 
    150 H150       -0.8560  -23.9749  -43.1554 H         1 UNK         0.0600 
    151 H151       -1.4877  -24.0187  -40.7506 H         1 UNK         0.0600 
    152 H152       -2.7190  -23.1952  -41.6953 H         1 UNK         0.0600 
    153 H153       -1.5866  -22.2603  -40.7203 H         1 UNK         0.0600 
    154 H154       -0.5637  -21.0350  -43.0574 H         1 UNK         0.3000 
    155 H155       -1.7364  -20.7010  -46.2753 H         1 UNK         0.0600 
    156 H156       -4.0078  -20.5291  -45.2400 H         1 UNK         0.0600 
    157 H157       -3.3270  -18.9274  -45.4809 H         1 UNK         0.0600 
    158 H158       -3.3368  -19.6476  -43.8765 H         1 UNK         0.0600 
    159 H159       -1.0751  -18.7696  -44.2341 H         1 UNK         0.3000 
    160 H160        1.6658  -18.7356  -43.5318 H         1 UNK         0.0600 
    161 H161        3.3412  -17.5309  -44.9859 H         1 UNK         0.0600 
    162 H162        2.5815  -18.2462  -46.4062 H         1 UNK         0.0600 
    163 H163        3.3528  -19.2683  -45.1910 H         1 UNK         0.0600 
    164 H164        1.1373  -16.4939  -45.2362 H         1 UNK         0.3000 
    165 H165       -1.1272  -15.1222  -44.6394 H         1 UNK         0.0600 
    166 H166       -1.6160  -13.7235  -42.6316 H         1 UNK         0.0600 
    167 H167       -2.2667  -15.3448  -42.4531 H         1 UNK         0.0600 
    168 H168       -0.7936  -14.8944  -41.6016 H         1 UNK         0.0600 
    169 H169        0.5460  -13.6991  -44.6990 H         1 UNK         0.3000 
    170 H170        3.3118  -12.8976  -42.6650 H         1 UNK         0.0600 
    171 H171        4.3119  -14.6779  -44.1142 H         1 UNK         0.0600 
    172 H172        3.3613  -14.1161  -45.4832 H         1 UNK         0.0600 
    173 H173        4.6060  -13.0800  -44.7823 H         1 UNK         0.0600 
    174 H174        2.3422  -11.9030  -45.1736 H         1 UNK         0.3000 
    175 H175       -0.3891  -10.0630  -44.1114 H         1 UNK         0.0600 
    176 H176        2.3318   -8.7402  -44.6165 H         1 UNK         0.0600 
    177 H177        0.7540   -7.9751  -44.8132 H         1 UNK         0.0600 
    178 H178        1.3053   -8.4534  -43.2167 H         1 UNK         0.0600 
    179 H179        1.1014   -9.8011  -46.4913 H         1 UNK         0.3000 
    180 H180       -0.0129  -10.7511  -48.4335 H         1 UNK         0.0600 
    181 H181        1.8271  -12.2362  -49.3233 H         1 UNK         0.0600 
    182 H182        1.9929  -12.9725  -47.7317 H         1 UNK         0.0600 
    183 H183        2.3665  -11.2716  -47.9658 H         1 UNK         0.0600 
    184 H184       -0.2349  -13.6403  -48.6471 H         1 UNK         0.3000 
    185 H185       -3.6430  -13.9474  -48.5492 H         1 UNK         0.0600 
    186 H186       -2.3198  -13.6007  -51.2812 H         1 UNK         0.0600 
    187 H187       -3.8027  -14.4880  -50.9491 H         1 UNK         0.0600 
    188 H188       -3.7545  -12.7523  -50.7297 H         1 UNK         0.0600 
    189 H189       -1.3702  -15.3535  -49.8234 H         1 UNK         0.3000 
    190 H190        1.4041  -22.4020  -46.8341 H         1 UNK         0.3000 
    191 H191        1.1327  -24.9583  -48.3700 H         1 UNK         0.0600 
    192 H192       -0.8782  -22.6656  -47.9973 H         1 UNK         0.0600 
    193 H193        0.0618  -22.9521  -49.4669 H         1 UNK         0.0600 
    194 H194       -1.1240  -24.1300  -48.9460 H         1 UNK         0.0600 
    195 H195       -1.0229  -26.0291  -47.5900 H         1 UNK         0.3000 
    196 H196       -1.4615  -25.7592  -44.6512 H         1 UNK         0.0600 
    197 H197       -0.3321  -27.9404  -45.1179 H         1 UNK         0.0600 
    198 H198       -1.5420  -28.3241  -46.3410 H         1 UNK         0.0600 
    199 H199       -2.0080  -28.1886  -44.6489 H         1 UNK         0.0600 
    200 H200       -3.4554  -25.0104  -44.3306 H         1 UNK         0.3000 
    201 H201       -5.5225  -24.2685  -44.5725 H         1 UNK         0.0600 
    202 H202       -7.2510  -25.8042  -45.4507 H         1 UNK         0.0600 
    203 H203       -6.0882  -26.7108  -44.4982 H         1 UNK         0.0600 
    204 H204       -6.0316  -26.7802  -46.2589 H         1 UNK         0.0600 
    205 H205       -3.6403  -23.1539  -46.2956 H         1 UNK         0.3000 
    206 H206       -3.2479  -21.9427  -48.1220 H         1 UNK         0.0600 
    207 H207       -5.2368  -20.6490  -47.3036 H         1 UNK         0.0600 
    208 H208       -6.2814  -21.6024  -48.3556 H         1 UNK         0.0600 
    209 H209       -5.0535  -20.5517  -49.0455 H         1 UNK         0.0600 
    210 H210       -3.5408  -24.8250  -48.4547 H         1 UNK         0.3000 
    211 H211       -3.3020  -26.3980  -49.9475 H         1 UNK         0.0600 
    212 H212       -1.9479  -24.7736  -51.3146 H         1 UNK         0.0600 
    213 H213       -2.7777  -25.9702  -52.2944 H         1 UNK         0.0600 
    214 H214       -3.4055  -24.3332  -52.2045 H         1 UNK         0.0600 
    215 H215       -5.9571  -25.2982  -49.0565 H         1 UNK         0.3000 
    216 H216       -8.1074  -25.7074  -49.1754 H         1 UNK         0.0600 
    217 H217       -8.9141  -27.8616  -50.0568 H         1 UNK         0.0600 
    218 H218       -7.4323  -28.0956  -50.9730 H         1 UNK         0.0600 
    219 H219       -7.3958  -28.1061  -49.2100 H         1 UNK         0.0600 
    220 H220       -7.1526  -23.7142  -50.8541 H         1 UNK         0.3000 
    221 H221       -9.2468  -23.4816  -52.8773 H         1 UNK         0.0600 
    222 H222       -6.2548  -23.2802  -53.5801 H         1 UNK         0.0600 
    223 H223       -7.3080  -24.5988  -54.0844 H         1 UNK         0.0600 
    224 H224       -7.5944  -22.9764  -54.6826 H         1 UNK         0.0600 
    225 H225       -8.5442  -21.1733  -54.0273 H         1 UNK         0.3000 
    226 H226       -8.7622  -19.1464  -51.9906 H         1 UNK         0.0600 
    227 H227       -9.8073  -18.8922  -54.2342 H         1 UNK         0.0600 
    228 H228       -8.6439  -17.6048  -53.9581 H         1 UNK         0.0600 
    229 H229       -8.2219  -18.9524  -55.0065 H         1 UNK         0.0600 
    230 H230       -7.2231  -17.6975  -51.2669 H         1 UNK         0.3000 
    231 H231       -4.5078  -18.5815  -51.1762 H         1 UNK         0.0600 
    232 H232       -4.2303  -16.5726  -49.7200 H         1 UNK         0.0600 
    233 H233       -5.6663  -17.4662  -49.2670 H         1 UNK         0.0600 
    234 H234       -5.8128  -15.9763  -50.2026 H         1 UNK         0.0600 
    235 H235       -2.5876  -17.2714  -51.7079 H         1 UNK         0.3000 
    236 H236       -2.7749  -15.2563  -53.7950 H         1 UNK         0.0600 
    237 H237       -1.4210  -16.6385  -55.4277 H         1 UNK         0.0600 
    238 H238       -1.5862  -18.0343  -54.3686 H         1 UNK         0.0600 
    239 H239       -3.0008  -17.3371  -55.1426 H         1 UNK         0.0600 
    240 H240       -0.3750  -14.9290  -54.6133 H         1 UNK         0.3000 
    241 H241        1.6000  -14.0722  -54.2413 H         1 UNK         0.0600 
    242 H242       -0.8011  -12.8761  -52.6692 H         1 UNK         0.3800 
    243 H243        0.0247  -11.7741  -51.5985 H         1 UNK         0.3800 
    244 H244        3.1389  -15.0938  -52.4247 H         1 UNK         0.0800 
    245 H245        1.8325  -16.1591  -52.0343 H         1 UNK         0.0800 
    246 H246        0.8568  -17.9294  -54.4241 H         1 UNK         0.0800 
    247 H247        2.2760  -18.9009  -54.7191 H         1 UNK         0.0800 
@<TRIPOS>BOND
     1    1    2 1    
     2    1  127 1    
     3    1  128 1    
     4    1  129 1    
     5    2    3 2    
     6    2    4 am   BACKBONE|DICT|INTERRES
     7    4    5 1    
     8    4  130 1    
     9    5    6 1    
    10    5   65 1    
    11    5  131 1    
    12    6    7 1    
    13    6  132 1    
    14    6  133 1    
    15    7    8 1    
    16    8    9 1    
    17    8  134 1    
    18    8  135 1    
    19    9   10 ar   
    20    9   14 ar   
    21   10   11 ar   
    22   10  136 1    
    23   11   12 ar   
    24   11  126 1    
    25   12   13 ar   
    26   12  137 1    
    27   13   14 ar   
    28   13   15 1    
    29   14  138 1    
    30   15   16 1    
    31   15  139 1    
    32   15  140 1    
    33   16   17 1    
    34   17   18 1    
    35   17  141 1    
    36   17  142 1    
    37   18   19 1    
    38   18   67 1    
    39   18  143 1    
    40   19   20 am   BACKBONE|DICT|INTERRES
    41   19  144 1    
    42   20   21 2    
    43   20   22 1    
    44   22   23 1    
    45   22   24 1    
    46   22  145 1    
    47   23  146 1    
    48   23  147 1    
    49   23  148 1    
    50   24   25 am   BACKBONE|DICT|INTERRES
    51   24  149 1    
    52   25   26 2    
    53   25   27 1    
    54   27   28 1    
    55   27   29 1    
    56   27  150 1    
    57   28  151 1    
    58   28  152 1    
    59   28  153 1    
    60   29   30 am   BACKBONE|DICT|INTERRES
    61   29  154 1    
    62   30   31 2    
    63   30   32 1    
    64   32   33 1    
    65   32   34 1    
    66   32  155 1    
    67   33  156 1    
    68   33  157 1    
    69   33  158 1    
    70   34   35 am   BACKBONE|DICT|INTERRES
    71   34  159 1    
    72   35   36 2    
    73   35   37 1    
    74   37   38 1    
    75   37   39 1    
    76   37  160 1    
    77   38  161 1    
    78   38  162 1    
    79   38  163 1    
    80   39   40 am   BACKBONE|DICT|INTERRES
    81   39  164 1    
    82   40   41 2    
    83   40   42 1    
    84   42   43 1    
    85   42   44 1    
    86   42  165 1    
    87   43  166 1    
    88   43  167 1    
    89   43  168 1    
    90   44   45 am   BACKBONE|DICT|INTERRES
    91   44  169 1    
    92   45   46 2    
    93   45   47 1    
    94   47   48 1    
    95   47   49 1    
    96   47  170 1    
    97   48  171 1    
    98   48  172 1    
    99   48  173 1    
   100   49   50 am   BACKBONE|DICT|INTERRES
   101   49  174 1    
   102   50   51 2    
   103   50   52 1    
   104   52   53 1    
   105   52   54 1    
   106   52  175 1    
   107   53  176 1    
   108   53  177 1    
   109   53  178 1    
   110   54   55 am   BACKBONE|DICT|INTERRES
   111   54  179 1    
   112   55   56 2    
   113   55   57 1    
   114   57   58 1    
   115   57   59 1    
   116   57  180 1    
   117   58  181 1    
   118   58  182 1    
   119   58  183 1    
   120   59   60 am   BACKBONE|DICT|INTERRES
   121   59  184 1    
   122   60   61 2    
   123   60   62 1    
   124   62   63 1    
   125   62   64 1    
   126   62  185 1    
   127   63  186 1    
   128   63  187 1    
   129   63  188 1    
   130   64   65 am   BACKBONE|DICT|INTERRES
   131   64  189 1    
   132   65   66 2    
   133   67   68 2    
   134   67   69 am   BACKBONE|DICT|INTERRES
   135   69   70 1    
   136   69  190 1    
   137   70   71 1    
   138   70   72 1    
   139   70  191 1    
   140   71  192 1    
   141   71  193 1    
   142   71  194 1    
   143   72   73 2    
   144   72   74 am   BACKBONE|DICT|INTERRES
   145   74   75 1    
   146   74  195 1    
   147   75   76 1    
   148   75   77 1    
   149   75  196 1    
   150   76  197 1    
   151   76  198 1    
   152   76  199 1    
   153   77   78 2    
   154   77   79 am   BACKBONE|DICT|INTERRES
   155   79   80 1    
   156   79  200 1    
   157   80   81 1    
   158   80   82 1    
   159   80  201 1    
   160   81  202 1    
   161   81  203 1    
   162   81  204 1    
   163   82   83 2    
   164   82   84 am   BACKBONE|DICT|INTERRES
   165   84   85 1    
   166   84  205 1    
   167   85   86 1    
   168   85   87 1    
   169   85  206 1    
   170   86  207 1    
   171   86  208 1    
   172   86  209 1    
   173   87   88 2    
   174   87   89 am   BACKBONE|DICT|INTERRES
   175   89   90 1    
   176   89  210 1    
   177   90   91 1    
   178   90   92 1    
   179   90  211 1    
   180   91  212 1    
   181   91  213 1    
   182   91  214 1    
   183   92   93 2    
   184   92   94 am   BACKBONE|DICT|INTERRES
   185   94   95 1    
   186   94  215 1    
   187   95   96 1    
   188   95   97 1    
   189   95  216 1    
   190   96  217 1    
   191   96  218 1    
   192   96  219 1    
   193   97   98 2    
   194   97   99 am   BACKBONE|DICT|INTERRES
   195   99  100 1    
   196   99  220 1    
   197  100  101 1    
   198  100  102 1    
   199  100  221 1    
   200  101  222 1    
   201  101  223 1    
   202  101  224 1    
   203  102  103 2    
   204  102  104 am   BACKBONE|DICT|INTERRES
   205  104  105 1    
   206  104  225 1    
   207  105  106 1    
   208  105  107 1    
   209  105  226 1    
   210  106  227 1    
   211  106  228 1    
   212  106  229 1    
   213  107  108 2    
   214  107  109 am   BACKBONE|DICT|INTERRES
   215  109  110 1    
   216  109  230 1    
   217  110  111 1    
   218  110  112 1    
   219  110  231 1    
   220  111  232 1    
   221  111  233 1    
   222  111  234 1    
   223  112  113 2    
   224  112  114 am   BACKBONE|DICT|INTERRES
   225  114  115 1    
   226  114  235 1    
   227  115  116 1    
   228  115  117 1    
   229  115  236 1    
   230  116  237 1    
   231  116  238 1    
   232  116  239 1    
   233  117  118 2    
   234  117  119 am   BACKBONE|DICT|INTERRES
   235  119  120 1    
   236  119  240 1    
   237  120  121 1    
   238  120  124 1    
   239  120  241 1    
   240  121  122 am   BACKBONE|DICT|INTERRES
   241  121  123 2    
   242  122  242 1    
   243  122  243 1    
   244  124  125 1    
   245  124  244 1    
   246  124  245 1    
   247  125  126 1    
   248  126  246 1    
   249  126  247 1    
@<TRIPOS>SUBSTRUCTURE
     1 UNK         1 GROUP             0       ****    0 ROOT    
