@<TRIPOS>MOLECULE
3R540
247   249    1
SMALL
USER_CHARGES


@<TRIPOS>ATOM
      1 CA         -1.9577  -13.2892  -49.8410 C.3       0 UNK        -0.1800 
      2 C          -0.4375  -13.2991  -49.7571 C.2       0 UNK         0.5000 
      3 O           0.2205  -12.5141  -50.4403 O.2       0 UNK        -0.5000 
      4 N           0.1183  -14.1884  -48.9254 N.am      1 UNK        -0.5000 
      5 CA          1.5514  -14.3039  -48.6479 C.3       1 UNK         0.1400 
      6 C6          1.8673  -15.6217  -47.8978 C.3       23 UNK        -0.0398 
      7 S7          3.6282  -16.1074  -47.8983 S.3       23 UNK        -0.2404 
      8 C8          3.9918  -16.4464  -49.6565 C.3       23 UNK        -0.0205 
      9 C9          2.9762  -17.3651  -50.3233 C.ar      23 UNK        -0.0193 
     10 C10         2.0253  -16.8344  -51.1993 C.ar      23 UNK        -0.1150 
     11 C11         1.0902  -17.6630  -51.8209 C.ar      23 UNK        -0.0193 
     12 C12         1.1195  -19.0371  -51.5732 C.ar      23 UNK        -0.1150 
     13 C13         2.0619  -19.5887  -50.7000 C.ar      23 UNK        -0.0193 
     14 C14         2.9949  -18.7430  -50.0838 C.ar      23 UNK        -0.1150 
     15 C15         2.0743  -21.1015  -50.4816 C.3       23 UNK        -0.0205 
     16 S16         2.4931  -21.6206  -48.7845 S.3       23 UNK        -0.2404 
     17 C17         1.0567  -21.0377  -47.8226 C.3       23 UNK        -0.0398 
     18 CA          0.3616  -22.1990  -47.0600 C.3       11 UNK         0.1400 
     19 N           0.0524  -21.8614  -45.6679 N.am      11 UNK        -0.5000 
     20 C          -0.3297  -22.7488  -44.7379 C.2       10 UNK         0.5000 
     21 O          -0.4282  -23.9573  -44.9485 O.2       10 UNK        -0.5000 
     22 CA         -0.7195  -22.1899  -43.3575 C.3       10 UNK         0.1400 
     23 CB          0.5246  -21.9123  -42.5010 C.3       10 UNK        -0.1800 
     24 N          -1.5368  -20.9804  -43.4600 N.am      10 UNK        -0.5000 
     25 C          -2.7647  -20.9495  -43.9972 C.2       9 UNK         0.5000 
     26 O          -3.3587  -21.9535  -44.3918 O.2       9 UNK        -0.5000 
     27 CA         -3.4201  -19.5656  -44.1658 C.3       9 UNK         0.1400 
     28 CB         -4.0767  -19.1073  -42.8555 C.3       9 UNK        -0.1800 
     29 N          -2.4821  -18.5417  -44.6303 N.am      9 UNK        -0.5000 
     30 C          -1.8502  -18.5658  -45.8128 C.2       8 UNK         0.5000 
     31 O          -2.0145  -19.4423  -46.6589 O.2       8 UNK        -0.5000 
     32 CA         -0.8153  -17.4561  -46.0711 C.3       8 UNK         0.1400 
     33 CB         -1.5104  -16.1410  -46.4604 C.3       8 UNK        -0.1800 
     34 N           0.0640  -17.2377  -44.9205 N.am      8 UNK        -0.5000 
     35 C           0.8778  -18.1689  -44.3996 C.2       7 UNK         0.5000 
     36 O           1.0205  -19.2934  -44.8739 O.2       7 UNK        -0.5000 
     37 CA          1.6022  -17.8146  -43.0914 C.3       7 UNK         0.1400 
     38 CB          2.8809  -17.0097  -43.3643 C.3       7 UNK        -0.1800 
     39 N           0.7280  -17.0852  -42.1736 N.am      7 UNK        -0.5000 
     40 C          -0.3280  -17.6295  -41.5505 C.2       6 UNK         0.5000 
     41 O          -0.6352  -18.8178  -41.6393 O.2       6 UNK        -0.5000 
     42 CA         -1.2141  -16.6749  -40.7290 C.3       6 UNK         0.1400 
     43 CB         -0.6460  -16.4933  -39.3138 C.3       6 UNK        -0.1800 
     44 N          -1.3586  -15.3645  -41.3650 N.am      6 UNK        -0.5000 
     45 C          -1.9953  -15.1488  -42.5257 C.2       5 UNK         0.5000 
     46 O          -2.5963  -16.0257  -43.1448 O.2       5 UNK        -0.5000 
     47 CA         -1.8860  -13.7298  -43.1195 C.3       5 UNK         0.1400 
     48 CB         -3.0129  -12.8318  -42.5888 C.3       5 UNK        -0.1800 
     49 N          -0.5884  -13.1070  -42.8366 N.am      5 UNK        -0.5000 
     50 C           0.5760  -13.5534  -43.3249 C.2       4 UNK         0.5000 
     51 O           0.6646  -14.4812  -44.1336 O.2       4 UNK        -0.5000 
     52 CA          1.8488  -12.9312  -42.7350 C.3       4 UNK         0.1400 
     53 CB          2.1251  -13.5685  -41.3539 C.3       4 UNK        -0.1800 
     54 N           2.9543  -13.1626  -43.6632 N.am      4 UNK        -0.5000 
     55 C           4.2375  -12.8169  -43.4963 C.2       3 UNK         0.5000 
     56 O           4.6750  -12.2281  -42.5071 O.2       3 UNK        -0.5000 
     57 CA          5.1972  -13.1613  -44.6509 C.3       3 UNK         0.1400 
     58 CB          5.5453  -14.6580  -44.6559 C.3       3 UNK        -0.1800 
     59 N           4.6695  -12.7839  -45.9615 N.am      3 UNK        -0.5000 
     60 C           4.4255  -11.5258  -46.3569 C.2       2 UNK         0.5000 
     61 O           4.6531  -10.5339  -45.6631 O.2       2 UNK        -0.5000 
     62 CA          3.8412  -11.3327  -47.7698 C.3       2 UNK         0.1400 
     63 CB          4.9331  -10.8579  -48.7414 C.3       2 UNK        -0.1800 
     64 N           3.2109  -12.5334  -48.3228 N.am      2 UNK        -0.5000 
     65 C           2.0622  -13.0649  -47.8853 C.2       1 UNK         0.5000 
     66 O           1.4233  -12.6264  -46.9264 O.2       1 UNK        -0.5000 
     67 C          -0.8768  -22.7313  -47.8103 C.2       11 UNK         0.5000 
     68 O          -0.7564  -23.7027  -48.5539 O.2       11 UNK        -0.5000 
     69 N          -2.0503  -22.1309  -47.5605 N.am      12 UNK        -0.5000 
     70 CA         -3.3457  -22.5640  -48.0879 C.3       12 UNK         0.1400 
     71 CB         -4.4364  -21.5480  -47.7101 C.3       12 UNK        -0.1800 
     72 C          -3.7315  -23.9748  -47.6225 C.2       12 UNK         0.5000 
     73 O          -4.1620  -24.7850  -48.4436 O.2       12 UNK        -0.5000 
     74 N          -3.5282  -24.2527  -46.3277 N.am      13 UNK        -0.5000 
     75 CA         -3.7353  -25.5665  -45.7216 C.3       13 UNK         0.1400 
     76 CB         -3.6381  -25.4471  -44.1931 C.3       13 UNK        -0.1800 
     77 C          -2.7560  -26.6282  -46.2564 C.2       13 UNK         0.5000 
     78 O          -3.1772  -27.7521  -46.5307 O.2       13 UNK        -0.5000 
     79 N          -1.4794  -26.2502  -46.4153 N.am      14 UNK        -0.5000 
     80 CA         -0.4176  -27.1046  -46.9495 C.3       14 UNK         0.1400 
     81 CB          0.9465  -26.4357  -46.7210 C.3       14 UNK        -0.1800 
     82 C          -0.6146  -27.4467  -48.4377 C.2       14 UNK         0.5000 
     83 O          -0.4574  -28.6073  -48.8193 O.2       14 UNK        -0.5000 
     84 N          -0.9654  -26.4381  -49.2472 N.am      15 UNK        -0.5000 
     85 CA         -1.2480  -26.5807  -50.6766 C.3       15 UNK         0.1400 
     86 CB         -1.2197  -25.1918  -51.3362 C.3       15 UNK        -0.1800 
     87 C          -2.5967  -27.2661  -50.9610 C.2       15 UNK         0.5000 
     88 O          -2.7569  -27.8504  -52.0333 O.2       15 UNK        -0.5000 
     89 N          -3.5382  -27.1537  -50.0115 N.am      16 UNK        -0.5000 
     90 CA         -4.9500  -27.5360  -50.1026 C.3       16 UNK         0.1400 
     91 CB         -5.1077  -29.0658  -50.2268 C.3       16 UNK        -0.1800 
     92 C          -5.6687  -26.7452  -51.2156 C.2       16 UNK         0.5000 
     93 O          -6.3864  -27.3268  -52.0321 O.2       16 UNK        -0.5000 
     94 N          -5.4243  -25.4292  -51.2412 N.am      17 UNK        -0.5000 
     95 CA         -5.9076  -24.4999  -52.2562 C.3       17 UNK         0.1400 
     96 CB         -4.7335  -24.0886  -53.1597 C.3       17 UNK        -0.1800 
     97 C          -6.5119  -23.2713  -51.5700 C.2       17 UNK         0.5000 
     98 O          -5.9304  -22.7652  -50.6063 O.2       17 UNK        -0.5000 
     99 N          -7.6487  -22.7981  -52.0978 N.am      18 UNK        -0.5000 
    100 CA        -8.3711  -21.6134  -51.6328 C.3       18 UNK         0.1400 
    101 CB        -9.6614  -21.4509  -52.4509 C.3       18 UNK        -0.1800 
    102 C         -7.4962  -20.3522  -51.7280 C.2       18 UNK         0.5000 
    103 O         -7.0237  -20.0201  -52.8185 O.2       18 UNK        -0.5000 
    104 N         -7.2456  -19.7225  -50.5707 N.am      19 UNK        -0.5000 
    105 CA        -6.3541  -18.5720  -50.3691 C.3       19 UNK         0.1400 
    106 CB        -6.9770  -17.2995  -50.9803 C.3       19 UNK        -0.1800 
    107 C         -4.9114  -18.8211  -50.8649 C.2       19 UNK         0.5000 
    108 O         -4.2501  -17.8852  -51.3124 O.2       19 UNK        -0.5000 
    109 N         -4.4781  -20.0930  -50.8355 N.am      20 UNK        -0.5000 
    110 CA        -3.1966  -20.6142  -51.3262 C.3       20 UNK         0.1400 
    111 CB        -2.0364  -20.0887  -50.4590 C.3       20 UNK        -0.1800 
    112 C         -2.9539  -20.3801  -52.8330 C.2       20 UNK         0.5000 
    113 O         -1.8101  -20.4608  -53.2815 O.2       20 UNK        -0.5000 
    114 N         -4.0302  -20.0915  -53.5821 N.am      21 UNK        -0.5000 
    115 CA        -4.0500  -19.6926  -54.9909 C.3       21 UNK         0.1400 
    116 CB        -3.6165  -20.8637  -55.8978 C.3       21 UNK        -0.1800 
    117 C         -3.2748  -18.3847  -55.2784 C.2       21 UNK         0.5000 
    118 O         -2.8050  -18.1943  -56.4022 O.2       21 UNK        -0.5000 
    119 N         -3.1551  -17.5017  -54.2747 N.am      22 UNK        -0.5000 
    120 CA        -2.5372  -16.1728  -54.4049 C.3       22 UNK         0.1400 
    121 C         -3.3358  -15.2306  -55.3510 C.2       22 UNK         0.5000 
    122 N         -2.6562  -14.3788  -56.1072 N.am      22 UNK        -0.7600 
    123 O         -4.5650  -15.2330  -55.3742 O.2       22 UNK        -0.5000 
    124 C124       -2.3384  -15.4853  -53.0284 C.3       23 UNK        -0.0398 
    125 S125       -1.3411  -16.3921  -51.7943 S.3       23 UNK        -0.2404 
    126 C126        0.0476  -17.0670  -52.7522 C.3       23 UNK        -0.0205 
    127 H127       -2.3951  -14.1630  -49.3568 H         1 UNK         0.0600 
    128 H128       -2.2776  -13.2867  -50.8827 H         1 UNK         0.0600 
    129 H129       -2.3541  -12.3951  -49.3597 H         1 UNK         0.0600 
    130 H130       -0.4835  -14.7868  -48.3814 H         1 UNK         0.3000 
    131 H131        2.0496  -14.3301  -49.6171 H         1 UNK         0.0600 
    132 H132        1.5404  -15.5589  -46.8584 H         1 UNK         0.0800 
    133 H133        1.3008  -16.4453  -48.3339 H         1 UNK         0.0800 
    134 H134        4.0650  -15.5020  -50.1971 H         1 UNK         0.0800 
    135 H135        4.9811  -16.9013  -49.7232 H         1 UNK         0.0800 
    136 H136        2.0035  -15.7730  -51.3995 H         1 UNK         0.1150 
    137 H137        0.4045  -19.6786  -52.0678 H         1 UNK         0.1150 
    138 H138        3.7401  -19.1524  -49.4168 H         1 UNK         0.1150 
    139 H139        1.1114  -21.5395  -50.7483 H         1 UNK         0.0800 
    140 H140        2.8062  -21.5356  -51.1636 H         1 UNK         0.0800 
    141 H141        0.3622  -20.4829  -48.4567 H         1 UNK         0.0800 
    142 H142        1.4542  -20.3005  -47.1275 H         1 UNK         0.0800 
    143 H143        1.0625  -23.0341  -46.9974 H         1 UNK         0.0600 
    144 H144        0.1617  -20.8867  -45.3990 H         1 UNK         0.3000 
    145 H145       -1.3145  -22.9512  -42.8485 H         1 UNK         0.0600 
    146 H146        0.2477  -21.5701  -41.5037 H         1 UNK         0.0600 
    147 H147        1.1235  -22.8159  -42.3810 H         1 UNK         0.0600 
    148 H148        1.1644  -21.1527  -42.9490 H         1 UNK         0.0600 
    149 H149       -1.1331  -20.1211  -43.1020 H         1 UNK         0.3000 
    150 H150       -4.2031  -19.6613  -44.9206 H         1 UNK         0.0600 
    151 H151       -4.8068  -19.8393  -42.5081 H         1 UNK         0.0600 
    152 H152       -4.6014  -18.1609  -42.9878 H         1 UNK         0.0600 
    153 H153       -3.3423  -18.9734  -42.0613 H         1 UNK         0.0600 
    154 H154       -2.3282  -17.7502  -44.0122 H         1 UNK         0.3000 
    155 H155       -0.1871  -17.7735  -46.9057 H         1 UNK         0.0600 
    156 H156       -2.2882  -15.8660  -45.7486 H         1 UNK         0.0600 
    157 H157       -0.8075  -15.3106  -46.5058 H         1 UNK         0.0600 
    158 H158       -1.9863  -16.2322  -47.4375 H         1 UNK         0.0600 
    159 H159        0.0495  -16.3149  -44.4978 H         1 UNK         0.3000 
    160 H160        1.8940  -18.7494  -42.6080 H         1 UNK         0.0600 
    161 H161        2.6688  -16.0694  -43.8695 H         1 UNK         0.0600 
    162 H162        3.5632  -17.5725  -44.0025 H         1 UNK         0.0600 
    163 H163        3.4129  -16.7835  -42.4403 H         1 UNK         0.0600 
    164 H164        0.8854  -16.0938  -42.0866 H         1 UNK         0.3000 
    165 H165       -2.2052  -17.1258  -40.6464 H         1 UNK         0.0600 
    166 H166       -1.3032  -15.8756  -38.7016 H         1 UNK         0.0600 
    167 H167       -0.5428  -17.4550  -38.8092 H         1 UNK         0.0600 
    168 H168        0.3384  -16.0236  -39.3299 H         1 UNK         0.0600 
    169 H169       -0.9081  -14.5849  -40.9106 H         1 UNK         0.3000 
    170 H170       -1.9954  -13.8130  -44.2029 H         1 UNK         0.0600 
    171 H171       -3.9905  -13.2650  -42.8049 H         1 UNK         0.0600 
    172 H172       -2.9460  -12.6941  -41.5089 H         1 UNK         0.0600 
    173 H173       -2.9849  -11.8472  -43.0559 H         1 UNK         0.0600 
    174 H174       -0.5880  -12.3411  -42.1781 H         1 UNK         0.3000 
    175 H175        1.6993  -11.8553  -42.6289 H         1 UNK         0.0600 
    176 H176        2.4127  -14.6161  -41.4436 H         1 UNK         0.0600 
    177 H177        2.9222  -13.0510  -40.8215 H         1 UNK         0.0600 
    178 H178        1.2475  -13.5223  -40.7082 H         1 UNK         0.0600 
    179 H179        2.6709  -13.6208  -44.5207 H         1 UNK         0.3000 
    180 H180        6.1211  -12.6020  -44.4885 H         1 UNK         0.0600 
    181 H181        4.6857  -15.2718  -44.9238 H         1 UNK         0.0600 
    182 H182        5.8925  -14.9850  -43.6749 H         1 UNK         0.0600 
    183 H183        6.3404  -14.8731  -45.3700 H         1 UNK         0.0600 
    184 H184        4.4622  -13.5346  -46.6034 H         1 UNK         0.3000 
    185 H185        3.0809  -10.5516  -47.7025 H         1 UNK         0.0600 
    186 H186        5.4066   -9.9433  -48.3819 H         1 UNK         0.0600 
    187 H187        5.7168  -11.6068  -48.8632 H         1 UNK         0.0600 
    188 H188        4.5186  -10.6405  -49.7261 H         1 UNK         0.0600 
    189 H189        3.6767  -12.9529  -49.1142 H         1 UNK         0.3000 
    190 H190       -2.0539  -21.2904  -46.9877 H         1 UNK         0.3000 
    191 H191       -3.2653  -22.5975  -49.1731 H         1 UNK         0.0600 
    192 H192       -4.5938  -21.5026  -46.6338 H         1 UNK         0.0600 
    193 H193       -5.3912  -21.8154  -48.1630 H         1 UNK         0.0600 
    194 H194       -4.1850  -20.5436  -48.0478 H         1 UNK         0.0600 
    195 H195       -3.2090  -23.5096  -45.7144 H         1 UNK         0.3000 
    196 H196       -4.7471  -25.8928  -45.9715 H         1 UNK         0.0600 
    197 H197       -3.8198  -26.4098  -43.7139 H         1 UNK         0.0600 
    198 H198       -4.3767  -24.7451  -43.8057 H         1 UNK         0.0600 
    199 H199       -2.6536  -25.1025  -43.8761 H         1 UNK         0.0600 
    200 H200       -1.2040  -25.3216  -46.1081 H         1 UNK         0.3000 
    201 H201       -0.4304  -28.0418  -46.3891 H         1 UNK         0.0600 
    202 H202        1.1244  -26.2552  -45.6607 H         1 UNK         0.0600 
    203 H203        1.0182  -25.4795  -47.2395 H         1 UNK         0.0600 
    204 H204        1.7575  -27.0680  -47.0842 H         1 UNK         0.0600 
    205 H205       -1.0151  -25.4935  -48.8697 H         1 UNK         0.3000 
    206 H206       -0.4614  -27.1901  -51.1263 H         1 UNK         0.0600 
    207 H207       -0.2532  -24.7073  -51.1962 H         1 UNK         0.0600 
    208 H208       -1.3959  -25.2633  -52.4103 H         1 UNK         0.0600 
    209 H209       -1.9862  -24.5353  -50.9216 H         1 UNK         0.0600 
    210 H210       -3.3075  -26.5972  -49.1973 H         1 UNK         0.3000 
    211 H211       -5.4113  -27.2335  -49.1613 H         1 UNK         0.0600 
    212 H212       -4.7190  -29.4420  -51.1733 H         1 UNK         0.0600 
    213 H213       -6.1578  -29.3537  -50.1685 H         1 UNK         0.0600 
    214 H214       -4.5845  -29.5804  -49.4208 H         1 UNK         0.0600 
    215 H215       -4.9033  -25.0142  -50.4752 H         1 UNK         0.3000 
    216 H216       -6.6779  -24.9692  -52.8717 H         1 UNK         0.0600 
    217 H217       -3.9255  -23.6307  -52.5886 H         1 UNK         0.0600 
    218 H218       -5.0527  -23.3688  -53.9144 H         1 UNK         0.0600 
    219 H219       -4.3214  -24.9511  -53.6839 H         1 UNK         0.0600 
    220 H220       -8.0341  -23.2569  -52.9101 H         1 UNK         0.3000 
    221 H221       -8.6476  -21.7804  -50.5896 H         1 UNK         0.0600 
    222 H222       -9.4516  -21.3183  -53.5132 H         1 UNK         0.0600 
    223 H223      -10.3103  -22.3202  -52.3425 H         1 UNK         0.0600 
    224 H224      -10.2272  -20.5801  -52.1172 H         1 UNK         0.0600 
    225 H225       -7.6588  -20.0978  -49.7281 H         1 UNK         0.3000 
    226 H226       -6.2804  -18.4220  -49.2911 H         1 UNK         0.0600 
    227 H227       -7.9890  -17.1382  -50.6093 H         1 UNK         0.0600 
    228 H228       -6.3940  -16.4143  -50.7229 H         1 UNK         0.0600 
    229 H229       -7.0231  -17.3550  -52.0684 H         1 UNK         0.0600 
    230 H230       -5.1254  -20.8039  -50.5117 H         1 UNK         0.3000 
    231 H231       -3.2459  -21.6954  -51.2057 H         1 UNK         0.0600 
    232 H232       -1.7765  -19.0626  -50.7145 H         1 UNK         0.0600 
    233 H233       -1.1470  -20.7022  -50.5941 H         1 UNK         0.0600 
    234 H234       -2.2810  -20.1037  -49.3992 H         1 UNK         0.0600 
    235 H235       -4.9317  -20.0504  -53.1184 H         1 UNK         0.3000 
    236 H236       -5.0938  -19.4729  -55.2194 H         1 UNK         0.0600 
    237 H237       -3.7787  -20.6256  -56.9495 H         1 UNK         0.0600 
    238 H238       -2.5593  -21.1009  -55.7767 H         1 UNK         0.0600 
    239 H239       -4.1900  -21.7645  -55.6802 H         1 UNK         0.0600 
    240 H240       -3.5506  -17.7211  -53.3673 H         1 UNK         0.3000 
    241 H241       -1.5564  -16.3208  -54.8589 H         1 UNK         0.0600 
    242 H242       -3.1630  -13.7524  -56.7136 H         1 UNK         0.3800 
    243 H243       -1.6481  -14.3517  -56.1042 H         1 UNK         0.3800 
    244 H244       -1.8641  -14.5116  -53.1633 H         1 UNK         0.0800 
    245 H245       -3.3087  -15.2841  -52.5705 H         1 UNK         0.0800 
    246 H246        0.4979  -16.2780  -53.3562 H         1 UNK         0.0800 
    247 H247       -0.3191  -17.8289  -53.4421 H         1 UNK         0.0800 
@<TRIPOS>BOND
     1    1    2 1    
     2    1  127 1    
     3    1  128 1    
     4    1  129 1    
     5    2    3 2    
     6    2    4 am   BACKBONE|DICT|INTERRES
     7    4    5 1    
     8    4  130 1    
     9    5    6 1    
    10    5   65 1    
    11    5  131 1    
    12    6    7 1    
    13    6  132 1    
    14    6  133 1    
    15    7    8 1    
    16    8    9 1    
    17    8  134 1    
    18    8  135 1    
    19    9   10 ar   
    20    9   14 ar   
    21   10   11 ar   
    22   10  136 1    
    23   11   12 ar   
    24   11  126 1    
    25   12   13 ar   
    26   12  137 1    
    27   13   14 ar   
    28   13   15 1    
    29   14  138 1    
    30   15   16 1    
    31   15  139 1    
    32   15  140 1    
    33   16   17 1    
    34   17   18 1    
    35   17  141 1    
    36   17  142 1    
    37   18   19 1    
    38   18   67 1    
    39   18  143 1    
    40   19   20 am   BACKBONE|DICT|INTERRES
    41   19  144 1    
    42   20   21 2    
    43   20   22 1    
    44   22   23 1    
    45   22   24 1    
    46   22  145 1    
    47   23  146 1    
    48   23  147 1    
    49   23  148 1    
    50   24   25 am   BACKBONE|DICT|INTERRES
    51   24  149 1    
    52   25   26 2    
    53   25   27 1    
    54   27   28 1    
    55   27   29 1    
    56   27  150 1    
    57   28  151 1    
    58   28  152 1    
    59   28  153 1    
    60   29   30 am   BACKBONE|DICT|INTERRES
    61   29  154 1    
    62   30   31 2    
    63   30   32 1    
    64   32   33 1    
    65   32   34 1    
    66   32  155 1    
    67   33  156 1    
    68   33  157 1    
    69   33  158 1    
    70   34   35 am   BACKBONE|DICT|INTERRES
    71   34  159 1    
    72   35   36 2    
    73   35   37 1    
    74   37   38 1    
    75   37   39 1    
    76   37  160 1    
    77   38  161 1    
    78   38  162 1    
    79   38  163 1    
    80   39   40 am   BACKBONE|DICT|INTERRES
    81   39  164 1    
    82   40   41 2    
    83   40   42 1    
    84   42   43 1    
    85   42   44 1    
    86   42  165 1    
    87   43  166 1    
    88   43  167 1    
    89   43  168 1    
    90   44   45 am   BACKBONE|DICT|INTERRES
    91   44  169 1    
    92   45   46 2    
    93   45   47 1    
    94   47   48 1    
    95   47   49 1    
    96   47  170 1    
    97   48  171 1    
    98   48  172 1    
    99   48  173 1    
   100   49   50 am   BACKBONE|DICT|INTERRES
   101   49  174 1    
   102   50   51 2    
   103   50   52 1    
   104   52   53 1    
   105   52   54 1    
   106   52  175 1    
   107   53  176 1    
   108   53  177 1    
   109   53  178 1    
   110   54   55 am   BACKBONE|DICT|INTERRES
   111   54  179 1    
   112   55   56 2    
   113   55   57 1    
   114   57   58 1    
   115   57   59 1    
   116   57  180 1    
   117   58  181 1    
   118   58  182 1    
   119   58  183 1    
   120   59   60 am   BACKBONE|DICT|INTERRES
   121   59  184 1    
   122   60   61 2    
   123   60   62 1    
   124   62   63 1    
   125   62   64 1    
   126   62  185 1    
   127   63  186 1    
   128   63  187 1    
   129   63  188 1    
   130   64   65 am   BACKBONE|DICT|INTERRES
   131   64  189 1    
   132   65   66 2    
   133   67   68 2    
   134   67   69 am   BACKBONE|DICT|INTERRES
   135   69   70 1    
   136   69  190 1    
   137   70   71 1    
   138   70   72 1    
   139   70  191 1    
   140   71  192 1    
   141   71  193 1    
   142   71  194 1    
   143   72   73 2    
   144   72   74 am   BACKBONE|DICT|INTERRES
   145   74   75 1    
   146   74  195 1    
   147   75   76 1    
   148   75   77 1    
   149   75  196 1    
   150   76  197 1    
   151   76  198 1    
   152   76  199 1    
   153   77   78 2    
   154   77   79 am   BACKBONE|DICT|INTERRES
   155   79   80 1    
   156   79  200 1    
   157   80   81 1    
   158   80   82 1    
   159   80  201 1    
   160   81  202 1    
   161   81  203 1    
   162   81  204 1    
   163   82   83 2    
   164   82   84 am   BACKBONE|DICT|INTERRES
   165   84   85 1    
   166   84  205 1    
   167   85   86 1    
   168   85   87 1    
   169   85  206 1    
   170   86  207 1    
   171   86  208 1    
   172   86  209 1    
   173   87   88 2    
   174   87   89 am   BACKBONE|DICT|INTERRES
   175   89   90 1    
   176   89  210 1    
   177   90   91 1    
   178   90   92 1    
   179   90  211 1    
   180   91  212 1    
   181   91  213 1    
   182   91  214 1    
   183   92   93 2    
   184   92   94 am   BACKBONE|DICT|INTERRES
   185   94   95 1    
   186   94  215 1    
   187   95   96 1    
   188   95   97 1    
   189   95  216 1    
   190   96  217 1    
   191   96  218 1    
   192   96  219 1    
   193   97   98 2    
   194   97   99 am   BACKBONE|DICT|INTERRES
   195   99  100 1    
   196   99  220 1    
   197  100  101 1    
   198  100  102 1    
   199  100  221 1    
   200  101  222 1    
   201  101  223 1    
   202  101  224 1    
   203  102  103 2    
   204  102  104 am   BACKBONE|DICT|INTERRES
   205  104  105 1    
   206  104  225 1    
   207  105  106 1    
   208  105  107 1    
   209  105  226 1    
   210  106  227 1    
   211  106  228 1    
   212  106  229 1    
   213  107  108 2    
   214  107  109 am   BACKBONE|DICT|INTERRES
   215  109  110 1    
   216  109  230 1    
   217  110  111 1    
   218  110  112 1    
   219  110  231 1    
   220  111  232 1    
   221  111  233 1    
   222  111  234 1    
   223  112  113 2    
   224  112  114 am   BACKBONE|DICT|INTERRES
   225  114  115 1    
   226  114  235 1    
   227  115  116 1    
   228  115  117 1    
   229  115  236 1    
   230  116  237 1    
   231  116  238 1    
   232  116  239 1    
   233  117  118 2    
   234  117  119 am   BACKBONE|DICT|INTERRES
   235  119  120 1    
   236  119  240 1    
   237  120  121 1    
   238  120  124 1    
   239  120  241 1    
   240  121  122 am   BACKBONE|DICT|INTERRES
   241  121  123 2    
   242  122  242 1    
   243  122  243 1    
   244  124  125 1    
   245  124  244 1    
   246  124  245 1    
   247  125  126 1    
   248  126  246 1    
   249  126  247 1    
@<TRIPOS>SUBSTRUCTURE
     1 UNK         1 GROUP             0       ****    0 ROOT    
