@<TRIPOS>MOLECULE
3R540
247   249    1
SMALL
USER_CHARGES


@<TRIPOS>ATOM
      1 CA          2.7949  -11.7484  -49.0710 C.3       0 UNK        -0.1800 
      2 C           1.3694  -12.2693  -49.1886 C.2       0 UNK         0.5000 
      3 O           0.9020  -12.5339  -50.2955 O.2       0 UNK        -0.5000 
      4 N           0.6823  -12.4170  -48.0533 N.am      1 UNK        -0.5000 
      5 CA         -0.6701  -12.9511  -47.9314 C.3       1 UNK         0.1400 
      6 C6         -1.7475  -11.9158  -48.3583 C.3       23 UNK        -0.0398 
      7 S7         -3.4649  -12.5458  -48.3534 S.3       23 UNK        -0.2404 
      8 C8         -3.7149  -13.0570  -50.0897 C.3       23 UNK        -0.0205 
      9 C9         -2.8768  -14.2600  -50.5173 C.ar      23 UNK        -0.0193 
     10 C10        -2.2986  -14.2816  -51.7911 C.ar      23 UNK        -0.1150 
     11 C11        -1.5438  -15.3800  -52.2153 C.ar      23 UNK        -0.0193 
     12 C12        -1.3411  -16.4506  -51.3401 C.ar      23 UNK        -0.1150 
     13 C13        -1.9020  -16.4403  -50.0608 C.ar      23 UNK        -0.0193 
     14 C14        -2.6939  -15.3584  -49.6683 C.ar      23 UNK        -0.1150 
     15 C15        -1.5970  -17.5632  -49.0819 C.3       23 UNK        -0.0205 
     16 S16        -3.0725  -18.5195  -48.6118 S.3       23 UNK        -0.2404 
     17 C17        -2.3027  -19.6750  -47.4327 C.3       23 UNK        -0.0398 
     18 CA         -2.0480  -21.0765  -48.0529 C.3       11 UNK         0.1400 
     19 N          -0.7514  -21.6148  -47.6570 N.am      11 UNK        -0.5000 
     20 C           0.4144  -21.3184  -48.2392 C.2       10 UNK         0.5000 
     21 O           0.5224  -20.5504  -49.1946 O.2       10 UNK        -0.5000 
     22 CA          1.6607  -21.9622  -47.6102 C.3       10 UNK         0.1400 
     23 CB          2.9746  -21.5246  -48.2820 C.3       10 UNK        -0.1800 
     24 N           1.6962  -21.5917  -46.2004 N.am      10 UNK        -0.5000 
     25 C           1.8509  -22.4311  -45.1702 C.2       9 UNK         0.5000 
     26 O           2.0896  -23.6312  -45.3053 O.2       9 UNK        -0.5000 
     27 CA          1.7096  -21.8510  -43.7441 C.3       9 UNK         0.1400 
     28 CB          3.0787  -21.7915  -43.0493 C.3       9 UNK        -0.1800 
     29 N           1.1006  -20.5205  -43.6866 N.am      9 UNK        -0.5000 
     30 C          -0.1514  -20.2091  -44.0502 C.2       8 UNK         0.5000 
     31 O          -0.9860  -21.0327  -44.4253 O.2       8 UNK        -0.5000 
     32 CA         -0.5051  -18.7092  -44.0537 C.3       8 UNK         0.1400 
     33 CB         -1.0704  -18.2941  -42.6888 C.3       8 UNK        -0.1800 
     34 N           0.6265  -17.8408  -44.4051 N.am      8 UNK        -0.5000 
     35 C           1.3101  -17.8931  -45.5601 C.2       7 UNK         0.5000 
     36 O           1.0518  -18.6802  -46.4663 O.2       7 UNK        -0.5000 
     37 CA          2.5113  -16.9485  -45.7163 C.3       7 UNK         0.1400 
     38 CB          2.0589  -15.5522  -46.1569 C.3       7 UNK        -0.1800 
     39 N           3.2718  -16.8499  -44.4738 N.am      7 UNK        -0.5000 
     40 C           4.1739  -17.7563  -44.0732 C.2       6 UNK         0.5000 
     41 O           4.5191  -18.7244  -44.7503 O.2       6 UNK        -0.5000 
     42 CA          4.7780  -17.5603  -42.6698 C.3       6 UNK         0.1400 
     43 CB          6.0614  -16.7200  -42.7481 C.3       6 UNK        -0.1800 
     44 N           3.8486  -16.9300  -41.7304 N.am      6 UNK        -0.5000 
     45 C           2.7205  -17.4967  -41.2800 C.2       5 UNK         0.5000 
     46 O           2.3539  -18.6305  -41.5894 O.2       5 UNK        -0.5000 
     47 CA          1.8324  -16.6271  -40.3695 C.3       5 UNK         0.1400 
     48 CB          2.2538  -16.7804  -38.9008 C.3       5 UNK        -0.1800 
     49 N           1.8388  -15.2049  -40.7316 N.am      5 UNK        -0.5000 
     50 C           1.3865  -14.7168  -41.8937 C.2       4 UNK         0.5000 
     51 O           0.9614  -15.4244  -42.8106 O.2       4 UNK        -0.5000 
     52 CA          1.4633  -13.1940  -42.0858 C.3       4 UNK         0.1400 
     53 CB          2.5940  -12.8346  -43.0621 C.3       4 UNK        -0.1800 
     54 N           0.1968  -12.7130  -42.6264 N.am      4 UNK        -0.5000 
     55 C          -0.8631  -12.3559  -41.8855 C.2       3 UNK         0.5000 
     56 O          -0.8314  -12.2318  -40.6606 O.2       3 UNK        -0.5000 
     57 CA         -2.1948  -12.1363  -42.6365 C.3       3 UNK         0.1400 
     58 CB         -2.3355  -10.6716  -43.0771 C.3       3 UNK        -0.1800 
     59 N          -2.2992  -13.0012  -43.8114 N.am      3 UNK        -0.5000 
     60 C          -2.3826  -14.3359  -43.7583 C.2       2 UNK         0.5000 
     61 O          -2.6802  -14.9444  -42.7300 O.2       2 UNK        -0.5000 
     62 CA         -2.0373  -15.1340  -45.0371 C.3       2 UNK         0.1400 
     63 CB         -3.1137  -16.1873  -45.3473 C.3       2 UNK        -0.1800 
     64 N          -1.7810  -14.3616  -46.2603 N.am      2 UNK        -0.5000 
     65 C          -0.8200  -13.4552  -46.4824 C.2       1 UNK         0.5000 
     66 O          -0.0685  -13.0241  -45.6023 O.2       1 UNK        -0.5000 
     67 C          -3.1466  -22.0912  -47.6915 C.2       11 UNK         0.5000 
     68 O          -2.8459  -23.1926  -47.2202 O.2       11 UNK        -0.5000 
     69 N          -4.4118  -21.6958  -47.8872 N.am      12 UNK        -0.5000 
     70 CA         -5.6059  -22.5048  -47.6229 C.3       12 UNK         0.1400 
     71 CB         -6.8486  -21.7401  -48.1003 C.3       12 UNK        -0.1800 
     72 C          -5.7597  -22.9281  -46.1488 C.2       12 UNK         0.5000 
     73 O          -6.3236  -23.9888  -45.8828 O.2       12 UNK        -0.5000 
     74 N          -5.1934  -22.1373  -45.2256 N.am      13 UNK        -0.5000 
     75 CA         -5.0768  -22.4490  -43.7976 C.3       13 UNK         0.1400 
     76 CB         -4.5181  -21.2184  -43.0662 C.3       13 UNK        -0.1800 
     77 C          -4.2086  -23.6927  -43.5048 C.2       13 UNK         0.5000 
     78 O          -4.4158  -24.3462  -42.4821 O.2       13 UNK        -0.5000 
     79 N          -3.2799  -24.0094  -44.4165 N.am      14 UNK        -0.5000 
     80 CA         -2.4340  -25.2031  -44.4032 C.3       14 UNK         0.1400 
     81 CB         -0.9815  -24.7604  -44.6392 C.3       14 UNK        -0.1800 
     82 C          -2.8799  -26.2304  -45.4661 C.2       14 UNK         0.5000 
     83 O          -2.1551  -27.1951  -45.7119 O.2       14 UNK        -0.5000 
     84 N          -4.0473  -25.9997  -46.0891 N.am      15 UNK        -0.5000 
     85 CA         -4.6615  -26.7690  -47.1776 C.3       15 UNK         0.1400 
     86 CB         -5.0051  -28.2015  -46.7194 C.3       15 UNK        -0.1800 
     87 C          -3.8661  -26.7427  -48.5020 C.2       15 UNK         0.5000 
     88 O          -4.1001  -27.5875  -49.3687 O.2       15 UNK        -0.5000 
     89 N          -2.9663  -25.7636  -48.6682 N.am      16 UNK        -0.5000 
     90 CA         -2.1652  -25.5609  -49.8730 C.3       16 UNK         0.1400 
     91 CB         -0.8153  -24.9371  -49.4809 C.3       16 UNK        -0.1800 
     92 C          -2.9532  -24.6990  -50.8744 C.2       16 UNK         0.5000 
     93 O          -2.6495  -23.5194  -51.0592 O.2       16 UNK        -0.5000 
     94 N          -3.9837  -25.3013  -51.4809 N.am      17 UNK        -0.5000 
     95 CA         -4.9309  -24.6498  -52.3897 C.3       17 UNK         0.1400 
     96 CB         -6.0246  -25.6526  -52.7839 C.3       17 UNK        -0.1800 
     97 C          -4.2831  -24.0326  -53.6438 C.2       17 UNK         0.5000 
     98 O          -4.7138  -22.9676  -54.0818 O.2       17 UNK        -0.5000 
     99 N          -3.2388  -24.6815  -54.1777 N.am      18 UNK        -0.5000 
    100 CA        -2.4621  -24.1869  -55.3189 C.3       18 UNK         0.1400 
    101 CB        -1.5489  -25.3084  -55.8354 C.3       18 UNK        -0.1800 
    102 C         -1.6367  -22.9310  -54.9784 C.2       18 UNK         0.5000 
    103 O         -1.4882  -22.0459  -55.8234 O.2       18 UNK        -0.5000 
    104 N         -1.1399  -22.8663  -53.7358 N.am      19 UNK        -0.5000 
    105 CA        -0.4183  -21.7162  -53.1979 C.3       19 UNK         0.1400 
    106 CB         0.4223  -22.1556  -51.9929 C.3       19 UNK        -0.1800 
    107 C         -1.3795  -20.5722  -52.8325 C.2       19 UNK         0.5000 
    108 O         -1.0513  -19.4141  -53.0790 O.2       19 UNK        -0.5000 
    109 N         -2.5743  -20.9133  -52.3271 N.am      20 UNK        -0.5000 
    110 CA        -3.6740  -19.9782  -52.0684 C.3       20 UNK         0.1400 
    111 CB        -4.7895  -20.7090  -51.3088 C.3       20 UNK        -0.1800 
    112 C         -4.2336  -19.3372  -53.3532 C.2       20 UNK         0.5000 
    113 O         -4.6326  -18.1737  -53.3325 O.2       20 UNK        -0.5000 
    114 N         -4.2194  -20.1003  -54.4547 N.am      21 UNK        -0.5000 
    115 CA        -4.5144  -19.6402  -55.8132 C.3       21 UNK         0.1400 
    116 CB        -4.8716  -20.8582  -56.6805 C.3       21 UNK        -0.1800 
    117 C         -3.3599  -18.8330  -56.4477 C.2       21 UNK         0.5000 
    118 O         -3.5284  -18.3120  -57.5514 O.2       21 UNK        -0.5000 
    119 N         -2.2224  -18.7368  -55.7468 N.am      22 UNK        -0.5000 
    120 CA        -1.0167  -17.9782  -56.1106 C.3       22 UNK         0.1400 
    121 C         -0.2221  -18.5934  -57.3004 C.2       22 UNK         0.5000 
    122 N         -0.3116  -19.8972  -57.5417 N.am      22 UNK        -0.7600 
    123 O          0.5042  -17.8940  -58.0021 O.2       22 UNK        -0.5000 
    124 C124       -1.2571  -16.4439  -56.2434 C.3       23 UNK        -0.0398 
    125 S125       -2.2267  -15.7344  -54.8631 S.3       23 UNK        -0.2404 
    126 C126       -0.9437  -15.4111  -53.6144 C.3       23 UNK        -0.0205 
    127 H127        2.9001  -10.8148  -49.6235 H         1 UNK         0.0600 
    128 H128        3.4945  -12.4733  -49.4871 H         1 UNK         0.0600 
    129 H129        3.0745  -11.5634  -48.0334 H         1 UNK         0.0600 
    130 H130        1.1134  -12.2228  -47.1568 H         1 UNK         0.3000 
    131 H131       -0.7307  -13.8230  -48.5834 H         1 UNK         0.0600 
    132 H132       -1.7058  -11.0430  -47.7047 H         1 UNK         0.0800 
    133 H133       -1.5274  -11.5433  -49.3595 H         1 UNK         0.0800 
    134 H134       -3.5181  -12.2009  -50.7371 H         1 UNK         0.0800 
    135 H135       -4.7668  -13.3096  -50.2273 H         1 UNK         0.0800 
    136 H136       -2.4469  -13.4494  -52.4649 H         1 UNK         0.1150 
    137 H137       -0.7359  -17.2896  -51.6522 H         1 UNK         0.1150 
    138 H138       -3.1497  -15.3672  -48.6895 H         1 UNK         0.1150 
    139 H139       -0.8570  -18.2459  -49.5030 H         1 UNK         0.0800 
    140 H140       -1.1419  -17.1321  -48.1887 H         1 UNK         0.0800 
    141 H141       -2.9130  -19.7251  -46.5291 H         1 UNK         0.0800 
    142 H142       -1.3648  -19.2345  -47.0994 H         1 UNK         0.0800 
    143 H143       -2.0531  -21.0093  -49.1437 H         1 UNK         0.0600 
    144 H144       -0.7806  -22.2620  -46.8804 H         1 UNK         0.3000 
    145 H145        1.5535  -23.0427  -47.7260 H         1 UNK         0.0600 
    146 H146        3.8329  -22.0152  -47.8229 H         1 UNK         0.0600 
    147 H147        2.9777  -21.7843  -49.3413 H         1 UNK         0.0600 
    148 H148        3.1238  -20.4467  -48.2041 H         1 UNK         0.0600 
    149 H149        1.4766  -20.6178  -46.0148 H         1 UNK         0.3000 
    150 H150        1.0703  -22.5309  -43.1786 H         1 UNK         0.0600 
    151 H151        3.5493  -22.7751  -43.0233 H         1 UNK         0.0600 
    152 H152        2.9844  -21.4498  -42.0183 H         1 UNK         0.0600 
    153 H153        3.7603  -21.1146  -43.5653 H         1 UNK         0.0600 
    154 H154        1.6883  -19.7737  -43.3349 H         1 UNK         0.3000 
    155 H155       -1.2813  -18.5515  -44.8030 H         1 UNK         0.0600 
    156 H156       -0.3723  -18.5133  -41.8816 H         1 UNK         0.0600 
    157 H157       -1.9962  -18.8289  -42.4735 H         1 UNK         0.0600 
    158 H158       -1.2943  -17.2288  -42.6564 H         1 UNK         0.0600 
    159 H159        0.8752  -17.1256  -43.7277 H         1 UNK         0.3000 
    160 H160        3.1555  -17.3526  -46.5004 H         1 UNK         0.0600 
    161 H161        1.4364  -15.0868  -45.3957 H         1 UNK         0.0600 
    162 H162        1.4778  -15.5993  -47.0788 H         1 UNK         0.0600 
    163 H163        2.9109  -14.8974  -46.3397 H         1 UNK         0.0600 
    164 H164        3.0099  -16.1097  -43.8390 H         1 UNK         0.3000 
    165 H165        5.0365  -18.5475  -42.2804 H         1 UNK         0.0600 
    166 H166        6.5390  -16.6371  -41.7717 H         1 UNK         0.0600 
    167 H167        6.7854  -17.1758  -43.4249 H         1 UNK         0.0600 
    168 H168        5.8614  -15.7114  -43.1121 H         1 UNK         0.0600 
    169 H169        4.0733  -15.9954  -41.4227 H         1 UNK         0.3000 
    170 H170        0.8070  -16.9882  -40.4664 H         1 UNK         0.0600 
    171 H171        2.2371  -17.8282  -38.5974 H         1 UNK         0.0600 
    172 H172        3.2633  -16.4048  -38.7290 H         1 UNK         0.0600 
    173 H173        1.5769  -16.2414  -38.2377 H         1 UNK         0.0600 
    174 H174        2.1799  -14.5643  -40.0292 H         1 UNK         0.3000 
    175 H175        1.6671  -12.7128  -41.1270 H         1 UNK         0.0600 
    176 H176        2.4338  -13.2742  -44.0472 H         1 UNK         0.0600 
    177 H177        2.6722  -11.7549  -43.1902 H         1 UNK         0.0600 
    178 H178        3.5576  -13.1897  -42.6950 H         1 UNK         0.0600 
    179 H179        0.0732  -12.8326  -43.6274 H         1 UNK         0.3000 
    180 H180       -3.0133  -12.3744  -41.9542 H         1 UNK         0.0600 
    181 H181       -3.2943  -10.4973  -43.5656 H         1 UNK         0.0600 
    182 H182       -1.5463  -10.3828  -43.7727 H         1 UNK         0.0600 
    183 H183       -2.2804   -9.9998  -42.2196 H         1 UNK         0.0600 
    184 H184       -2.0117  -12.5958  -44.6906 H         1 UNK         0.3000 
    185 H185       -1.1121  -15.6637  -44.8067 H         1 UNK         0.0600 
    186 H186       -2.8014  -16.8368  -46.1635 H         1 UNK         0.0600 
    187 H187       -3.3061  -16.8291  -44.4867 H         1 UNK         0.0600 
    188 H188       -4.0590  -15.7224  -45.6291 H         1 UNK         0.0600 
    189 H189       -2.3956  -14.5754  -47.0314 H         1 UNK         0.3000 
    190 H190       -4.5762  -20.7709  -48.2597 H         1 UNK         0.3000 
    191 H191       -5.5196  -23.4188  -48.2146 H         1 UNK         0.0600 
    192 H192       -7.7561  -22.3194  -47.9245 H         1 UNK         0.0600 
    193 H193       -6.8000  -21.5355  -49.1697 H         1 UNK         0.0600 
    194 H194       -6.9603  -20.7882  -47.5796 H         1 UNK         0.0600 
    195 H195       -4.7563  -21.2829  -45.5353 H         1 UNK         0.3000 
    196 H196       -6.0795  -22.6514  -43.4156 H         1 UNK         0.0600 
    197 H197       -3.5247  -20.9521  -43.4284 H         1 UNK         0.0600 
    198 H198       -5.1669  -20.3521  -43.1965 H         1 UNK         0.0600 
    199 H199       -4.4369  -21.4038  -41.9943 H         1 UNK         0.0600 
    200 H200       -3.1856  -23.4276  -45.2417 H         1 UNK         0.3000 
    201 H201       -2.4874  -25.6987  -43.4321 H         1 UNK         0.0600 
    202 H202       -0.8509  -24.3131  -45.6252 H         1 UNK         0.0600 
    203 H203       -0.2923  -25.6024  -44.5667 H         1 UNK         0.0600 
    204 H204       -0.6738  -24.0259  -43.8958 H         1 UNK         0.0600 
    205 H205       -4.5803  -25.1906  -45.7945 H         1 UNK         0.3000 
    206 H206       -5.6045  -26.2663  -47.3957 H         1 UNK         0.0600 
    207 H207       -5.5737  -28.1923  -45.7895 H         1 UNK         0.0600 
    208 H208       -5.6141  -28.7156  -47.4639 H         1 UNK         0.0600 
    209 H209       -4.1102  -28.8035  -46.5608 H         1 UNK         0.0600 
    210 H210       -2.8768  -25.0521  -47.9498 H         1 UNK         0.3000 
    211 H211       -1.9561  -26.5227  -50.3458 H         1 UNK         0.0600 
    212 H212       -0.1715  -24.8214  -50.3532 H         1 UNK         0.0600 
    213 H213       -0.2844  -25.5642  -48.7645 H         1 UNK         0.0600 
    214 H214       -0.9411  -23.9540  -49.0325 H         1 UNK         0.0600 
    215 H215       -4.1796  -26.2635  -51.2342 H         1 UNK         0.3000 
    216 H216       -5.4033  -23.8368  -51.8352 H         1 UNK         0.0600 
    217 H217       -5.6105  -26.5141  -53.3090 H         1 UNK         0.0600 
    218 H218       -6.7612  -25.1891  -53.4417 H         1 UNK         0.0600 
    219 H219       -6.5588  -26.0186  -51.9069 H         1 UNK         0.0600 
    220 H220       -2.9474  -25.5549  -53.7640 H         1 UNK         0.3000 
    221 H221       -3.1583  -23.9195  -56.1167 H         1 UNK         0.0600 
    222 H222       -2.1293  -26.1759  -56.1500 H         1 UNK         0.0600 
    223 H223       -0.8405  -25.6357  -55.0734 H         1 UNK         0.0600 
    224 H224       -0.9717  -24.9745  -56.6987 H         1 UNK         0.0600 
    225 H225       -1.3567  -23.6076  -53.0858 H         1 UNK         0.3000 
    226 H226        0.2660  -21.3477  -53.9655 H         1 UNK         0.0600 
    227 H227       -0.2020  -22.4421  -51.1469 H         1 UNK         0.0600 
    228 H228        1.0647  -23.0004  -52.2410 H         1 UNK         0.0600 
    229 H229        1.0698  -21.3428  -51.6634 H         1 UNK         0.0600 
    230 H230       -2.7357  -21.8878  -52.0913 H         1 UNK         0.3000 
    231 H231       -3.2830  -19.1777  -51.4388 H         1 UNK         0.0600 
    232 H232       -5.3469  -21.3839  -51.9580 H         1 UNK         0.0600 
    233 H233       -5.5007  -19.9979  -50.8873 H         1 UNK         0.0600 
    234 H234       -4.3856  -21.3013  -50.4917 H         1 UNK         0.0600 
    235 H235       -3.9745  -21.0795  -54.3565 H         1 UNK         0.3000 
    236 H236       -5.3855  -18.9832  -55.7747 H         1 UNK         0.0600 
    237 H237       -5.7164  -21.4060  -56.2625 H         1 UNK         0.0600 
    238 H238       -5.1505  -20.5540  -57.6900 H         1 UNK         0.0600 
    239 H239       -4.0335  -21.5498  -56.7661 H         1 UNK         0.0600 
    240 H240       -2.1768  -19.1849  -54.8410 H         1 UNK         0.3000 
    241 H241       -0.3441  -18.1039  -55.2628 H         1 UNK         0.0600 
    242 H242        0.2078  -20.2938  -58.3083 H         1 UNK         0.3800 
    243 H243       -0.8670  -20.5054  -56.9476 H         1 UNK         0.3800 
    244 H244       -1.7909  -16.2280  -57.1699 H         1 UNK         0.0800 
    245 H245       -0.3068  -15.9124  -56.3138 H         1 UNK         0.0800 
    246 H246       -0.4532  -14.4612  -53.8315 H         1 UNK         0.0800 
    247 H247       -0.1727  -16.1807  -53.6734 H         1 UNK         0.0800 
@<TRIPOS>BOND
     1    1    2 1    
     2    1  127 1    
     3    1  128 1    
     4    1  129 1    
     5    2    3 2    
     6    2    4 am   BACKBONE|DICT|INTERRES
     7    4    5 1    
     8    4  130 1    
     9    5    6 1    
    10    5   65 1    
    11    5  131 1    
    12    6    7 1    
    13    6  132 1    
    14    6  133 1    
    15    7    8 1    
    16    8    9 1    
    17    8  134 1    
    18    8  135 1    
    19    9   10 ar   
    20    9   14 ar   
    21   10   11 ar   
    22   10  136 1    
    23   11   12 ar   
    24   11  126 1    
    25   12   13 ar   
    26   12  137 1    
    27   13   14 ar   
    28   13   15 1    
    29   14  138 1    
    30   15   16 1    
    31   15  139 1    
    32   15  140 1    
    33   16   17 1    
    34   17   18 1    
    35   17  141 1    
    36   17  142 1    
    37   18   19 1    
    38   18   67 1    
    39   18  143 1    
    40   19   20 am   BACKBONE|DICT|INTERRES
    41   19  144 1    
    42   20   21 2    
    43   20   22 1    
    44   22   23 1    
    45   22   24 1    
    46   22  145 1    
    47   23  146 1    
    48   23  147 1    
    49   23  148 1    
    50   24   25 am   BACKBONE|DICT|INTERRES
    51   24  149 1    
    52   25   26 2    
    53   25   27 1    
    54   27   28 1    
    55   27   29 1    
    56   27  150 1    
    57   28  151 1    
    58   28  152 1    
    59   28  153 1    
    60   29   30 am   BACKBONE|DICT|INTERRES
    61   29  154 1    
    62   30   31 2    
    63   30   32 1    
    64   32   33 1    
    65   32   34 1    
    66   32  155 1    
    67   33  156 1    
    68   33  157 1    
    69   33  158 1    
    70   34   35 am   BACKBONE|DICT|INTERRES
    71   34  159 1    
    72   35   36 2    
    73   35   37 1    
    74   37   38 1    
    75   37   39 1    
    76   37  160 1    
    77   38  161 1    
    78   38  162 1    
    79   38  163 1    
    80   39   40 am   BACKBONE|DICT|INTERRES
    81   39  164 1    
    82   40   41 2    
    83   40   42 1    
    84   42   43 1    
    85   42   44 1    
    86   42  165 1    
    87   43  166 1    
    88   43  167 1    
    89   43  168 1    
    90   44   45 am   BACKBONE|DICT|INTERRES
    91   44  169 1    
    92   45   46 2    
    93   45   47 1    
    94   47   48 1    
    95   47   49 1    
    96   47  170 1    
    97   48  171 1    
    98   48  172 1    
    99   48  173 1    
   100   49   50 am   BACKBONE|DICT|INTERRES
   101   49  174 1    
   102   50   51 2    
   103   50   52 1    
   104   52   53 1    
   105   52   54 1    
   106   52  175 1    
   107   53  176 1    
   108   53  177 1    
   109   53  178 1    
   110   54   55 am   BACKBONE|DICT|INTERRES
   111   54  179 1    
   112   55   56 2    
   113   55   57 1    
   114   57   58 1    
   115   57   59 1    
   116   57  180 1    
   117   58  181 1    
   118   58  182 1    
   119   58  183 1    
   120   59   60 am   BACKBONE|DICT|INTERRES
   121   59  184 1    
   122   60   61 2    
   123   60   62 1    
   124   62   63 1    
   125   62   64 1    
   126   62  185 1    
   127   63  186 1    
   128   63  187 1    
   129   63  188 1    
   130   64   65 am   BACKBONE|DICT|INTERRES
   131   64  189 1    
   132   65   66 2    
   133   67   68 2    
   134   67   69 am   BACKBONE|DICT|INTERRES
   135   69   70 1    
   136   69  190 1    
   137   70   71 1    
   138   70   72 1    
   139   70  191 1    
   140   71  192 1    
   141   71  193 1    
   142   71  194 1    
   143   72   73 2    
   144   72   74 am   BACKBONE|DICT|INTERRES
   145   74   75 1    
   146   74  195 1    
   147   75   76 1    
   148   75   77 1    
   149   75  196 1    
   150   76  197 1    
   151   76  198 1    
   152   76  199 1    
   153   77   78 2    
   154   77   79 am   BACKBONE|DICT|INTERRES
   155   79   80 1    
   156   79  200 1    
   157   80   81 1    
   158   80   82 1    
   159   80  201 1    
   160   81  202 1    
   161   81  203 1    
   162   81  204 1    
   163   82   83 2    
   164   82   84 am   BACKBONE|DICT|INTERRES
   165   84   85 1    
   166   84  205 1    
   167   85   86 1    
   168   85   87 1    
   169   85  206 1    
   170   86  207 1    
   171   86  208 1    
   172   86  209 1    
   173   87   88 2    
   174   87   89 am   BACKBONE|DICT|INTERRES
   175   89   90 1    
   176   89  210 1    
   177   90   91 1    
   178   90   92 1    
   179   90  211 1    
   180   91  212 1    
   181   91  213 1    
   182   91  214 1    
   183   92   93 2    
   184   92   94 am   BACKBONE|DICT|INTERRES
   185   94   95 1    
   186   94  215 1    
   187   95   96 1    
   188   95   97 1    
   189   95  216 1    
   190   96  217 1    
   191   96  218 1    
   192   96  219 1    
   193   97   98 2    
   194   97   99 am   BACKBONE|DICT|INTERRES
   195   99  100 1    
   196   99  220 1    
   197  100  101 1    
   198  100  102 1    
   199  100  221 1    
   200  101  222 1    
   201  101  223 1    
   202  101  224 1    
   203  102  103 2    
   204  102  104 am   BACKBONE|DICT|INTERRES
   205  104  105 1    
   206  104  225 1    
   207  105  106 1    
   208  105  107 1    
   209  105  226 1    
   210  106  227 1    
   211  106  228 1    
   212  106  229 1    
   213  107  108 2    
   214  107  109 am   BACKBONE|DICT|INTERRES
   215  109  110 1    
   216  109  230 1    
   217  110  111 1    
   218  110  112 1    
   219  110  231 1    
   220  111  232 1    
   221  111  233 1    
   222  111  234 1    
   223  112  113 2    
   224  112  114 am   BACKBONE|DICT|INTERRES
   225  114  115 1    
   226  114  235 1    
   227  115  116 1    
   228  115  117 1    
   229  115  236 1    
   230  116  237 1    
   231  116  238 1    
   232  116  239 1    
   233  117  118 2    
   234  117  119 am   BACKBONE|DICT|INTERRES
   235  119  120 1    
   236  119  240 1    
   237  120  121 1    
   238  120  124 1    
   239  120  241 1    
   240  121  122 am   BACKBONE|DICT|INTERRES
   241  121  123 2    
   242  122  242 1    
   243  122  243 1    
   244  124  125 1    
   245  124  244 1    
   246  124  245 1    
   247  125  126 1    
   248  126  246 1    
   249  126  247 1    
@<TRIPOS>SUBSTRUCTURE
     1 UNK         1 GROUP             0       ****    0 ROOT    
