@<TRIPOS>MOLECULE
3R540
247   249    1
SMALL
USER_CHARGES


@<TRIPOS>ATOM
      1 CA         -1.8606   -8.3449  -43.9957 C.3       0 UNK        -0.1800 
      2 C          -1.3583   -9.5374  -44.7973 C.2       0 UNK         0.5000 
      3 O          -1.7459  -10.6701  -44.5124 O.2       0 UNK        -0.5000 
      4 N          -0.5005   -9.2822  -45.7959 N.am      1 UNK        -0.5000 
      5 CA          0.1267  -10.2773  -46.6768 C.3       1 UNK         0.1400 
      6 C6         -0.9019  -11.0392  -47.5616 C.3       23 UNK        -0.0398 
      7 S7         -0.2316  -11.4321  -49.2127 S.3       23 UNK        -0.2404 
      8 C8         -1.7525  -11.8406  -50.1266 C.3       23 UNK        -0.0205 
      9 C9         -1.9747  -13.3428  -50.2247 C.ar      23 UNK        -0.0193 
     10 C10        -1.6297  -14.0224  -51.3964 C.ar      23 UNK        -0.1150 
     11 C11        -1.8618  -15.3950  -51.5187 C.ar      23 UNK        -0.0193 
     12 C12        -2.4350  -16.0935  -50.4529 C.ar      23 UNK        -0.1150 
     13 C13        -2.7759  -15.4277  -49.2714 C.ar      23 UNK        -0.0193 
     14 C14        -2.5472  -14.0514  -49.1638 C.ar      23 UNK        -0.1150 
     15 C15        -3.3899  -16.1983  -48.1141 C.3       23 UNK        -0.0205 
     16 S16        -2.1143  -17.1254  -47.2142 S.3       23 UNK        -0.2404 
     17 C17        -3.0498  -17.7749  -45.7958 C.3       23 UNK        -0.0398 
     18 CA         -3.3805  -19.2760  -45.9483 C.3       11 UNK         0.1400 
     19 N          -2.1747  -20.1142  -46.0356 N.am      11 UNK        -0.5000 
     20 C          -2.1455  -21.4457  -46.1964 C.2       10 UNK         0.5000 
     21 O          -3.1632  -22.1275  -46.3357 O.2       10 UNK        -0.5000 
     22 CA         -0.7636  -22.1264  -46.1628 C.3       10 UNK         0.1400 
     23 CB         -0.7757  -23.5419  -46.7775 C.3       10 UNK        -0.1800 
     24 N           0.2958  -21.2950  -46.7406 N.am      10 UNK        -0.5000 
     25 C           0.4429  -20.9162  -48.0196 C.2       9 UNK         0.5000 
     26 O          -0.2948  -21.2824  -48.9319 O.2       9 UNK        -0.5000 
     27 CA          1.6074  -19.9559  -48.3322 C.3       9 UNK         0.1400 
     28 CB          1.1031  -18.7226  -49.0996 C.3       9 UNK        -0.1800 
     29 N           2.2895  -19.5230  -47.1064 N.am      9 UNK        -0.5000 
     30 C           3.4626  -20.0026  -46.6756 C.2       8 UNK         0.5000 
     31 O           4.1736  -20.7639  -47.3326 O.2       8 UNK        -0.5000 
     32 CA          3.8879  -19.6210  -45.2435 C.3       8 UNK         0.1400 
     33 CB          4.3256  -18.1533  -45.1387 C.3       8 UNK        -0.1800 
     34 N           2.8747  -19.9230  -44.2232 N.am      8 UNK        -0.5000 
     35 C           2.4724  -21.1663  -43.9116 C.2       7 UNK         0.5000 
     36 O           2.8099  -22.1635  -44.5486 O.2       7 UNK        -0.5000 
     37 CA          1.5692  -21.3647  -42.6791 C.3       7 UNK         0.1400 
     38 CB          2.3375  -22.1016  -41.5698 C.3       7 UNK        -0.1800 
     39 N           1.0447  -20.1210  -42.1211 N.am      7 UNK        -0.5000 
     40 C          -0.1141  -19.5566  -42.4745 C.2       6 UNK         0.5000 
     41 O          -0.8408  -19.9892  -43.3708 O.2       6 UNK        -0.5000 
     42 CA         -0.5643  -18.3114  -41.6851 C.3       6 UNK         0.1400 
     43 CB          0.2548  -18.0287  -40.4047 C.3       6 UNK        -0.1800 
     44 N          -0.6195  -17.1306  -42.5455 N.am      6 UNK        -0.5000 
     45 C           0.3990  -16.5694  -43.2114 C.2       5 UNK         0.5000 
     46 O           1.5740  -16.9371  -43.1237 O.2       5 UNK        -0.5000 
     47 CA          0.0112  -15.3624  -44.0889 C.3       5 UNK         0.1400 
     48 CB          0.0051  -14.0812  -43.2409 C.3       5 UNK        -0.1800 
     49 N           0.8528  -15.1395  -45.2651 N.am      5 UNK        -0.5000 
     50 C           1.2150  -16.0463  -46.1835 C.2       4 UNK         0.5000 
     51 O           0.9682  -17.2504  -46.1021 O.2       4 UNK        -0.5000 
     52 CA          1.9862  -15.5226  -47.4072 C.3       4 UNK         0.1400 
     53 CB          1.0038  -15.0576  -48.4949 C.3       4 UNK        -0.1800 
     54 N           2.8593  -14.4015  -47.0611 N.am      4 UNK        -0.5000 
     55 C           4.1961  -14.4532  -46.9992 C.2       3 UNK         0.5000 
     56 O           4.8530  -15.4669  -47.2369 O.2       3 UNK        -0.5000 
     57 CA          4.9403  -13.1521  -46.6305 C.3       3 UNK         0.1400 
     58 CB          5.4746  -12.4660  -47.8974 C.3       3 UNK        -0.1800 
     59 N           4.1168  -12.1946  -45.8905 N.am      3 UNK        -0.5000 
     60 C           3.7430  -12.3377  -44.6123 C.2       2 UNK         0.5000 
     61 O           4.1181  -13.2630  -43.8923 O.2       2 UNK        -0.5000 
     62 CA          2.7729  -11.2819  -44.0411 C.3       2 UNK         0.1400 
     63 CB          3.5493  -10.2143  -43.2552 C.3       2 UNK        -0.1800 
     64 N           1.9077  -10.6110  -45.0208 N.am      2 UNK        -0.5000 
     65 C           1.0770  -11.2086  -45.8891 C.2       1 UNK         0.5000 
     66 O           1.0392  -12.4274  -46.0560 O.2       1 UNK        -0.5000 
     67 C          -4.3361  -19.7157  -44.8193 C.2       11 UNK         0.5000 
     68 O          -5.5510  -19.6018  -44.9825 O.2       11 UNK        -0.5000 
     69 N          -3.7817  -20.2789  -43.7350 N.am      12 UNK        -0.5000 
     70 CA         -4.5185  -20.9152  -42.6378 C.3       12 UNK         0.1400 
     71 CB         -3.5169  -21.3458  -41.5550 C.3       12 UNK        -0.1800 
     72 C          -5.3888  -22.1170  -43.0715 C.2       12 UNK         0.5000 
     73 O          -6.3524  -22.4434  -42.3779 O.2       12 UNK        -0.5000 
     74 N          -5.0490  -22.7346  -44.2104 N.am      13 UNK        -0.5000 
     75 CA         -5.7789  -23.8253  -44.8529 C.3       13 UNK         0.1400 
     76 CB         -4.8273  -25.0275  -44.9940 C.3       13 UNK        -0.1800 
     77 C          -6.3482  -23.3839  -46.2180 C.2       13 UNK         0.5000 
     78 O          -6.5738  -24.2335  -47.0801 O.2       13 UNK        -0.5000 
     79 N          -6.5430  -22.0691  -46.4150 N.am      14 UNK        -0.5000 
     80 CA         -7.0306  -21.4227  -47.6414 C.3       14 UNK         0.1400 
     81 CB         -8.5039  -21.7968  -47.9084 C.3       14 UNK        -0.1800 
     82 C          -6.1132  -21.6875  -48.8540 C.2       14 UNK         0.5000 
     83 O          -6.5887  -22.0518  -49.9305 O.2       14 UNK        -0.5000 
     84 N          -4.7996  -21.5477  -48.6285 N.am      15 UNK        -0.5000 
     85 CA         -3.7018  -21.8691  -49.5462 C.3       15 UNK         0.1400 
     86 CB         -3.7085  -20.9487  -50.7835 C.3       15 UNK        -0.1800 
     87 C          -3.6639  -23.3728  -49.8790 C.2       15 UNK         0.5000 
     88 O          -3.4732  -23.7490  -51.0355 O.2       15 UNK        -0.5000 
     89 N          -3.8974  -24.2029  -48.8502 N.am      16 UNK        -0.5000 
     90 CA         -4.0818  -25.6590  -48.9066 C.3       16 UNK         0.1400 
     91 CB         -2.7502  -26.3612  -49.2357 C.3       16 UNK        -0.1800 
     92 C          -5.2275  -26.0630  -49.8603 C.2       16 UNK         0.5000 
     93 O          -5.0558  -26.9505  -50.6964 O.2       16 UNK        -0.5000 
     94 N          -6.3640  -25.3636  -49.7293 N.am      17 UNK        -0.5000 
     95 CA         -7.5341  -25.3938  -50.6119 C.3       17 UNK         0.1400 
     96 CB         -8.2643  -26.7494  -50.5114 C.3       17 UNK        -0.1800 
     97 C          -7.1796  -24.9914  -52.0612 C.2       17 UNK         0.5000 
     98 O          -7.5334  -25.6975  -53.0076 O.2       17 UNK        -0.5000 
     99 N          -6.4810  -23.8532  -52.1886 N.am      18 UNK        -0.5000 
    100 CA        -5.9914  -23.2297  -53.4222 C.3       18 UNK         0.1400 
    101 CB        -7.1714  -22.6568  -54.2343 C.3       18 UNK        -0.1800 
    102 C         -5.0728  -24.1527  -54.2521 C.2       18 UNK         0.5000 
    103 O         -5.3177  -24.3596  -55.4431 O.2       18 UNK        -0.5000 
    104 N         -4.0354  -24.6954  -53.6036 N.am      19 UNK        -0.5000 
    105 CA        -3.0700  -25.6175  -54.2046 C.3       19 UNK         0.1400 
    106 CB        -3.4328  -27.0588  -53.8132 C.3       19 UNK        -0.1800 
    107 C         -1.6106  -25.3088  -53.8260 C.2       19 UNK         0.5000 
    108 O         -0.7192  -25.6256  -54.6157 O.2       19 UNK        -0.5000 
    109 N         -1.3677  -24.7203  -52.6474 N.am      20 UNK        -0.5000 
    110 CA        -0.0299  -24.3726  -52.1707 C.3       20 UNK         0.1400 
    111 CB         0.0132  -24.4713  -50.6384 C.3       20 UNK        -0.1800 
    112 C          0.3579  -22.9560  -52.6155 C.2       20 UNK         0.5000 
    113 O         -0.4861  -22.0566  -52.5981 O.2       20 UNK        -0.5000 
    114 N          1.6436  -22.7857  -52.9575 N.am      21 UNK        -0.5000 
    115 CA         2.3106  -21.5263  -53.3014 C.3       21 UNK         0.1400 
    116 CB         2.5806  -20.7211  -52.0108 C.3       21 UNK        -0.1800 
    117 C          1.5565  -20.7358  -54.3937 C.2       21 UNK         0.5000 
    118 O          1.4311  -21.2287  -55.5163 O.2       21 UNK        -0.5000 
    119 N          1.0673  -19.5418  -54.0451 N.am      22 UNK        -0.5000 
    120 CA         0.2385  -18.6727  -54.8893 C.3       22 UNK         0.1400 
    121 C         -1.2691  -19.0624  -54.9585 C.2       22 UNK         0.5000 
    122 N         -1.7435  -20.0781  -54.2474 N.am      22 UNK        -0.7600 
    123 O         -2.0290  -18.4327  -55.6895 O.2       22 UNK        -0.5000 
    124 C124        0.4468  -17.1785  -54.5268 C.3       23 UNK        -0.0398 
    125 S125        0.1816  -16.7771  -52.7609 S.3       23 UNK        -0.2404 
    126 C126       -1.5099  -16.1124  -52.8110 C.3       23 UNK        -0.0205 
    127 H127       -1.5870   -8.4568  -42.9465 H         1 UNK         0.0600 
    128 H128       -2.9468   -8.2801  -44.0608 H         1 UNK         0.0600 
    129 H129       -1.4417   -7.4059  -44.3581 H         1 UNK         0.0600 
    130 H130       -0.2342   -8.3232  -45.9727 H         1 UNK         0.3000 
    131 H131        0.7695   -9.6912  -47.3355 H         1 UNK         0.0600 
    132 H132       -1.2698  -11.9470  -47.0802 H         1 UNK         0.0800 
    133 H133       -1.7808  -10.4116  -47.7136 H         1 UNK         0.0800 
    134 H134       -2.6208  -11.3668  -49.6671 H         1 UNK         0.0800 
    135 H135       -1.6764  -11.4107  -51.1265 H         1 UNK         0.0800 
    136 H136       -1.1863  -13.4807  -52.2202 H         1 UNK         0.1150 
    137 H137       -2.6086  -17.1572  -50.5386 H         1 UNK         0.1150 
    138 H138       -2.8123  -13.5312  -48.2545 H         1 UNK         0.1150 
    139 H139       -3.8963  -15.5140  -47.4316 H         1 UNK         0.0800 
    140 H140       -4.1477  -16.8887  -48.4874 H         1 UNK         0.0800 
    141 H141       -3.9596  -17.1841  -45.6720 H         1 UNK         0.0800 
    142 H142       -2.4548  -17.6098  -44.8966 H         1 UNK         0.0800 
    143 H143       -3.9237  -19.4030  -46.8864 H         1 UNK         0.0600 
    144 H144       -1.2968  -19.6317  -45.9044 H         1 UNK         0.3000 
    145 H145       -0.5157  -22.2365  -45.1070 H         1 UNK         0.0600 
    146 H146        0.2165  -23.9922  -46.7525 H         1 UNK         0.0600 
    147 H147       -1.4453  -24.2021  -46.2252 H         1 UNK         0.0600 
    148 H148       -1.1145  -23.5332  -47.8128 H         1 UNK         0.0600 
    149 H149        0.9825  -20.9459  -46.0883 H         1 UNK         0.3000 
    150 H150        2.2975  -20.4962  -48.9822 H         1 UNK         0.0600 
    151 H151        0.6064  -19.0036  -50.0285 H         1 UNK         0.0600 
    152 H152        1.9230  -18.0552  -49.3626 H         1 UNK         0.0600 
    153 H153        0.3771  -18.1623  -48.5133 H         1 UNK         0.0600 
    154 H154        1.7909  -18.8374  -46.5403 H         1 UNK         0.3000 
    155 H155        4.7651  -20.2278  -45.0079 H         1 UNK         0.0600 
    156 H156        5.0599  -17.9081  -45.9068 H         1 UNK         0.0600 
    157 H157        4.7866  -17.9495  -44.1723 H         1 UNK         0.0600 
    158 H158        3.4889  -17.4680  -45.2532 H         1 UNK         0.0600 
    159 H159        2.5219  -19.1416  -43.6850 H         1 UNK         0.3000 
    160 H160        0.7376  -22.0025  -42.9855 H         1 UNK         0.0600 
    161 H161        3.1929  -21.5228  -41.2193 H         1 UNK         0.0600 
    162 H162        2.7141  -23.0626  -41.9232 H         1 UNK         0.0600 
    163 H163        1.6948  -22.3038  -40.7127 H         1 UNK         0.0600 
    164 H164        1.5909  -19.6854  -41.3918 H         1 UNK         0.3000 
    165 H165       -1.5907  -18.5086  -41.3742 H         1 UNK         0.0600 
    166 H166       -0.1613  -17.1813  -39.8597 H         1 UNK         0.0600 
    167 H167        0.2328  -18.8837  -39.7277 H         1 UNK         0.0600 
    168 H168        1.2991  -17.7985  -40.6168 H         1 UNK         0.0600 
    169 H169       -1.5429  -16.7438  -42.6761 H         1 UNK         0.3000 
    170 H170       -0.9991  -15.5301  -44.4662 H         1 UNK         0.0600 
    171 H171       -0.6485  -14.1831  -42.3738 H         1 UNK         0.0600 
    172 H172        1.0041  -13.8480  -42.8718 H         1 UNK         0.0600 
    173 H173       -0.3537  -13.2255  -43.8134 H         1 UNK         0.0600 
    174 H174        1.0680  -14.1669  -45.4621 H         1 UNK         0.3000 
    175 H175        2.5722  -16.3517  -47.8074 H         1 UNK         0.0600 
    176 H176        1.5295  -14.7225  -49.3888 H         1 UNK         0.0600 
    177 H177        0.3319  -15.8601  -48.7977 H         1 UNK         0.0600 
    178 H178        0.3801  -14.2341  -48.1459 H         1 UNK         0.0600 
    179 H179        2.3895  -13.5357  -46.8151 H         1 UNK         0.3000 
    180 H180        5.7933  -13.4275  -46.0065 H         1 UNK         0.0600 
    181 H181        4.6646  -12.1559  -48.5588 H         1 UNK         0.0600 
    182 H182        6.1207  -13.1387  -48.4631 H         1 UNK         0.0600 
    183 H183        6.0645  -11.5833  -47.6499 H         1 UNK         0.0600 
    184 H184        3.7650  -11.4015  -46.4060 H         1 UNK         0.3000 
    185 H185        2.1157  -11.8001  -43.3414 H         1 UNK         0.0600 
    186 H186        4.1829  -10.6710  -42.4936 H         1 UNK         0.0600 
    187 H187        4.1941   -9.6252  -43.9086 H         1 UNK         0.0600 
    188 H188        2.8728   -9.5299  -42.7430 H         1 UNK         0.0600 
    189 H189        1.8681   -9.6044  -44.9529 H         1 UNK         0.3000 
    190 H190       -2.7674  -20.3156  -43.6816 H         1 UNK         0.3000 
    191 H191       -5.1890  -20.1675  -42.2095 H         1 UNK         0.0600 
    192 H192       -2.7760  -22.0432  -41.9482 H         1 UNK         0.0600 
    193 H193       -2.9858  -20.4876  -41.1451 H         1 UNK         0.0600 
    194 H194       -4.0235  -21.8374  -40.7234 H         1 UNK         0.0600 
    195 H195       -4.2539  -22.3874  -44.7376 H         1 UNK         0.3000 
    196 H196       -6.6300  -24.1322  -44.2423 H         1 UNK         0.0600 
    197 H197       -4.4371  -25.3342  -44.0235 H         1 UNK         0.0600 
    198 H198       -3.9771  -24.7935  -45.6357 H         1 UNK         0.0600 
    199 H199       -5.3390  -25.8905  -45.4217 H         1 UNK         0.0600 
    200 H200       -6.3118  -21.4343  -45.6589 H         1 UNK         0.3000 
    201 H201       -6.9922  -20.3478  -47.4592 H         1 UNK         0.0600 
    202 H202       -8.9037  -21.2291  -48.7494 H         1 UNK         0.0600 
    203 H203       -9.1287  -21.5768  -47.0429 H         1 UNK         0.0600 
    204 H204       -8.6202  -22.8547  -48.1456 H         1 UNK         0.0600 
    205 H205       -4.5047  -21.3654  -47.6772 H         1 UNK         0.3000 
    206 H206       -2.7811  -21.6645  -49.0063 H         1 UNK         0.0600 
    207 H207       -3.6404  -19.9013  -50.4897 H         1 UNK         0.0600 
    208 H208       -4.6095  -21.0691  -51.3820 H         1 UNK         0.0600 
    209 H209       -2.8537  -21.1571  -51.4280 H         1 UNK         0.0600 
    210 H210       -4.0500  -23.7800  -47.9448 H         1 UNK         0.3000 
    211 H211       -4.3850  -25.9740  -47.9076 H         1 UNK         0.0600 
    212 H212       -1.9542  -26.0337  -48.5671 H         1 UNK         0.0600 
    213 H213       -2.8436  -27.4421  -49.1266 H         1 UNK         0.0600 
    214 H214       -2.4362  -26.1651  -50.2607 H         1 UNK         0.0600 
    215 H215       -6.4164  -24.7044  -48.9572 H         1 UNK         0.3000 
    216 H216       -8.2146  -24.6266  -50.2395 H         1 UNK         0.0600 
    217 H217       -9.1973  -26.7310  -51.0757 H         1 UNK         0.0600 
    218 H218       -7.6612  -27.5678  -50.9053 H         1 UNK         0.0600 
    219 H219       -8.5153  -26.9850  -49.4772 H         1 UNK         0.0600 
    220 H220       -6.2878  -23.3305  -51.3381 H         1 UNK         0.3000 
    221 H221       -5.3707  -22.3883  -53.1155 H         1 UNK         0.0600 
    222 H222       -7.8348  -23.4431  -54.5959 H         1 UNK         0.0600 
    223 H223       -7.7646  -21.9683  -53.6325 H         1 UNK         0.0600 
    224 H224       -6.8153  -22.1027  -55.1035 H         1 UNK         0.0600 
    225 H225       -3.8967  -24.4514  -52.6245 H         1 UNK         0.3000 
    226 H226       -3.1198  -25.5424  -55.2928 H         1 UNK         0.0600 
    227 H227       -4.4537  -27.3040  -54.1068 H         1 UNK         0.0600 
    228 H228       -2.7708  -27.7754  -54.3007 H         1 UNK         0.0600 
    229 H229       -3.3476  -27.2126  -52.7373 H         1 UNK         0.0600 
    230 H230       -2.1394  -24.4055  -52.0652 H         1 UNK         0.3000 
    231 H231        0.6985  -25.0820  -52.5696 H         1 UNK         0.0600 
    232 H232        0.9839  -24.1591  -50.2510 H         1 UNK         0.0600 
    233 H233       -0.1508  -25.4950  -50.3047 H         1 UNK         0.0600 
    234 H234       -0.7395  -23.8342  -50.1748 H         1 UNK         0.0600 
    235 H235        2.2410  -23.6001  -52.9714 H         1 UNK         0.3000 
    236 H236        3.2769  -21.7908  -53.7331 H         1 UNK         0.0600 
    237 H237        3.2005  -21.2925  -51.3197 H         1 UNK         0.0600 
    238 H238        3.1116  -19.7917  -52.2206 H         1 UNK         0.0600 
    239 H239        1.6554  -20.4741  -51.4910 H         1 UNK         0.0600 
    240 H240        1.1852  -19.2284  -53.0926 H         1 UNK         0.3000 
    241 H241        0.5953  -18.7883  -55.9145 H         1 UNK         0.0600 
    242 H242       -2.7206  -20.3057  -54.3195 H         1 UNK         0.3800 
    243 H243       -1.1449  -20.6445  -53.6502 H         1 UNK         0.3800 
    244 H244        1.4753  -16.9024  -54.7626 H         1 UNK         0.0800 
    245 H245       -0.1682  -16.5337  -55.1567 H         1 UNK         0.0800 
    246 H246       -1.6122  -15.4228  -53.6502 H         1 UNK         0.0800 
    247 H247       -2.2143  -16.9256  -52.9927 H         1 UNK         0.0800 
@<TRIPOS>BOND
     1    1    2 1    
     2    1  127 1    
     3    1  128 1    
     4    1  129 1    
     5    2    3 2    
     6    2    4 am   BACKBONE|DICT|INTERRES
     7    4    5 1    
     8    4  130 1    
     9    5    6 1    
    10    5   65 1    
    11    5  131 1    
    12    6    7 1    
    13    6  132 1    
    14    6  133 1    
    15    7    8 1    
    16    8    9 1    
    17    8  134 1    
    18    8  135 1    
    19    9   10 ar   
    20    9   14 ar   
    21   10   11 ar   
    22   10  136 1    
    23   11   12 ar   
    24   11  126 1    
    25   12   13 ar   
    26   12  137 1    
    27   13   14 ar   
    28   13   15 1    
    29   14  138 1    
    30   15   16 1    
    31   15  139 1    
    32   15  140 1    
    33   16   17 1    
    34   17   18 1    
    35   17  141 1    
    36   17  142 1    
    37   18   19 1    
    38   18   67 1    
    39   18  143 1    
    40   19   20 am   BACKBONE|DICT|INTERRES
    41   19  144 1    
    42   20   21 2    
    43   20   22 1    
    44   22   23 1    
    45   22   24 1    
    46   22  145 1    
    47   23  146 1    
    48   23  147 1    
    49   23  148 1    
    50   24   25 am   BACKBONE|DICT|INTERRES
    51   24  149 1    
    52   25   26 2    
    53   25   27 1    
    54   27   28 1    
    55   27   29 1    
    56   27  150 1    
    57   28  151 1    
    58   28  152 1    
    59   28  153 1    
    60   29   30 am   BACKBONE|DICT|INTERRES
    61   29  154 1    
    62   30   31 2    
    63   30   32 1    
    64   32   33 1    
    65   32   34 1    
    66   32  155 1    
    67   33  156 1    
    68   33  157 1    
    69   33  158 1    
    70   34   35 am   BACKBONE|DICT|INTERRES
    71   34  159 1    
    72   35   36 2    
    73   35   37 1    
    74   37   38 1    
    75   37   39 1    
    76   37  160 1    
    77   38  161 1    
    78   38  162 1    
    79   38  163 1    
    80   39   40 am   BACKBONE|DICT|INTERRES
    81   39  164 1    
    82   40   41 2    
    83   40   42 1    
    84   42   43 1    
    85   42   44 1    
    86   42  165 1    
    87   43  166 1    
    88   43  167 1    
    89   43  168 1    
    90   44   45 am   BACKBONE|DICT|INTERRES
    91   44  169 1    
    92   45   46 2    
    93   45   47 1    
    94   47   48 1    
    95   47   49 1    
    96   47  170 1    
    97   48  171 1    
    98   48  172 1    
    99   48  173 1    
   100   49   50 am   BACKBONE|DICT|INTERRES
   101   49  174 1    
   102   50   51 2    
   103   50   52 1    
   104   52   53 1    
   105   52   54 1    
   106   52  175 1    
   107   53  176 1    
   108   53  177 1    
   109   53  178 1    
   110   54   55 am   BACKBONE|DICT|INTERRES
   111   54  179 1    
   112   55   56 2    
   113   55   57 1    
   114   57   58 1    
   115   57   59 1    
   116   57  180 1    
   117   58  181 1    
   118   58  182 1    
   119   58  183 1    
   120   59   60 am   BACKBONE|DICT|INTERRES
   121   59  184 1    
   122   60   61 2    
   123   60   62 1    
   124   62   63 1    
   125   62   64 1    
   126   62  185 1    
   127   63  186 1    
   128   63  187 1    
   129   63  188 1    
   130   64   65 am   BACKBONE|DICT|INTERRES
   131   64  189 1    
   132   65   66 2    
   133   67   68 2    
   134   67   69 am   BACKBONE|DICT|INTERRES
   135   69   70 1    
   136   69  190 1    
   137   70   71 1    
   138   70   72 1    
   139   70  191 1    
   140   71  192 1    
   141   71  193 1    
   142   71  194 1    
   143   72   73 2    
   144   72   74 am   BACKBONE|DICT|INTERRES
   145   74   75 1    
   146   74  195 1    
   147   75   76 1    
   148   75   77 1    
   149   75  196 1    
   150   76  197 1    
   151   76  198 1    
   152   76  199 1    
   153   77   78 2    
   154   77   79 am   BACKBONE|DICT|INTERRES
   155   79   80 1    
   156   79  200 1    
   157   80   81 1    
   158   80   82 1    
   159   80  201 1    
   160   81  202 1    
   161   81  203 1    
   162   81  204 1    
   163   82   83 2    
   164   82   84 am   BACKBONE|DICT|INTERRES
   165   84   85 1    
   166   84  205 1    
   167   85   86 1    
   168   85   87 1    
   169   85  206 1    
   170   86  207 1    
   171   86  208 1    
   172   86  209 1    
   173   87   88 2    
   174   87   89 am   BACKBONE|DICT|INTERRES
   175   89   90 1    
   176   89  210 1    
   177   90   91 1    
   178   90   92 1    
   179   90  211 1    
   180   91  212 1    
   181   91  213 1    
   182   91  214 1    
   183   92   93 2    
   184   92   94 am   BACKBONE|DICT|INTERRES
   185   94   95 1    
   186   94  215 1    
   187   95   96 1    
   188   95   97 1    
   189   95  216 1    
   190   96  217 1    
   191   96  218 1    
   192   96  219 1    
   193   97   98 2    
   194   97   99 am   BACKBONE|DICT|INTERRES
   195   99  100 1    
   196   99  220 1    
   197  100  101 1    
   198  100  102 1    
   199  100  221 1    
   200  101  222 1    
   201  101  223 1    
   202  101  224 1    
   203  102  103 2    
   204  102  104 am   BACKBONE|DICT|INTERRES
   205  104  105 1    
   206  104  225 1    
   207  105  106 1    
   208  105  107 1    
   209  105  226 1    
   210  106  227 1    
   211  106  228 1    
   212  106  229 1    
   213  107  108 2    
   214  107  109 am   BACKBONE|DICT|INTERRES
   215  109  110 1    
   216  109  230 1    
   217  110  111 1    
   218  110  112 1    
   219  110  231 1    
   220  111  232 1    
   221  111  233 1    
   222  111  234 1    
   223  112  113 2    
   224  112  114 am   BACKBONE|DICT|INTERRES
   225  114  115 1    
   226  114  235 1    
   227  115  116 1    
   228  115  117 1    
   229  115  236 1    
   230  116  237 1    
   231  116  238 1    
   232  116  239 1    
   233  117  118 2    
   234  117  119 am   BACKBONE|DICT|INTERRES
   235  119  120 1    
   236  119  240 1    
   237  120  121 1    
   238  120  124 1    
   239  120  241 1    
   240  121  122 am   BACKBONE|DICT|INTERRES
   241  121  123 2    
   242  122  242 1    
   243  122  243 1    
   244  124  125 1    
   245  124  244 1    
   246  124  245 1    
   247  125  126 1    
   248  126  246 1    
   249  126  247 1    
@<TRIPOS>SUBSTRUCTURE
     1 UNK         1 GROUP             0       ****    0 ROOT    
