@<TRIPOS>MOLECULE
3R540
247   249    1
SMALL
USER_CHARGES


@<TRIPOS>ATOM
      1 CA          5.7342  -14.6973  -44.1429 C.3       0 UNK        -0.1800 
      2 C           4.4828  -13.8682  -44.3896 C.2       0 UNK         0.5000 
      3 O           3.7714  -13.5343  -43.4426 O.2       0 UNK        -0.5000 
      4 N           4.2159  -13.5257  -45.6555 N.am      1 UNK        -0.5000 
      5 CA          3.0790  -12.7167  -46.1174 C.3       1 UNK         0.1400 
      6 C6          2.7959  -12.9532  -47.6238 C.3       23 UNK        -0.0398 
      7 S7          2.3218  -14.6740  -47.9957 S.3       23 UNK        -0.2404 
      8 C8          3.6468  -15.2321  -49.1099 C.3       23 UNK        -0.0205 
      9 C9          3.2092  -16.4625  -49.8919 C.ar      23 UNK        -0.0193 
     10 C10         2.4789  -16.3087  -51.0736 C.ar      23 UNK        -0.1150 
     11 C11         2.0484  -17.4256  -51.7942 C.ar      23 UNK        -0.0193 
     12 C12         2.3700  -18.7048  -51.3359 C.ar      23 UNK        -0.1150 
     13 C13         3.0791  -18.8777  -50.1425 C.ar      23 UNK        -0.0193 
     14 C14         3.5078  -17.7496  -49.4323 C.ar      23 UNK        -0.1150 
     15 C15         3.3590  -20.2781  -49.6080 C.3       23 UNK        -0.0205 
     16 S16         1.8437  -21.2912  -49.5010 S.3       23 UNK        -0.2404 
     17 C17         2.4401  -22.7429  -48.5697 C.3       23 UNK        -0.0398 
     18 CA          1.3752  -23.4374  -47.6822 C.3       11 UNK         0.1400 
     19 N           0.9135  -22.6133  -46.5574 N.am      11 UNK        -0.5000 
     20 C           0.2900  -23.1225  -45.4828 C.2       10 UNK         0.5000 
     21 O           0.0407  -24.3220  -45.3484 O.2       10 UNK        -0.5000 
     22 CA         -0.1547  -22.1384  -44.3848 C.3       10 UNK         0.1400 
     23 CB          1.0475  -21.6536  -43.5614 C.3       10 UNK        -0.1800 
     24 N          -0.9011  -20.9889  -44.8965 N.am      10 UNK        -0.5000 
     25 C          -2.0789  -21.0666  -45.5321 C.2       9 UNK         0.5000 
     26 O          -2.6502  -22.1233  -45.7867 O.2       9 UNK        -0.5000 
     27 CA         -2.7098  -19.7470  -46.0015 C.3       9 UNK         0.1400 
     28 CB         -3.4304  -19.0219  -44.8551 C.3       9 UNK        -0.1800 
     29 N          -1.7092  -18.8685  -46.5948 N.am      9 UNK        -0.5000 
     30 C          -1.1465  -19.0913  -47.7898 C.2       8 UNK         0.5000 
     31 O          -1.4846  -19.9990  -48.5469 O.2       8 UNK        -0.5000 
     32 CA          0.0005  -18.1552  -48.1892 C.3       8 UNK         0.1400 
     33 CB         -0.5690  -16.9057  -48.8780 C.3       8 UNK        -0.1800 
     34 N           0.8401  -17.7787  -47.0471 N.am      8 UNK        -0.5000 
     35 C           1.6097  -18.6341  -46.3546 C.2       7 UNK         0.5000 
     36 O           1.7015  -19.8341  -46.6071 O.2       7 UNK        -0.5000 
     37 CA          2.3693  -18.0853  -45.1324 C.3       7 UNK         0.1400 
     38 CB          3.7406  -17.5310  -45.5422 C.3       7 UNK        -0.1800 
     39 N           1.6325  -17.0681  -44.3857 N.am      7 UNK        -0.5000 
     40 C           0.4380  -17.2497  -43.8058 C.2       6 UNK         0.5000 
     41 O          -0.1708  -18.3205  -43.8185 O.2       6 UNK        -0.5000 
     42 CA         -0.2065  -16.0195  -43.1326 C.3       6 UNK         0.1400 
     43 CB          0.8190  -14.9546  -42.6906 C.3       6 UNK        -0.1800 
     44 N          -1.2374  -15.3773  -43.9558 N.am      6 UNK        -0.5000 
     45 C          -1.1487  -15.0281  -45.2497 C.2       5 UNK         0.5000 
     46 O          -0.2158  -15.3243  -45.9902 O.2       5 UNK        -0.5000 
     47 CA         -2.2698  -14.1256  -45.7903 C.3       5 UNK         0.1400 
     48 CB         -3.5619  -14.9288  -46.0113 C.3       5 UNK        -0.1800 
     49 N          -2.5302  -12.9795  -44.9130 N.am      5 UNK        -0.5000 
     50 C          -1.6156  -12.0572  -44.5750 C.2       4 UNK         0.5000 
     51 O          -0.4564  -12.0459  -45.0015 O.2       4 UNK        -0.5000 
     52 CA         -2.0679  -10.9905  -43.5589 C.3       4 UNK         0.1400 
     53 CB         -2.1966  -11.6045  -42.1548 C.3       4 UNK        -0.1800 
     54 N          -1.1113   -9.8866  -43.4942 N.am      4 UNK        -0.5000 
     55 C          -0.9638   -8.9453  -44.4361 C.2       3 UNK         0.5000 
     56 O          -1.7223   -8.8014  -45.3958 O.2       3 UNK        -0.5000 
     57 CA          0.2735   -8.0522  -44.2961 C.3       3 UNK         0.1400 
     58 CB          0.1116   -7.0679  -43.1194 C.3       3 UNK        -0.1800 
     59 N           1.4554   -8.9002  -44.1328 N.am      3 UNK        -0.5000 
     60 C           2.7268   -8.4890  -44.1923 C.2       2 UNK         0.5000 
     61 O           3.0623   -7.3191  -44.3817 O.2       2 UNK        -0.5000 
     62 CA          3.8149   -9.5640  -44.0101 C.3       2 UNK         0.1400 
     63 CB          4.2024   -9.6882  -42.5287 C.3       2 UNK        -0.1800 
     64 N           3.4424  -10.8884  -44.5128 N.am      2 UNK        -0.5000 
     65 C           3.3049  -11.2165  -45.8038 C.2       1 UNK         0.5000 
     66 O           3.4035  -10.3976  -46.7198 O.2       1 UNK        -0.5000 
     67 C           0.2058  -24.0256  -48.5010 C.2       11 UNK         0.5000 
     68 O           0.3306  -25.1383  -49.0139 O.2       11 UNK        -0.5000 
     69 N          -0.9189  -23.2987  -48.5750 N.am      12 UNK        -0.5000 
     70 CA         -2.1539  -23.7782  -49.1866 C.3       12 UNK         0.1400 
     71 CB         -3.1050  -22.6069  -49.4445 C.3       12 UNK        -0.1800 
     72 C          -2.8302  -24.8635  -48.3347 C.2       12 UNK         0.5000 
     73 O          -3.2131  -25.8970  -48.8801 O.2       12 UNK        -0.5000 
     74 N          -2.9265  -24.6468  -47.0144 N.am      13 UNK        -0.5000 
     75 CA         -3.5121  -25.5862  -46.0534 C.3       13 UNK         0.1400 
     76 CB         -3.5699  -24.9456  -44.6593 C.3       13 UNK        -0.1800 
     77 C          -2.7740  -26.9344  -45.9964 C.2       13 UNK         0.5000 
     78 O          -3.4212  -27.9701  -45.8432 O.2       13 UNK        -0.5000 
     79 N          -1.4491  -26.9106  -46.1988 N.am      14 UNK        -0.5000 
     80 CA         -0.6028  -28.0975  -46.3511 C.3       14 UNK         0.1400 
     81 CB          0.8694  -27.6605  -46.3850 C.3       14 UNK        -0.1800 
     82 C          -0.9466  -28.9553  -47.5903 C.2       14 UNK         0.5000 
     83 O          -0.6576  -30.1523  -47.5913 O.2       14 UNK        -0.5000 
     84 N          -1.5748  -28.3428  -48.6030 N.am      15 UNK        -0.5000 
     85 CA         -2.0920  -28.9889  -49.8105 C.3       15 UNK         0.1400 
     86 CB         -1.6599  -28.1521  -51.0275 C.3       15 UNK        -0.1800 
     87 C          -3.6282  -29.1523  -49.7695 C.2       15 UNK         0.5000 
     88 O          -4.2122  -29.5684  -50.7711 O.2       15 UNK        -0.5000 
     89 N          -4.2557  -28.8166  -48.6302 N.am      16 UNK        -0.5000 
     90 CA         -5.6994  -28.8031  -48.3645 C.3       16 UNK         0.1400 
     91 CB         -6.2799  -30.2322  -48.4092 C.3       16 UNK        -0.1800 
     92 C          -6.4889  -27.8007  -49.2384 C.2       16 UNK         0.5000 
     93 O          -7.6643  -28.0330  -49.5288 O.2       16 UNK        -0.5000 
     94 N          -5.8383  -26.6998  -49.6311 N.am      17 UNK        -0.5000 
     95 CA         -6.4064  -25.6040  -50.4129 C.3       17 UNK         0.1400 
     96 CB         -5.4485  -25.3042  -51.5795 C.3       17 UNK        -0.1800 
     97 C          -6.6050  -24.3539  -49.5349 C.2       17 UNK         0.5000 
     98 O          -6.1347  -24.3072  -48.3957 O.2       17 UNK        -0.5000 
     99 N          -7.2865  -23.3489  -50.0955 N.am      18 UNK        -0.5000 
    100 CA        -7.4184  -22.0078  -49.5243 C.3       18 UNK         0.1400 
    101 CB        -8.7926  -21.4424  -49.9183 C.3       18 UNK        -0.1800 
    102 C         -6.2990  -21.0938  -50.0542 C.2       18 UNK         0.5000 
    103 O         -5.7200  -21.3825  -51.1038 O.2       18 UNK        -0.5000 
    104 N         -6.0527  -19.9718  -49.3607 N.am      19 UNK        -0.5000 
    105 CA        -5.0225  -18.9696  -49.6862 C.3       19 UNK         0.1400 
    106 CB        -5.0244  -17.8790  -48.6030 C.3       19 UNK        -0.1800 
    107 C         -5.1519  -18.3295  -51.0878 C.2       19 UNK         0.5000 
    108 O         -4.1787  -17.7739  -51.5974 O.2       19 UNK        -0.5000 
    109 N         -6.3347  -18.4591  -51.7062 N.am      20 UNK        -0.5000 
    110 CA        -6.6264  -18.1176  -53.1000 C.3       20 UNK         0.1400 
    111 CB        -8.1321  -18.3016  -53.3434 C.3       20 UNK        -0.1800 
    112 C         -5.8107  -18.9237  -54.1362 C.2       20 UNK         0.5000 
    113 O         -5.7414  -18.5064  -55.2934 O.2       20 UNK        -0.5000 
    114 N         -5.1803  -20.0326  -53.7133 N.am      21 UNK        -0.5000 
    115 CA        -4.2748  -20.8760  -54.5028 C.3       21 UNK         0.1400 
    116 CB        -3.7801  -22.0354  -53.6233 C.3       21 UNK        -0.1800 
    117 C         -3.0755  -20.1343  -55.1338 C.2       21 UNK         0.5000 
    118 O         -2.5223  -20.6238  -56.1197 O.2       21 UNK        -0.5000 
    119 N         -2.7141  -18.9646  -54.5880 N.am      22 UNK        -0.5000 
    120 CA        -1.7611  -18.0176  -55.1906 C.3       22 UNK         0.1400 
    121 C         -2.2454  -17.3724  -56.5256 C.2       22 UNK         0.5000 
    122 N         -3.5283  -17.4114  -56.8692 N.am      22 UNK        -0.7600 
    123 O         -1.4348  -16.8251  -57.2681 O.2       22 UNK        -0.5000 
    124 C124       -1.3441  -16.9060  -54.1954 C.3       23 UNK        -0.0398 
    125 S125       -0.5529  -17.5461  -52.6832 S.3       23 UNK        -0.2404 
    126 C126        1.2063  -17.2524  -53.0469 C.3       23 UNK        -0.0205 
    127 H127        6.1133  -15.1397  -45.0644 H         1 UNK         0.0600 
    128 H128        5.5202  -15.5041  -43.4420 H         1 UNK         0.0600 
    129 H129        6.5172  -14.0727  -43.7132 H         1 UNK         0.0600 
    130 H130        4.8556  -13.8136  -46.3811 H         1 UNK         0.3000 
    131 H131        2.1889  -13.0243  -45.5634 H         1 UNK         0.0600 
    132 H132        1.9695  -12.3215  -47.9546 H         1 UNK         0.0800 
    133 H133        3.6579  -12.6661  -48.2281 H         1 UNK         0.0800 
    134 H134        4.5458  -15.4448  -48.5299 H         1 UNK         0.0800 
    135 H135        3.9056  -14.4343  -49.8077 H         1 UNK         0.0800 
    136 H136        2.2252  -15.3161  -51.4186 H         1 UNK         0.1150 
    137 H137        2.0280  -19.5693  -51.8874 H         1 UNK         0.1150 
    138 H138        4.0561  -17.8712  -48.5098 H         1 UNK         0.1150 
    139 H139        4.0820  -20.7737  -50.2569 H         1 UNK         0.0800 
    140 H140        3.8118  -20.2164  -48.6172 H         1 UNK         0.0800 
    141 H141        3.2781  -22.4404  -47.9407 H         1 UNK         0.0800 
    142 H142        2.8522  -23.4562  -49.2854 H         1 UNK         0.0800 
    143 H143        1.8809  -24.2983  -47.2386 H         1 UNK         0.0600 
    144 H144        1.0994  -21.6131  -46.6122 H         1 UNK         0.3000 
    145 H145       -0.8218  -22.6800  -43.7110 H         1 UNK         0.0600 
    146 H146        0.7361  -20.9773  -42.7650 H         1 UNK         0.0600 
    147 H147        1.5615  -22.4941  -43.0936 H         1 UNK         0.0600 
    148 H148        1.7756  -21.1310  -44.1805 H         1 UNK         0.0600 
    149 H149       -0.5158  -20.0703  -44.7010 H         1 UNK         0.3000 
    150 H150       -3.4521  -19.9914  -46.7642 H         1 UNK         0.0600 
    151 H151       -4.2143  -19.6513  -44.4321 H         1 UNK         0.0600 
    152 H152       -3.9035  -18.1041  -45.2042 H         1 UNK         0.0600 
    153 H153       -2.7506  -18.7597  -44.0448 H         1 UNK         0.0600 
    154 H154       -1.3271  -18.1400  -46.0087 H         1 UNK         0.3000 
    155 H155        0.6223  -18.6833  -48.9104 H         1 UNK         0.0600 
    156 H156       -1.1935  -16.3169  -48.2073 H         1 UNK         0.0600 
    157 H157       -1.1872  -17.1839  -49.7322 H         1 UNK         0.0600 
    158 H158        0.2244  -16.2632  -49.2546 H         1 UNK         0.0600 
    159 H159        0.7710  -16.8122  -46.7374 H         1 UNK         0.3000 
    160 H160        2.5402  -18.9215  -44.4527 H         1 UNK         0.0600 
    161 H161        3.6476  -16.6433  -46.1675 H         1 UNK         0.0600 
    162 H162        4.3099  -18.2732  -46.1031 H         1 UNK         0.0600 
    163 H163        4.3324  -17.2679  -44.6664 H         1 UNK         0.0600 
    164 H164        2.0266  -16.1389  -44.3764 H         1 UNK         0.3000 
    165 H165       -0.7044  -16.3911  -42.2359 H         1 UNK         0.0600 
    166 H166        0.3476  -14.1999  -42.0613 H         1 UNK         0.0600 
    167 H167        1.6308  -15.3952  -42.1102 H         1 UNK         0.0600 
    168 H168        1.2576  -14.4355  -43.5432 H         1 UNK         0.0600 
    169 H169       -2.0676  -15.0934  -43.4568 H         1 UNK         0.3000 
    170 H170       -1.9424  -13.7360  -46.7567 H         1 UNK         0.0600 
    171 H171       -3.3805  -15.7884  -46.6582 H         1 UNK         0.0600 
    172 H172       -3.9726  -15.3055  -45.0739 H         1 UNK         0.0600 
    173 H173       -4.3272  -14.3191  -46.4917 H         1 UNK         0.0600 
    174 H174       -3.4580  -12.9148  -44.5202 H         1 UNK         0.3000 
    175 H175       -3.0400  -10.6015  -43.8693 H         1 UNK         0.0600 
    176 H176       -1.2523  -12.0316  -41.8141 H         1 UNK         0.0600 
    177 H177       -2.5091  -10.8572  -41.4251 H         1 UNK         0.0600 
    178 H178       -2.9413  -12.4010  -42.1373 H         1 UNK         0.0600 
    179 H179       -0.4446   -9.9215  -42.7377 H         1 UNK         0.3000 
    180 H180        0.3811   -7.4827  -45.2215 H         1 UNK         0.0600 
    181 H181        0.0980   -7.5840  -42.1589 H         1 UNK         0.0600 
    182 H182       -0.8206   -6.5081  -43.2053 H         1 UNK         0.0600 
    183 H183        0.9197   -6.3375  -43.0930 H         1 UNK         0.0600 
    184 H184        1.2778   -9.8926  -44.0525 H         1 UNK         0.3000 
    185 H185        4.6964   -9.2328  -44.5631 H         1 UNK         0.0600 
    186 H186        4.5136   -8.7245  -42.1231 H         1 UNK         0.0600 
    187 H187        3.3685  -10.0460  -41.9236 H         1 UNK         0.0600 
    188 H188        5.0344  -10.3800  -42.3954 H         1 UNK         0.0600 
    189 H189        3.4016  -11.6450  -43.8359 H         1 UNK         0.3000 
    190 H190       -0.9412  -22.3792  -48.1539 H         1 UNK         0.3000 
    191 H191       -1.9066  -24.2214  -50.1537 H         1 UNK         0.0600 
    192 H192       -3.3931  -22.1008  -48.5226 H         1 UNK         0.0600 
    193 H193       -4.0142  -22.9627  -49.9242 H         1 UNK         0.0600 
    194 H194       -2.6575  -21.8701  -50.1114 H         1 UNK         0.0600 
    195 H195       -2.6347  -23.7479  -46.6366 H         1 UNK         0.3000 
    196 H196       -4.5355  -25.7873  -46.3773 H         1 UNK         0.0600 
    197 H197       -3.9884  -25.6366  -43.9264 H         1 UNK         0.0600 
    198 H198       -4.2009  -24.0568  -44.6618 H         1 UNK         0.0600 
    199 H199       -2.5790  -24.6538  -44.3098 H         1 UNK         0.0600 
    200 H200       -0.9895  -26.0093  -46.2643 H         1 UNK         0.3000 
    201 H201       -0.7516  -28.7246  -45.4698 H         1 UNK         0.0600 
    202 H202        1.1366  -27.1015  -45.4879 H         1 UNK         0.0600 
    203 H203        1.0815  -27.0296  -47.2481 H         1 UNK         0.0600 
    204 H204        1.5325  -28.5248  -46.4397 H         1 UNK         0.0600 
    205 H205       -1.7987  -27.3577  -48.5147 H         1 UNK         0.3000 
    206 H206       -1.6654  -29.9880  -49.9172 H         1 UNK         0.0600 
    207 H207       -0.5768  -28.0327  -51.0587 H         1 UNK         0.0600 
    208 H208       -1.9598  -28.6299  -51.9608 H         1 UNK         0.0600 
    209 H209       -2.1048  -27.1565  -51.0110 H         1 UNK         0.0600 
    210 H210       -3.6833  -28.4982  -47.8576 H         1 UNK         0.3000 
    211 H211       -5.8065  -28.4437  -47.3402 H         1 UNK         0.0600 
    212 H212       -6.2775  -30.6400  -49.4203 H         1 UNK         0.0600 
    213 H213       -7.3109  -30.2475  -48.0542 H         1 UNK         0.0600 
    214 H214       -5.7100  -30.9089  -47.7724 H         1 UNK         0.0600 
    215 H215       -4.8865  -26.5474  -49.3039 H         1 UNK         0.3000 
    216 H216       -7.3776  -25.8871  -50.8233 H         1 UNK         0.0600 
    217 H217       -5.8400  -24.5155  -52.2223 H         1 UNK         0.0600 
    218 H218       -5.3038  -26.1865  -52.2033 H         1 UNK         0.0600 
    219 H219       -4.4676  -24.9845  -51.2269 H         1 UNK         0.0600 
    220 H220       -7.5888  -23.4450  -51.0540 H         1 UNK         0.3000 
    221 H221       -7.3525  -22.0521  -48.4351 H         1 UNK         0.0600 
    222 H222       -8.8959  -21.3479  -51.0003 H         1 UNK         0.0600 
    223 H223       -9.5981  -22.0843  -49.5608 H         1 UNK         0.0600 
    224 H224       -8.9521  -20.4542  -49.4853 H         1 UNK         0.0600 
    225 H225       -6.5933  -19.7917  -48.5270 H         1 UNK         0.3000 
    226 H226       -4.0566  -19.4783  -49.6569 H         1 UNK         0.0600 
    227 H227       -4.8892  -18.3015  -47.6085 H         1 UNK         0.0600 
    228 H228       -4.2120  -17.1689  -48.7644 H         1 UNK         0.0600 
    229 H229       -5.9584  -17.3159  -48.6023 H         1 UNK         0.0600 
    230 H230       -7.0691  -18.9333  -51.2031 H         1 UNK         0.3000 
    231 H231       -6.3789  -17.0639  -53.2431 H         1 UNK         0.0600 
    232 H232       -8.7206  -17.6743  -52.6736 H         1 UNK         0.0600 
    233 H233       -8.4394  -19.3373  -53.1919 H         1 UNK         0.0600 
    234 H234       -8.4009  -18.0252  -54.3638 H         1 UNK         0.0600 
    235 H235       -5.3247  -20.3293  -52.7527 H         1 UNK         0.3000 
    236 H236       -4.8585  -21.2952  -55.3244 H         1 UNK         0.0600 
    237 H237       -3.1021  -22.6886  -54.1740 H         1 UNK         0.0600 
    238 H238       -3.2470  -21.6718  -52.7438 H         1 UNK         0.0600 
    239 H239       -4.6114  -22.6502  -53.2795 H         1 UNK         0.0600 
    240 H240       -3.1974  -18.6453  -53.7594 H         1 UNK         0.3000 
    241 H241       -0.8633  -18.5855  -55.4421 H         1 UNK         0.0600 
    242 H242       -3.8177  -16.9911  -57.7380 H         1 UNK         0.3800 
    243 H243       -4.2245  -17.8505  -56.2733 H         1 UNK         0.3800 
    244 H244       -2.2199  -16.3290  -53.8930 H         1 UNK         0.0800 
    245 H245       -0.6686  -16.1930  -54.6713 H         1 UNK         0.0800 
    246 H246        1.3395  -16.2466  -53.4482 H         1 UNK         0.0800 
    247 H247        1.5395  -17.9449  -53.8213 H         1 UNK         0.0800 
@<TRIPOS>BOND
     1    1    2 1    
     2    1  127 1    
     3    1  128 1    
     4    1  129 1    
     5    2    3 2    
     6    2    4 am   BACKBONE|DICT|INTERRES
     7    4    5 1    
     8    4  130 1    
     9    5    6 1    
    10    5   65 1    
    11    5  131 1    
    12    6    7 1    
    13    6  132 1    
    14    6  133 1    
    15    7    8 1    
    16    8    9 1    
    17    8  134 1    
    18    8  135 1    
    19    9   10 ar   
    20    9   14 ar   
    21   10   11 ar   
    22   10  136 1    
    23   11   12 ar   
    24   11  126 1    
    25   12   13 ar   
    26   12  137 1    
    27   13   14 ar   
    28   13   15 1    
    29   14  138 1    
    30   15   16 1    
    31   15  139 1    
    32   15  140 1    
    33   16   17 1    
    34   17   18 1    
    35   17  141 1    
    36   17  142 1    
    37   18   19 1    
    38   18   67 1    
    39   18  143 1    
    40   19   20 am   BACKBONE|DICT|INTERRES
    41   19  144 1    
    42   20   21 2    
    43   20   22 1    
    44   22   23 1    
    45   22   24 1    
    46   22  145 1    
    47   23  146 1    
    48   23  147 1    
    49   23  148 1    
    50   24   25 am   BACKBONE|DICT|INTERRES
    51   24  149 1    
    52   25   26 2    
    53   25   27 1    
    54   27   28 1    
    55   27   29 1    
    56   27  150 1    
    57   28  151 1    
    58   28  152 1    
    59   28  153 1    
    60   29   30 am   BACKBONE|DICT|INTERRES
    61   29  154 1    
    62   30   31 2    
    63   30   32 1    
    64   32   33 1    
    65   32   34 1    
    66   32  155 1    
    67   33  156 1    
    68   33  157 1    
    69   33  158 1    
    70   34   35 am   BACKBONE|DICT|INTERRES
    71   34  159 1    
    72   35   36 2    
    73   35   37 1    
    74   37   38 1    
    75   37   39 1    
    76   37  160 1    
    77   38  161 1    
    78   38  162 1    
    79   38  163 1    
    80   39   40 am   BACKBONE|DICT|INTERRES
    81   39  164 1    
    82   40   41 2    
    83   40   42 1    
    84   42   43 1    
    85   42   44 1    
    86   42  165 1    
    87   43  166 1    
    88   43  167 1    
    89   43  168 1    
    90   44   45 am   BACKBONE|DICT|INTERRES
    91   44  169 1    
    92   45   46 2    
    93   45   47 1    
    94   47   48 1    
    95   47   49 1    
    96   47  170 1    
    97   48  171 1    
    98   48  172 1    
    99   48  173 1    
   100   49   50 am   BACKBONE|DICT|INTERRES
   101   49  174 1    
   102   50   51 2    
   103   50   52 1    
   104   52   53 1    
   105   52   54 1    
   106   52  175 1    
   107   53  176 1    
   108   53  177 1    
   109   53  178 1    
   110   54   55 am   BACKBONE|DICT|INTERRES
   111   54  179 1    
   112   55   56 2    
   113   55   57 1    
   114   57   58 1    
   115   57   59 1    
   116   57  180 1    
   117   58  181 1    
   118   58  182 1    
   119   58  183 1    
   120   59   60 am   BACKBONE|DICT|INTERRES
   121   59  184 1    
   122   60   61 2    
   123   60   62 1    
   124   62   63 1    
   125   62   64 1    
   126   62  185 1    
   127   63  186 1    
   128   63  187 1    
   129   63  188 1    
   130   64   65 am   BACKBONE|DICT|INTERRES
   131   64  189 1    
   132   65   66 2    
   133   67   68 2    
   134   67   69 am   BACKBONE|DICT|INTERRES
   135   69   70 1    
   136   69  190 1    
   137   70   71 1    
   138   70   72 1    
   139   70  191 1    
   140   71  192 1    
   141   71  193 1    
   142   71  194 1    
   143   72   73 2    
   144   72   74 am   BACKBONE|DICT|INTERRES
   145   74   75 1    
   146   74  195 1    
   147   75   76 1    
   148   75   77 1    
   149   75  196 1    
   150   76  197 1    
   151   76  198 1    
   152   76  199 1    
   153   77   78 2    
   154   77   79 am   BACKBONE|DICT|INTERRES
   155   79   80 1    
   156   79  200 1    
   157   80   81 1    
   158   80   82 1    
   159   80  201 1    
   160   81  202 1    
   161   81  203 1    
   162   81  204 1    
   163   82   83 2    
   164   82   84 am   BACKBONE|DICT|INTERRES
   165   84   85 1    
   166   84  205 1    
   167   85   86 1    
   168   85   87 1    
   169   85  206 1    
   170   86  207 1    
   171   86  208 1    
   172   86  209 1    
   173   87   88 2    
   174   87   89 am   BACKBONE|DICT|INTERRES
   175   89   90 1    
   176   89  210 1    
   177   90   91 1    
   178   90   92 1    
   179   90  211 1    
   180   91  212 1    
   181   91  213 1    
   182   91  214 1    
   183   92   93 2    
   184   92   94 am   BACKBONE|DICT|INTERRES
   185   94   95 1    
   186   94  215 1    
   187   95   96 1    
   188   95   97 1    
   189   95  216 1    
   190   96  217 1    
   191   96  218 1    
   192   96  219 1    
   193   97   98 2    
   194   97   99 am   BACKBONE|DICT|INTERRES
   195   99  100 1    
   196   99  220 1    
   197  100  101 1    
   198  100  102 1    
   199  100  221 1    
   200  101  222 1    
   201  101  223 1    
   202  101  224 1    
   203  102  103 2    
   204  102  104 am   BACKBONE|DICT|INTERRES
   205  104  105 1    
   206  104  225 1    
   207  105  106 1    
   208  105  107 1    
   209  105  226 1    
   210  106  227 1    
   211  106  228 1    
   212  106  229 1    
   213  107  108 2    
   214  107  109 am   BACKBONE|DICT|INTERRES
   215  109  110 1    
   216  109  230 1    
   217  110  111 1    
   218  110  112 1    
   219  110  231 1    
   220  111  232 1    
   221  111  233 1    
   222  111  234 1    
   223  112  113 2    
   224  112  114 am   BACKBONE|DICT|INTERRES
   225  114  115 1    
   226  114  235 1    
   227  115  116 1    
   228  115  117 1    
   229  115  236 1    
   230  116  237 1    
   231  116  238 1    
   232  116  239 1    
   233  117  118 2    
   234  117  119 am   BACKBONE|DICT|INTERRES
   235  119  120 1    
   236  119  240 1    
   237  120  121 1    
   238  120  124 1    
   239  120  241 1    
   240  121  122 am   BACKBONE|DICT|INTERRES
   241  121  123 2    
   242  122  242 1    
   243  122  243 1    
   244  124  125 1    
   245  124  244 1    
   246  124  245 1    
   247  125  126 1    
   248  126  246 1    
   249  126  247 1    
@<TRIPOS>SUBSTRUCTURE
     1 UNK         1 GROUP             0       ****    0 ROOT    
