@<TRIPOS>MOLECULE
3R540
247   249    1
SMALL
USER_CHARGES


@<TRIPOS>ATOM
      1 CA          2.7892  -12.5711  -51.1271 C.3       0 UNK        -0.1800 
      2 C           2.3404  -13.4677  -49.9819 C.2       0 UNK         0.5000 
      3 O           3.1766  -13.9406  -49.2126 O.2       0 UNK        -0.5000 
      4 N           1.0260  -13.7038  -49.8708 N.am      1 UNK        -0.5000 
      5 CA          0.4002  -14.5134  -48.8194 C.3       1 UNK         0.1400 
      6 C6         -1.0859  -14.8098  -49.1589 C.3       23 UNK        -0.0398 
      7 S7         -1.9102  -15.9526  -47.9937 S.3       23 UNK        -0.2404 
      8 C8         -2.6115  -17.2207  -49.1037 C.3       23 UNK        -0.0205 
      9 C9         -1.6062  -18.1206  -49.8245 C.ar      23 UNK        -0.0193 
     10 C10        -2.0627  -18.9017  -50.8903 C.ar      23 UNK        -0.1150 
     11 C11        -1.1901  -19.7297  -51.5995 C.ar      23 UNK        -0.0193 
     12 C12         0.1609  -19.7688  -51.2433 C.ar      23 UNK        -0.1150 
     13 C13         0.6369  -18.9924  -50.1840 C.ar      23 UNK        -0.0193 
     14 C14        -0.2539  -18.1911  -49.4661 C.ar      23 UNK        -0.1150 
     15 C15         2.1211  -18.9761  -49.8478 C.3       23 UNK        -0.0205 
     16 S16         2.6592  -20.4622  -48.9496 S.3       23 UNK        -0.2404 
     17 C17         1.8543  -20.2368  -47.3270 C.3       23 UNK        -0.0398 
     18 CA          1.2308  -21.5469  -46.7972 C.3       11 UNK         0.1400 
     19 N           0.9954  -21.4970  -45.3538 N.am      11 UNK        -0.5000 
     20 C           0.7212  -22.5702  -44.5999 C.2       10 UNK         0.5000 
     21 O           0.6362  -23.7140  -45.0448 O.2       10 UNK        -0.5000 
     22 CA          0.4652  -22.3256  -43.1045 C.3       10 UNK         0.1400 
     23 CB          1.7872  -22.0940  -42.3578 C.3       10 UNK        -0.1800 
     24 N          -0.4472  -21.2090  -42.8621 N.am      10 UNK        -0.5000 
     25 C          -1.7264  -21.1759  -43.2628 C.2       9 UNK         0.5000 
     26 O          -2.2762  -22.0902  -43.8776 O.2       9 UNK        -0.5000 
     27 CA         -2.5171  -19.8923  -42.9548 C.3       9 UNK         0.1400 
     28 CB         -2.9382  -19.8490  -41.4783 C.3       9 UNK        -0.1800 
     29 N          -1.7800  -18.6742  -43.2872 N.am      9 UNK        -0.5000 
     30 C          -1.3641  -18.3456  -44.5195 C.2       8 UNK         0.5000 
     31 O          -1.5492  -19.0369  -45.5206 O.2       8 UNK        -0.5000 
     32 CA         -0.5518  -17.0470  -44.6349 C.3       8 UNK         0.1400 
     33 CB         -1.4524  -15.8211  -44.4045 C.3       8 UNK        -0.1800 
     34 N           0.5632  -17.0140  -43.6915 N.am      8 UNK        -0.5000 
     35 C           1.5511  -17.9168  -43.6194 C.2       7 UNK         0.5000 
     36 O           1.6726  -18.8737  -44.3834 O.2       7 UNK        -0.5000 
     37 CA          2.5418  -17.7521  -42.4559 C.3       7 UNK         0.1400 
     38 CB          3.5906  -16.6767  -42.7776 C.3       7 UNK        -0.1800 
     39 N           1.8676  -17.4308  -41.1965 N.am      7 UNK        -0.5000 
     40 C           1.0343  -18.2577  -40.5473 C.2       6 UNK         0.5000 
     41 O           0.7483  -19.3892  -40.9360 O.2       6 UNK        -0.5000 
     42 CA          0.3846  -17.7138  -39.2635 C.3       6 UNK         0.1400 
     43 CB          1.3468  -17.8364  -38.0725 C.3       6 UNK        -0.1800 
     44 N          -0.0405  -16.3219  -39.4056 N.am      6 UNK        -0.5000 
     45 C          -1.0491  -15.9185  -40.1904 C.2       5 UNK         0.5000 
     46 O          -1.7530  -16.6832  -40.8518 O.2       5 UNK        -0.5000 
     47 CA         -1.2686  -14.3959  -40.2855 C.3       5 UNK         0.1400 
     48 CB         -2.0928  -13.8893  -39.0924 C.3       5 UNK        -0.1800 
     49 N          -0.0149  -13.6356  -40.3748 N.am      5 UNK        -0.5000 
     50 C           0.8580  -13.7588  -41.3819 C.2       4 UNK         0.5000 
     51 O           0.7043  -14.5483  -42.3173 O.2       4 UNK        -0.5000 
     52 CA          2.1217  -12.8884  -41.3424 C.3       4 UNK         0.1400 
     53 CB          3.1779  -13.5002  -40.4027 C.3       4 UNK        -0.1800 
     54 N           2.6126  -12.8285  -42.7130 N.am      4 UNK        -0.5000 
     55 C           3.5802  -12.0628  -43.2250 C.2       3 UNK         0.5000 
     56 O           4.2797  -11.2932  -42.5658 O.2       3 UNK        -0.5000 
     57 CA          3.7601  -12.1572  -44.7538 C.3       3 UNK         0.1400 
     58 CB          4.6713  -13.3377  -45.1235 C.3       3 UNK        -0.1800 
     59 N           2.4747  -12.3100  -45.4414 N.am      3 UNK        -0.5000 
     60 C           1.5527  -11.3463  -45.5540 C.2       2 UNK         0.5000 
     61 O           1.7539  -10.1802  -45.2093 O.2       2 UNK        -0.5000 
     62 CA          0.1773  -11.7581  -46.1254 C.3       2 UNK         0.1400 
     63 CB         -0.7443  -10.5518  -46.3824 C.3       2 UNK        -0.1800 
     64 N           0.2551  -12.5505  -47.3544 N.am      2 UNK        -0.5000 
     65 C           0.5564  -13.8538  -47.4313 C.2       1 UNK         0.5000 
     66 O           0.9592  -14.5173  -46.4753 O.2       1 UNK        -0.5000 
     67 C          -0.0367  -21.9608  -47.5723 C.2       11 UNK         0.5000 
     68 O           0.0544  -22.8127  -48.4567 O.2       11 UNK        -0.5000 
     69 N          -1.2008  -21.4162  -47.1860 N.am      12 UNK        -0.5000 
     70 CA         -2.5042  -21.7863  -47.7392 C.3       12 UNK         0.1400 
     71 CB         -3.5964  -20.8906  -47.1386 C.3       12 UNK        -0.1800 
     72 C          -2.8474  -23.2703  -47.5200 C.2       12 UNK         0.5000 
     73 O          -3.3237  -23.9222  -48.4488 O.2       12 UNK        -0.5000 
     74 N          -2.5687  -23.7819  -46.3126 N.am      13 UNK        -0.5000 
     75 CA         -2.7398  -25.1883  -45.9517 C.3       13 UNK         0.1400 
     76 CB         -2.5937  -25.3528  -44.4314 C.3       13 UNK        -0.1800 
     77 C          -1.7661  -26.1173  -46.6993 C.2       13 UNK         0.5000 
     78 O          -2.1882  -27.1703  -47.1773 O.2       13 UNK        -0.5000 
     79 N          -0.4930  -25.7087  -46.8020 N.am      14 UNK        -0.5000 
     80 CA          0.5672  -26.4469  -47.4915 C.3       14 UNK         0.1400 
     81 CB          1.9292  -25.8057  -47.1852 C.3       14 UNK        -0.1800 
     82 C           0.3427  -26.5425  -49.0105 C.2       14 UNK         0.5000 
     83 O           0.5240  -27.6176  -49.5837 O.2       14 UNK        -0.5000 
     84 N          -0.0639  -25.4268  -49.6313 N.am      15 UNK        -0.5000 
     85 CA         -0.4030  -25.3543  -51.0534 C.3       15 UNK         0.1400 
     86 CB         -0.3951  -23.8856  -51.4965 C.3       15 UNK        -0.1800 
     87 C          -1.7628  -25.9984  -51.3816 C.2       15 UNK         0.5000 
     88 O          -1.9965  -26.3572  -52.5357 O.2       15 UNK        -0.5000 
     89 N          -2.6428  -26.0976  -50.3757 N.am      16 UNK        -0.5000 
     90 CA         -3.9960  -26.6671  -50.3592 C.3       16 UNK         0.1400 
     91 CB         -3.9827  -28.1519  -50.7684 C.3       16 UNK        -0.1800 
     92 C          -5.0500  -25.8754  -51.1596 C.2       16 UNK         0.5000 
     93 O          -6.2198  -25.8844  -50.7744 O.2       16 UNK        -0.5000 
     94 N          -4.6361  -25.2065  -52.2437 N.am      17 UNK        -0.5000 
     95 CA         -5.4783  -24.3718  -53.1014 C.3       17 UNK         0.1400 
     96 CB         -4.6754  -23.9652  -54.3479 C.3       17 UNK        -0.1800 
     97 C          -6.0234  -23.1273  -52.3756 C.2       17 UNK         0.5000 
     98 O          -7.1979  -22.7976  -52.5453 O.2       17 UNK        -0.5000 
     99 N          -5.1580  -22.4907  -51.5692 N.am      18 UNK        -0.5000 
    100 CA        -5.3978  -21.2811  -50.7725 C.3       18 UNK         0.1400 
    101 CB        -6.4431  -21.5719  -49.6733 C.3       18 UNK        -0.1800 
    102 C         -5.7607  -20.0347  -51.6149 C.2       18 UNK         0.5000 
    103 O         -5.6981  -20.0707  -52.8469 O.2       18 UNK        -0.5000 
    104 N         -6.1019  -18.9372  -50.9199 N.am      19 UNK        -0.5000 
    105 CA        -6.5464  -17.6443  -51.4556 C.3       19 UNK         0.1400 
    106 CB        -8.0088  -17.7629  -51.9426 C.3       19 UNK        -0.1800 
    107 C         -5.5734  -17.0812  -52.5149 C.2       19 UNK         0.5000 
    108 O         -4.4273  -16.7841  -52.1800 O.2       19 UNK        -0.5000 
    109 N         -6.0348  -16.9763  -53.7649 N.am      20 UNK        -0.5000 
    110 CA        -5.2259  -16.6715  -54.9441 C.3       20 UNK         0.1400 
    111 CB        -5.6679  -15.3109  -55.5106 C.3       20 UNK        -0.1800 
    112 C         -5.3465  -17.7919  -55.9971 C.2       20 UNK         0.5000 
    113 O         -4.9226  -17.5983  -57.1378 O.2       20 UNK        -0.5000 
    114 N         -5.9171  -18.9475  -55.6181 N.am      21 UNK        -0.5000 
    115 CA        -6.1919  -20.0770  -56.5123 C.3       21 UNK         0.1400 
    116 CB        -7.1385  -21.0607  -55.8101 C.3       21 UNK        -0.1800 
    117 C         -4.9205  -20.7904  -57.0089 C.2       21 UNK         0.5000 
    118 O         -4.9591  -21.4370  -58.0563 O.2       21 UNK        -0.5000 
    119 N         -3.8149  -20.6303  -56.2723 N.am      22 UNK        -0.5000 
    120 CA        -2.4615  -21.0167  -56.6927 C.3       22 UNK         0.1400 
    121 C         -1.8178  -20.0846  -57.7658 C.2       22 UNK         0.5000 
    122 N         -2.4160  -18.9557  -58.1318 N.am      22 UNK        -0.7600 
    123 O         -0.7558  -20.4036  -58.2937 O.2       22 UNK        -0.5000 
    124 C124       -1.5272  -21.2390  -55.4764 C.3       23 UNK        -0.0398 
    125 S125       -1.3847  -19.7964  -54.3587 S.3       23 UNK        -0.2404 
    126 C126       -1.6998  -20.5818  -52.7499 C.3       23 UNK        -0.0205 
    127 H127        1.9473  -12.2286  -51.7292 H         1 UNK         0.0600 
    128 H128        3.3064  -11.6947  -50.7363 H         1 UNK         0.0600 
    129 H129        3.4760  -13.1109  -51.7790 H         1 UNK         0.0600 
    130 H130        0.3972  -13.2914  -50.5453 H         1 UNK         0.3000 
    131 H131        0.9364  -15.4634  -48.7865 H         1 UNK         0.0600 
    132 H132       -1.1485  -15.2331  -50.1624 H         1 UNK         0.0800 
    133 H133       -1.6654  -13.8857  -49.1911 H         1 UNK         0.0800 
    134 H134       -3.2791  -17.8501  -48.5170 H         1 UNK         0.0800 
    135 H135       -3.2379  -16.7150  -49.8387 H         1 UNK         0.0800 
    136 H136       -3.1021  -18.8542  -51.1787 H         1 UNK         0.1150 
    137 H137        0.8452  -20.3946  -51.7989 H         1 UNK         0.1150 
    138 H138        0.1220  -17.6115  -48.6376 H         1 UNK         0.1150 
    139 H139        2.6938  -18.9027  -50.7734 H         1 UNK         0.0800 
    140 H140        2.3773  -18.0897  -49.2650 H         1 UNK         0.0800 
    141 H141        1.1132  -19.4375  -47.3549 H         1 UNK         0.0800 
    142 H142        2.6325  -19.8959  -46.6433 H         1 UNK         0.0800 
    143 H143        1.9668  -22.3389  -46.9527 H         1 UNK         0.0600 
    144 H144        1.0630  -20.5818  -44.9144 H         1 UNK         0.3000 
    145 H145        0.0011  -23.2264  -42.6977 H         1 UNK         0.0600 
    146 H146        1.6243  -22.0251  -41.2822 H         1 UNK         0.0600 
    147 H147        2.4830  -22.9164  -42.5288 H         1 UNK         0.0600 
    148 H148        2.2769  -21.1749  -42.6814 H         1 UNK         0.0600 
    149 H149       -0.0733  -20.4262  -42.3321 H         1 UNK         0.3000 
    150 H150       -3.4217  -19.9072  -43.5661 H         1 UNK         0.0600 
    151 H151       -3.5004  -20.7428  -41.2052 H         1 UNK         0.0600 
    152 H152       -3.5762  -18.9883  -41.2764 H         1 UNK         0.0600 
    153 H153       -2.0752  -19.7862  -40.8144 H         1 UNK         0.0600 
    154 H154       -1.5792  -18.0421  -42.5203 H         1 UNK         0.3000 
    155 H155       -0.1399  -16.9940  -45.6445 H         1 UNK         0.0600 
    156 H156       -1.8221  -15.7751  -43.3807 H         1 UNK         0.0600 
    157 H157       -2.3214  -15.8407  -45.0621 H         1 UNK         0.0600 
    158 H158       -0.9153  -14.8942  -44.6022 H         1 UNK         0.0600 
    159 H159        0.5753  -16.2267  -43.0476 H         1 UNK         0.3000 
    160 H160        3.0615  -18.7034  -42.3241 H         1 UNK         0.0600 
    161 H161        4.1289  -16.9216  -43.6941 H         1 UNK         0.0600 
    162 H162        4.3292  -16.5929  -41.9804 H         1 UNK         0.0600 
    163 H163        3.1352  -15.6972  -42.9205 H         1 UNK         0.0600 
    164 H164        2.0107  -16.5041  -40.8272 H         1 UNK         0.3000 
    165 H165       -0.4980  -18.3218  -39.0528 H         1 UNK         0.0600 
    166 H166        0.8674  -17.5224  -37.1451 H         1 UNK         0.0600 
    167 H167        1.6688  -18.8698  -37.9369 H         1 UNK         0.0600 
    168 H168        2.2421  -17.2288  -38.2104 H         1 UNK         0.0600 
    169 H169        0.4856  -15.6257  -38.8986 H         1 UNK         0.3000 
    170 H170       -1.8393  -14.2048  -41.1969 H         1 UNK         0.0600 
    171 H171       -3.0371  -14.4298  -39.0132 H         1 UNK         0.0600 
    172 H172       -1.5605  -14.0182  -38.1492 H         1 UNK         0.0600 
    173 H173       -2.3337  -12.8317  -39.2005 H         1 UNK         0.0600 
    174 H174        0.1700  -12.9736  -39.6348 H         1 UNK         0.3000 
    175 H175        1.8561  -11.8826  -41.0122 H         1 UNK         0.0600 
    176 H176        2.7942  -13.5880  -39.3856 H         1 UNK         0.0600 
    177 H177        3.4797  -14.4959  -40.7270 H         1 UNK         0.0600 
    178 H178        4.0738  -12.8818  -40.3528 H         1 UNK         0.0600 
    179 H179        2.0811  -13.4242  -43.3373 H         1 UNK         0.3000 
    180 H180        4.2338  -11.2353  -45.0975 H         1 UNK         0.0600 
    181 H181        4.2363  -14.2925  -44.8257 H         1 UNK         0.0600 
    182 H182        5.6420  -13.2505  -44.6337 H         1 UNK         0.0600 
    183 H183        4.8504  -13.3738  -46.1984 H         1 UNK         0.0600 
    184 H184        2.2190  -13.2412  -45.7581 H         1 UNK         0.3000 
    185 H185       -0.3002  -12.3720  -45.3585 H         1 UNK         0.0600 
    186 H186       -0.8969   -9.9711  -45.4717 H         1 UNK         0.0600 
    187 H187       -0.3281   -9.8814  -47.1354 H         1 UNK         0.0600 
    188 H188       -1.7282  -10.8728  -46.7251 H         1 UNK         0.0600 
    189 H189        0.0051  -12.0691  -48.2055 H         1 UNK         0.3000 
    190 H190       -1.2050  -20.7008  -46.4635 H         1 UNK         0.3000 
    191 H191       -2.4667  -21.6085  -48.8158 H         1 UNK         0.0600 
    192 H192       -3.6289  -20.9704  -46.0517 H         1 UNK         0.0600 
    193 H193       -4.5815  -21.1638  -47.5142 H         1 UNK         0.0600 
    194 H194       -3.4281  -19.8448  -47.3890 H         1 UNK         0.0600 
    195 H195       -2.2189  -23.1651  -45.5857 H         1 UNK         0.3000 
    196 H196       -3.7549  -25.4829  -46.2261 H         1 UNK         0.0600 
    197 H197       -1.6103  -25.0351  -44.0835 H         1 UNK         0.0600 
    198 H198       -2.7275  -26.3940  -44.1356 H         1 UNK         0.0600 
    199 H199       -3.3411  -24.7645  -43.8989 H         1 UNK         0.0600 
    200 H200       -0.2136  -24.8514  -46.3323 H         1 UNK         0.3000 
    201 H201        0.5768  -27.4639  -47.0938 H         1 UNK         0.0600 
    202 H202        2.1389  -25.8184  -46.1155 H         1 UNK         0.0600 
    203 H203        1.9706  -24.7696  -47.5223 H         1 UNK         0.0600 
    204 H204        2.7367  -26.3458  -47.6809 H         1 UNK         0.0600 
    205 H205       -0.1355  -24.5601  -49.1013 H         1 UNK         0.3000 
    206 H206        0.3627  -25.8861  -51.6219 H         1 UNK         0.0600 
    207 H207       -1.1558  -23.3053  -50.9721 H         1 UNK         0.0600 
    208 H208       -0.5898  -23.8055  -52.5665 H         1 UNK         0.0600 
    209 H209        0.5712  -23.4184  -51.3049 H         1 UNK         0.0600 
    210 H210       -2.3680  -25.6800  -49.4955 H         1 UNK         0.3000 
    211 H211       -4.3096  -26.6203  -49.3150 H         1 UNK         0.0600 
    212 H212       -3.7043  -28.2853  -51.8140 H         1 UNK         0.0600 
    213 H213       -4.9682  -28.5998  -50.6354 H         1 UNK         0.0600 
    214 H214       -3.2817  -28.7211  -50.1576 H         1 UNK         0.0600 
    215 H215       -3.6690  -25.3332  -52.5219 H         1 UNK         0.3000 
    216 H216       -6.3302  -24.9742  -53.4233 H         1 UNK         0.0600 
    217 H217       -5.2927  -23.3971  -55.0437 H         1 UNK         0.0600 
    218 H218       -4.3077  -24.8401  -54.8843 H         1 UNK         0.0600 
    219 H219       -3.8167  -23.3452  -54.0894 H         1 UNK         0.0600 
    220 H220       -4.2281  -22.8763  -51.5026 H         1 UNK         0.3000 
    221 H221       -4.4501  -21.0536  -50.2833 H         1 UNK         0.0600 
    222 H222       -7.4402  -21.7151  -50.0906 H         1 UNK         0.0600 
    223 H223       -6.1836  -22.4728  -49.1164 H         1 UNK         0.0600 
    224 H224       -6.5081  -20.7583  -48.9509 H         1 UNK         0.0600 
    225 H225       -6.0830  -18.9928  -49.9121 H         1 UNK         0.3000 
    226 H226       -6.5305  -16.9380  -50.6243 H         1 UNK         0.0600 
    227 H227       -8.6619  -18.0773  -51.1284 H         1 UNK         0.0600 
    228 H228       -8.3877  -16.8044  -52.3000 H         1 UNK         0.0600 
    229 H229       -8.1185  -18.4919  -52.7466 H         1 UNK         0.0600 
    230 H230       -6.9947  -17.2356  -53.9442 H         1 UNK         0.3000 
    231 H231       -4.1681  -16.6092  -54.6806 H         1 UNK         0.0600 
    232 H232       -5.0568  -15.0223  -56.3667 H         1 UNK         0.0600 
    233 H233       -5.5677  -14.5236  -54.7633 H         1 UNK         0.0600 
    234 H234       -6.7077  -15.3311  -55.8390 H         1 UNK         0.0600 
    235 H235       -6.1165  -19.0995  -54.6347 H         1 UNK         0.3000 
    236 H236       -6.7061  -19.6879  -57.3936 H         1 UNK         0.0600 
    237 H237       -7.3779  -21.9061  -56.4562 H         1 UNK         0.0600 
    238 H238       -6.6955  -21.4589  -54.8986 H         1 UNK         0.0600 
    239 H239       -8.0788  -20.5799  -55.5405 H         1 UNK         0.0600 
    240 H240       -3.8758  -20.0817  -55.4268 H         1 UNK         0.3000 
    241 H241       -2.5500  -21.9858  -57.1878 H         1 UNK         0.0600 
    242 H242       -1.9808  -18.3771  -58.8326 H         1 UNK         0.3800 
    243 H243       -3.2957  -18.6611  -57.7237 H         1 UNK         0.3800 
    244 H244       -1.8926  -22.0968  -54.9118 H         1 UNK         0.0800 
    245 H245       -0.5251  -21.5205  -55.8044 H         1 UNK         0.0800 
    246 H246       -1.1980  -21.5468  -52.7192 H         1 UNK         0.0800 
    247 H247       -2.7677  -20.7799  -52.6462 H         1 UNK         0.0800 
@<TRIPOS>BOND
     1    1    2 1    
     2    1  127 1    
     3    1  128 1    
     4    1  129 1    
     5    2    3 2    
     6    2    4 am   BACKBONE|DICT|INTERRES
     7    4    5 1    
     8    4  130 1    
     9    5    6 1    
    10    5   65 1    
    11    5  131 1    
    12    6    7 1    
    13    6  132 1    
    14    6  133 1    
    15    7    8 1    
    16    8    9 1    
    17    8  134 1    
    18    8  135 1    
    19    9   10 ar   
    20    9   14 ar   
    21   10   11 ar   
    22   10  136 1    
    23   11   12 ar   
    24   11  126 1    
    25   12   13 ar   
    26   12  137 1    
    27   13   14 ar   
    28   13   15 1    
    29   14  138 1    
    30   15   16 1    
    31   15  139 1    
    32   15  140 1    
    33   16   17 1    
    34   17   18 1    
    35   17  141 1    
    36   17  142 1    
    37   18   19 1    
    38   18   67 1    
    39   18  143 1    
    40   19   20 am   BACKBONE|DICT|INTERRES
    41   19  144 1    
    42   20   21 2    
    43   20   22 1    
    44   22   23 1    
    45   22   24 1    
    46   22  145 1    
    47   23  146 1    
    48   23  147 1    
    49   23  148 1    
    50   24   25 am   BACKBONE|DICT|INTERRES
    51   24  149 1    
    52   25   26 2    
    53   25   27 1    
    54   27   28 1    
    55   27   29 1    
    56   27  150 1    
    57   28  151 1    
    58   28  152 1    
    59   28  153 1    
    60   29   30 am   BACKBONE|DICT|INTERRES
    61   29  154 1    
    62   30   31 2    
    63   30   32 1    
    64   32   33 1    
    65   32   34 1    
    66   32  155 1    
    67   33  156 1    
    68   33  157 1    
    69   33  158 1    
    70   34   35 am   BACKBONE|DICT|INTERRES
    71   34  159 1    
    72   35   36 2    
    73   35   37 1    
    74   37   38 1    
    75   37   39 1    
    76   37  160 1    
    77   38  161 1    
    78   38  162 1    
    79   38  163 1    
    80   39   40 am   BACKBONE|DICT|INTERRES
    81   39  164 1    
    82   40   41 2    
    83   40   42 1    
    84   42   43 1    
    85   42   44 1    
    86   42  165 1    
    87   43  166 1    
    88   43  167 1    
    89   43  168 1    
    90   44   45 am   BACKBONE|DICT|INTERRES
    91   44  169 1    
    92   45   46 2    
    93   45   47 1    
    94   47   48 1    
    95   47   49 1    
    96   47  170 1    
    97   48  171 1    
    98   48  172 1    
    99   48  173 1    
   100   49   50 am   BACKBONE|DICT|INTERRES
   101   49  174 1    
   102   50   51 2    
   103   50   52 1    
   104   52   53 1    
   105   52   54 1    
   106   52  175 1    
   107   53  176 1    
   108   53  177 1    
   109   53  178 1    
   110   54   55 am   BACKBONE|DICT|INTERRES
   111   54  179 1    
   112   55   56 2    
   113   55   57 1    
   114   57   58 1    
   115   57   59 1    
   116   57  180 1    
   117   58  181 1    
   118   58  182 1    
   119   58  183 1    
   120   59   60 am   BACKBONE|DICT|INTERRES
   121   59  184 1    
   122   60   61 2    
   123   60   62 1    
   124   62   63 1    
   125   62   64 1    
   126   62  185 1    
   127   63  186 1    
   128   63  187 1    
   129   63  188 1    
   130   64   65 am   BACKBONE|DICT|INTERRES
   131   64  189 1    
   132   65   66 2    
   133   67   68 2    
   134   67   69 am   BACKBONE|DICT|INTERRES
   135   69   70 1    
   136   69  190 1    
   137   70   71 1    
   138   70   72 1    
   139   70  191 1    
   140   71  192 1    
   141   71  193 1    
   142   71  194 1    
   143   72   73 2    
   144   72   74 am   BACKBONE|DICT|INTERRES
   145   74   75 1    
   146   74  195 1    
   147   75   76 1    
   148   75   77 1    
   149   75  196 1    
   150   76  197 1    
   151   76  198 1    
   152   76  199 1    
   153   77   78 2    
   154   77   79 am   BACKBONE|DICT|INTERRES
   155   79   80 1    
   156   79  200 1    
   157   80   81 1    
   158   80   82 1    
   159   80  201 1    
   160   81  202 1    
   161   81  203 1    
   162   81  204 1    
   163   82   83 2    
   164   82   84 am   BACKBONE|DICT|INTERRES
   165   84   85 1    
   166   84  205 1    
   167   85   86 1    
   168   85   87 1    
   169   85  206 1    
   170   86  207 1    
   171   86  208 1    
   172   86  209 1    
   173   87   88 2    
   174   87   89 am   BACKBONE|DICT|INTERRES
   175   89   90 1    
   176   89  210 1    
   177   90   91 1    
   178   90   92 1    
   179   90  211 1    
   180   91  212 1    
   181   91  213 1    
   182   91  214 1    
   183   92   93 2    
   184   92   94 am   BACKBONE|DICT|INTERRES
   185   94   95 1    
   186   94  215 1    
   187   95   96 1    
   188   95   97 1    
   189   95  216 1    
   190   96  217 1    
   191   96  218 1    
   192   96  219 1    
   193   97   98 2    
   194   97   99 am   BACKBONE|DICT|INTERRES
   195   99  100 1    
   196   99  220 1    
   197  100  101 1    
   198  100  102 1    
   199  100  221 1    
   200  101  222 1    
   201  101  223 1    
   202  101  224 1    
   203  102  103 2    
   204  102  104 am   BACKBONE|DICT|INTERRES
   205  104  105 1    
   206  104  225 1    
   207  105  106 1    
   208  105  107 1    
   209  105  226 1    
   210  106  227 1    
   211  106  228 1    
   212  106  229 1    
   213  107  108 2    
   214  107  109 am   BACKBONE|DICT|INTERRES
   215  109  110 1    
   216  109  230 1    
   217  110  111 1    
   218  110  112 1    
   219  110  231 1    
   220  111  232 1    
   221  111  233 1    
   222  111  234 1    
   223  112  113 2    
   224  112  114 am   BACKBONE|DICT|INTERRES
   225  114  115 1    
   226  114  235 1    
   227  115  116 1    
   228  115  117 1    
   229  115  236 1    
   230  116  237 1    
   231  116  238 1    
   232  116  239 1    
   233  117  118 2    
   234  117  119 am   BACKBONE|DICT|INTERRES
   235  119  120 1    
   236  119  240 1    
   237  120  121 1    
   238  120  124 1    
   239  120  241 1    
   240  121  122 am   BACKBONE|DICT|INTERRES
   241  121  123 2    
   242  122  242 1    
   243  122  243 1    
   244  124  125 1    
   245  124  244 1    
   246  124  245 1    
   247  125  126 1    
   248  126  246 1    
   249  126  247 1    
@<TRIPOS>SUBSTRUCTURE
     1 UNK         1 GROUP             0       ****    0 ROOT    
