@<TRIPOS>MOLECULE
3R540
247   249    1
SMALL
USER_CHARGES


@<TRIPOS>ATOM
      1 CA         -0.6621  -11.0046  -50.0877 C.3       0 UNK        -0.1800 
      2 C           0.0349  -12.1918  -50.7461 C.2       0 UNK         0.5000 
      3 O          -0.2617  -12.5027  -51.8970 O.2       0 UNK        -0.5000 
      4 N           0.9675  -12.8786  -50.0724 N.am      1 UNK        -0.5000 
      5 CA          1.4092  -12.6839  -48.6836 C.3       1 UNK         0.1400 
      6 C6          2.8098  -13.3069  -48.4116 C.3       23 UNK        -0.0398 
      7 S7          3.1325  -14.8969  -49.2587 S.3       23 UNK        -0.2404 
      8 C8          2.5444  -16.1212  -48.0474 C.3       23 UNK        -0.0205 
      9 C9          2.0857  -17.3936  -48.7443 C.ar      23 UNK        -0.0193 
     10 C10         0.9977  -17.3494  -49.6181 C.ar      23 UNK        -0.1150 
     11 C11         0.5889  -18.4909  -50.3083 C.ar      23 UNK        -0.0193 
     12 C12         1.2552  -19.6998  -50.0899 C.ar      23 UNK        -0.1150 
     13 C13         2.3273  -19.7727  -49.1892 C.ar      23 UNK        -0.0193 
     14 C14         2.7432  -18.6085  -48.5320 C.ar      23 UNK        -0.1150 
     15 C15         3.0913  -21.0723  -48.9315 C.3       23 UNK        -0.0205 
     16 S16         2.1413  -22.6139  -49.1758 S.3       23 UNK        -0.2404 
     17 C17         0.7652  -22.4112  -47.9986 C.3       23 UNK        -0.0398 
     18 CA          0.2206  -23.7770  -47.5206 C.3       11 UNK         0.1400 
     19 N           1.1614  -24.4897  -46.6508 N.am      11 UNK        -0.5000 
     20 C           1.0677  -25.7892  -46.3366 C.2       10 UNK         0.5000 
     21 O           0.1777  -26.5303  -46.7514 O.2       10 UNK        -0.5000 
     22 CA          2.1179  -26.3400  -45.3553 C.3       10 UNK         0.1400 
     23 CB          3.4518  -26.5960  -46.0728 C.3       10 UNK        -0.1800 
     24 N           2.3399  -25.4487  -44.2163 N.am      10 UNK        -0.5000 
     25 C           1.4150  -25.1585  -43.2904 C.2       9 UNK         0.5000 
     26 O           0.2870  -25.6482  -43.2743 O.2       9 UNK        -0.5000 
     27 CA          1.7932  -24.1032  -42.2346 C.3       9 UNK         0.1400 
     28 CB          2.4802  -24.7672  -41.0322 C.3       9 UNK        -0.1800 
     29 N           2.6461  -23.0271  -42.7488 N.am      9 UNK        -0.5000 
     30 C           2.3277  -22.2128  -43.7635 C.2       8 UNK         0.5000 
     31 O           1.2976  -22.3202  -44.4349 O.2       8 UNK        -0.5000 
     32 CA          3.3676  -21.1363  -44.1226 C.3       8 UNK         0.1400 
     33 CB          4.4320  -21.7283  -45.0596 C.3       8 UNK        -0.1800 
     34 N           2.7466  -19.9828  -44.7743 N.am      8 UNK        -0.5000 
     35 C           1.9135  -19.1293  -44.1663 C.2       7 UNK         0.5000 
     36 O           1.6538  -19.1641  -42.9599 O.2       7 UNK        -0.5000 
     37 CA          1.2518  -18.0774  -45.0704 C.3       7 UNK         0.1400 
     38 CB          0.1805  -18.7289  -45.9557 C.3       7 UNK        -0.1800 
     39 N           0.6109  -17.0492  -44.2561 N.am      7 UNK        -0.5000 
     40 C           1.0417  -15.7930  -44.1238 C.2       6 UNK         0.5000 
     41 O           1.9858  -15.3113  -44.7568 O.2       6 UNK        -0.5000 
     42 CA          0.2936  -14.9385  -43.0926 C.3       6 UNK         0.1400 
     43 CB          0.6848  -15.3431  -41.6574 C.3       6 UNK        -0.1800 
     44 N           0.6211  -13.5397  -43.3289 N.am      6 UNK        -0.5000 
     45 C          -0.0421  -12.4833  -42.8526 C.2       5 UNK         0.5000 
     46 O          -1.0433  -12.5635  -42.1394 O.2       5 UNK        -0.5000 
     47 CA          0.4929  -11.1009  -43.2445 C.3       5 UNK         0.1400 
     48 CB          2.0207  -11.0585  -43.4510 C.3       5 UNK        -0.1800 
     49 N          -0.1716  -10.6905  -44.4723 N.am      5 UNK        -0.5000 
     50 C          -0.6722   -9.4738  -44.7076 C.2       4 UNK         0.5000 
     51 O          -0.6345   -8.5441  -43.9003 O.2       4 UNK        -0.5000 
     52 CA         -1.3196   -9.2530  -46.0836 C.3       4 UNK         0.1400 
     53 CB         -0.2525   -8.8808  -47.1239 C.3       4 UNK        -0.1800 
     54 N          -2.0613  -10.4257  -46.5492 N.am      4 UNK        -0.5000 
     55 C          -3.3132  -10.7248  -46.1770 C.2       3 UNK         0.5000 
     56 O          -3.9623  -10.0604  -45.3685 O.2       3 UNK        -0.5000 
     57 CA         -3.9665  -11.9520  -46.8405 C.3       3 UNK         0.1400 
     58 CB         -4.8095  -11.5147  -48.0486 C.3       3 UNK        -0.1800 
     59 N          -2.9920  -12.9491  -47.2858 N.am      3 UNK        -0.5000 
     60 C          -2.4517  -13.8814  -46.4909 C.2       2 UNK         0.5000 
     61 O          -2.7136  -14.0059  -45.2950 O.2       2 UNK        -0.5000 
     62 CA         -1.4263  -14.8222  -47.1484 C.3       2 UNK         0.1400 
     63 CB         -2.1393  -15.9401  -47.9271 C.3       2 UNK        -0.1800 
     64 N          -0.4757  -14.1376  -48.0313 N.am      2 UNK        -0.5000 
     65 C           0.3766  -13.1745  -47.6473 C.2       1 UNK         0.5000 
     66 O           0.3639  -12.6570  -46.5303 O.2       1 UNK        -0.5000 
     67 C          -1.1588  -23.6110  -46.8580 C.2       11 UNK         0.5000 
     68 O          -2.1705  -23.6619  -47.5589 O.2       11 UNK        -0.5000 
     69 N          -1.1842  -23.4349  -45.5307 N.am      12 UNK        -0.5000 
     70 CA         -2.4066  -23.4063  -44.7313 C.3       12 UNK         0.1400 
     71 CB         -2.0871  -22.9070  -43.3146 C.3       12 UNK        -0.1800 
     72 C          -3.1065  -24.7780  -44.7018 C.2       12 UNK         0.5000 
     73 O          -4.3107  -24.8453  -44.9477 O.2       12 UNK        -0.5000 
     74 N          -2.3372  -25.8468  -44.4460 N.am      13 UNK        -0.5000 
     75 CA         -2.8130  -27.2325  -44.4016 C.3       13 UNK         0.1400 
     76 CB         -1.6991  -28.1420  -43.8616 C.3       13 UNK        -0.1800 
     77 C          -3.3178  -27.7482  -45.7614 C.2       13 UNK         0.5000 
     78 O          -4.3376  -28.4368  -45.8088 O.2       13 UNK        -0.5000 
     79 N          -2.6147  -27.3857  -46.8431 N.am      14 UNK        -0.5000 
     80 CA         -2.9858  -27.7087  -48.2234 C.3       14 UNK         0.1400 
     81 CB         -1.7561  -27.5103  -49.1246 C.3       14 UNK        -0.1800 
     82 C          -4.1678  -26.8740  -48.7569 C.2       14 UNK         0.5000 
     83 O          -4.7025  -27.2048  -49.8152 O.2       14 UNK        -0.5000 
     84 N          -4.5191  -25.7912  -48.0459 N.am      15 UNK        -0.5000 
     85 CA         -5.4985  -24.7557  -48.3973 C.3       15 UNK         0.1400 
     86 CB         -6.9154  -25.3406  -48.5637 C.3       15 UNK        -0.1800 
     87 C          -5.0726  -23.8855  -49.5989 C.2       15 UNK         0.5000 
     88 O          -5.8848  -23.1179  -50.1152 O.2       15 UNK        -0.5000 
     89 N          -3.7914  -23.9641  -49.9839 N.am      16 UNK        -0.5000 
     90 CA         -3.1499  -23.1421  -51.0087 C.3       16 UNK         0.1400 
     91 CB         -1.7225  -23.6586  -51.2444 C.3       16 UNK        -0.1800 
     92 C          -3.1221  -21.6535  -50.6274 C.2       16 UNK         0.5000 
     93 O          -3.2556  -20.8001  -51.5044 O.2       16 UNK        -0.5000 
     94 N          -2.9892  -21.3804  -49.3218 N.am      17 UNK        -0.5000 
     95 CA         -3.0726  -20.0468  -48.7307 C.3       17 UNK         0.1400 
     96 CB         -2.6666  -20.1301  -47.2537 C.3       17 UNK        -0.1800 
     97 C          -4.4758  -19.4290  -48.8644 C.2       17 UNK         0.5000 
     98 O          -4.5930  -18.2477  -49.1869 O.2       17 UNK        -0.5000 
     99 N          -5.5093  -20.2488  -48.6269 N.am      18 UNK        -0.5000 
    100 CA        -6.9174  -19.8590  -48.7059 C.3       18 UNK         0.1400 
    101 CB        -7.7745  -20.8964  -47.9635 C.3       18 UNK        -0.1800 
    102 C         -7.3933  -19.6942  -50.1589 C.2       18 UNK         0.5000 
    103 O         -8.1198  -18.7466  -50.4597 O.2       18 UNK        -0.5000 
    104 N         -6.9572  -20.6088  -51.0353 N.am      19 UNK        -0.5000 
    105 CA        -7.2414  -20.5933  -52.4707 C.3       19 UNK         0.1400 
    106 CB        -6.9068  -21.9767  -53.0509 C.3       19 UNK        -0.1800 
    107 C         -6.4716  -19.5008  -53.2383 C.2       19 UNK         0.5000 
    108 O         -6.8703  -19.1610  -54.3528 O.2       19 UNK        -0.5000 
    109 N         -5.3745  -19.0032  -52.6461 N.am      20 UNK        -0.5000 
    110 CA        -4.3756  -18.1027  -53.2312 C.3       20 UNK         0.1400 
    111 CB        -4.9762  -16.7150  -53.5331 C.3       20 UNK        -0.1800 
    112 C         -3.6714  -18.7458  -54.4445 C.2       20 UNK         0.5000 
    113 O         -3.4047  -18.0797  -55.4472 O.2       20 UNK        -0.5000 
    114 N         -3.3696  -20.0469  -54.3179 N.am      21 UNK        -0.5000 
    115 CA        -2.7462  -20.8874  -55.3466 C.3       21 UNK         0.1400 
    116 CB        -2.8218  -22.3546  -54.9005 C.3       21 UNK        -0.1800 
    117 C         -1.2937  -20.4854  -55.6737 C.2       21 UNK         0.5000 
    118 O         -0.7736  -20.8634  -56.7238 O.2       21 UNK        -0.5000 
    119 N         -0.6860  -19.7013  -54.7780 N.am      22 UNK        -0.5000 
    120 CA         0.5711  -18.9703  -54.9693 C.3       22 UNK         0.1400 
    121 C          0.5221  -17.8521  -56.0564 C.2       22 UNK         0.5000 
    122 N         -0.6444  -17.3950  -56.5010 N.am      22 UNK        -0.7600 
    123 O          1.5680  -17.3992  -56.5135 O.2       22 UNK        -0.5000 
    124 C124        1.0928  -18.4223  -53.6156 C.3       23 UNK        -0.0398 
    125 S125       -0.1276  -17.3716  -52.7403 S.3       23 UNK        -0.2404 
    126 C126       -0.5596  -18.4015  -51.3020 C.3       23 UNK        -0.0205 
    127 H127       -1.2337  -11.3166  -49.2162 H         1 UNK         0.0600 
    128 H128       -1.3555  -10.5347  -50.7855 H         1 UNK         0.0600 
    129 H129        0.0651  -10.2503  -49.7897 H         1 UNK         0.0600 
    130 H130        1.4337  -13.6407  -50.5461 H         1 UNK         0.3000 
    131 H131        1.5115  -11.6106  -48.5158 H         1 UNK         0.0600 
    132 H132        3.0111  -13.4116  -47.3429 H         1 UNK         0.0800 
    133 H133        3.5689  -12.6119  -48.7727 H         1 UNK         0.0800 
    134 H134        3.3448  -16.3255  -47.3350 H         1 UNK         0.0800 
    135 H135        1.7124  -15.7239  -47.4685 H         1 UNK         0.0800 
    136 H136        0.4921  -16.4118  -49.7961 H         1 UNK         0.1150 
    137 H137        0.9417  -20.5794  -50.6331 H         1 UNK         0.1150 
    138 H138        3.5897  -18.6450  -47.8610 H         1 UNK         0.1150 
    139 H139        3.4874  -21.0721  -47.9169 H         1 UNK         0.0800 
    140 H140        3.9556  -21.0954  -49.5962 H         1 UNK         0.0800 
    141 H141       -0.0112  -21.8383  -48.5091 H         1 UNK         0.0800 
    142 H142        1.0891  -21.8078  -47.1495 H         1 UNK         0.0800 
    143 H143        0.0601  -24.4010  -48.4023 H         1 UNK         0.0600 
    144 H144        1.8867  -23.9347  -46.2221 H         1 UNK         0.3000 
    145 H145        1.7476  -27.2933  -44.9720 H         1 UNK         0.0600 
    146 H146        3.3151  -27.2685  -46.9207 H         1 UNK         0.0600 
    147 H147        4.1758  -27.0616  -45.4039 H         1 UNK         0.0600 
    148 H148        3.8911  -25.6730  -46.4533 H         1 UNK         0.0600 
    149 H149        3.2411  -24.9992  -44.1532 H         1 UNK         0.3000 
    150 H150        0.8662  -23.6449  -41.8849 H         1 UNK         0.0600 
    151 H151        3.4366  -25.2123  -41.3094 H         1 UNK         0.0600 
    152 H152        1.8574  -25.5601  -40.6156 H         1 UNK         0.0600 
    153 H153        2.6626  -24.0472  -40.2343 H         1 UNK         0.0600 
    154 H154        3.5199  -22.8822  -42.2639 H         1 UNK         0.3000 
    155 H155        3.8531  -20.7917  -43.2071 H         1 UNK         0.0600 
    156 H156        3.9853  -22.1790  -45.9461 H         1 UNK         0.0600 
    157 H157        5.0041  -22.5079  -44.5552 H         1 UNK         0.0600 
    158 H158        5.1424  -20.9687  -45.3867 H         1 UNK         0.0600 
    159 H159        2.8825  -19.9065  -45.7698 H         1 UNK         0.3000 
    160 H160        2.0251  -17.6444  -45.7051 H         1 UNK         0.0600 
    161 H161       -0.5854  -19.2201  -45.3545 H         1 UNK         0.0600 
    162 H162        0.6130  -19.4798  -46.6162 H         1 UNK         0.0600 
    163 H163       -0.3081  -17.9895  -46.5890 H         1 UNK         0.0600 
    164 H164       -0.1148  -17.3823  -43.6373 H         1 UNK         0.3000 
    165 H165       -0.7791  -15.0808  -43.2406 H         1 UNK         0.0600 
    166 H166        0.4728  -16.3968  -41.4717 H         1 UNK         0.0600 
    167 H167        1.7485  -15.1859  -41.4745 H         1 UNK         0.0600 
    168 H168        0.1300  -14.7703  -40.9145 H         1 UNK         0.0600 
    169 H169        1.3967  -13.4055  -43.9670 H         1 UNK         0.3000 
    170 H170        0.2403  -10.4243  -42.4253 H         1 UNK         0.0600 
    171 H171        2.3337  -11.6316  -44.3248 H         1 UNK         0.0600 
    172 H172        2.5461  -11.4570  -42.5822 H         1 UNK         0.0600 
    173 H173        2.3629  -10.0334  -43.5932 H         1 UNK         0.0600 
    174 H174       -0.2313  -11.4027  -45.1953 H         1 UNK         0.3000 
    175 H175       -2.0085   -8.4098  -45.9961 H         1 UNK         0.0600 
    176 H176        0.3126   -8.0038  -46.8056 H         1 UNK         0.0600 
    177 H177        0.4609   -9.6906  -47.2788 H         1 UNK         0.0600 
    178 H178       -0.7081   -8.6389  -48.0840 H         1 UNK         0.0600 
    179 H179       -1.5825  -11.0534  -47.1745 H         1 UNK         0.3000 
    180 H180       -4.6363  -12.4079  -46.1081 H         1 UNK         0.0600 
    181 H181       -4.1962  -11.0521  -48.8231 H         1 UNK         0.0600 
    182 H182       -5.5681  -10.7885  -47.7536 H         1 UNK         0.0600 
    183 H183       -5.3300  -12.3628  -48.4939 H         1 UNK         0.0600 
    184 H184       -2.7389  -12.9395  -48.2623 H         1 UNK         0.3000 
    185 H185       -0.8504  -15.2869  -46.3468 H         1 UNK         0.0600 
    186 H186       -2.8569  -16.4627  -47.2930 H         1 UNK         0.0600 
    187 H187       -2.6868  -15.5513  -48.7865 H         1 UNK         0.0600 
    188 H188       -1.4347  -16.6861  -48.2908 H         1 UNK         0.0600 
    189 H189       -0.4166  -14.4719  -48.9817 H         1 UNK         0.3000 
    190 H190       -0.3042  -23.3223  -45.0366 H         1 UNK         0.3000 
    191 H191       -3.0931  -22.6924  -45.1904 H         1 UNK         0.0600 
    192 H192       -1.6112  -21.9263  -43.3408 H         1 UNK         0.0600 
    193 H193       -2.9973  -22.8134  -42.7212 H         1 UNK         0.0600 
    194 H194       -1.4205  -23.5873  -42.7857 H         1 UNK         0.0600 
    195 H195       -1.3575  -25.7032  -44.2143 H         1 UNK         0.3000 
    196 H196       -3.6509  -27.2728  -43.7027 H         1 UNK         0.0600 
    197 H197       -2.0281  -29.1809  -43.8156 H         1 UNK         0.0600 
    198 H198       -1.4066  -27.8494  -42.8530 H         1 UNK         0.0600 
    199 H199       -0.8095  -28.1051  -44.4916 H         1 UNK         0.0600 
    200 H200       -1.7414  -26.8813  -46.7154 H         1 UNK         0.3000 
    201 H201       -3.2782  -28.7597  -48.2689 H         1 UNK         0.0600 
    202 H202       -1.9789  -27.7724  -50.1597 H         1 UNK         0.0600 
    203 H203       -0.9266  -28.1405  -48.8034 H         1 UNK         0.0600 
    204 H204       -1.4134  -26.4748  -49.1142 H         1 UNK         0.0600 
    205 H205       -4.0093  -25.6164  -47.1895 H         1 UNK         0.3000 
    206 H206       -5.5256  -24.0799  -47.5414 H         1 UNK         0.0600 
    207 H207       -7.1923  -25.9524  -47.7052 H         1 UNK         0.0600 
    208 H208       -7.6576  -24.5460  -48.6476 H         1 UNK         0.0600 
    209 H209       -7.0002  -25.9568  -49.4588 H         1 UNK         0.0600 
    210 H210       -3.1832  -24.5544  -49.4343 H         1 UNK         0.3000 
    211 H211       -3.7194  -23.2427  -51.9345 H         1 UNK         0.0600 
    212 H212       -1.1953  -23.0499  -51.9794 H         1 UNK         0.0600 
    213 H213       -1.7306  -24.6840  -51.6144 H         1 UNK         0.0600 
    214 H214       -1.1318  -23.6376  -50.3290 H         1 UNK         0.0600 
    215 H215       -2.8662  -22.1601  -48.6837 H         1 UNK         0.3000 
    216 H216       -2.3628  -19.3987  -49.2448 H         1 UNK         0.0600 
    217 H217       -1.6611  -20.5337  -47.1462 H         1 UNK         0.0600 
    218 H218       -3.3428  -20.7676  -46.6836 H         1 UNK         0.0600 
    219 H219       -2.6781  -19.1427  -46.7908 H         1 UNK         0.0600 
    220 H220       -5.3191  -21.2150  -48.4104 H         1 UNK         0.3000 
    221 H221       -7.0376  -18.8971  -48.2027 H         1 UNK         0.0600 
    222 H222       -7.6922  -21.8869  -48.4121 H         1 UNK         0.0600 
    223 H223       -7.4787  -20.9764  -46.9174 H         1 UNK         0.0600 
    224 H224       -8.8282  -20.6153  -47.9823 H         1 UNK         0.0600 
    225 H225       -6.4238  -21.4029  -50.6895 H         1 UNK         0.3000 
    226 H226       -8.3085  -20.4092  -52.6109 H         1 UNK         0.0600 
    227 H227       -7.4844  -22.7606  -52.5606 H         1 UNK         0.0600 
    228 H228       -7.1352  -22.0223  -54.1165 H         1 UNK         0.0600 
    229 H229       -5.8495  -22.2161  -52.9306 H         1 UNK         0.0600 
    230 H230       -5.1253  -19.3881  -51.7447 H         1 UNK         0.3000 
    231 H231       -3.6063  -17.9682  -52.4694 H         1 UNK         0.0600 
    232 H232       -5.7094  -16.7538  -54.3389 H         1 UNK         0.0600 
    233 H233       -4.1979  -16.0129  -53.8344 H         1 UNK         0.0600 
    234 H234       -5.4655  -16.2987  -52.6525 H         1 UNK         0.0600 
    235 H235       -3.5535  -20.4847  -53.4203 H         1 UNK         0.3000 
    236 H236       -3.3280  -20.7773  -56.2640 H         1 UNK         0.0600 
    237 H237       -2.2474  -22.5231  -53.9910 H         1 UNK         0.0600 
    238 H238       -3.8513  -22.6592  -54.7114 H         1 UNK         0.0600 
    239 H239       -2.4221  -23.0181  -55.6684 H         1 UNK         0.0600 
    240 H240       -1.2120  -19.4417  -53.9577 H         1 UNK         0.3000 
    241 H241        1.3035  -19.6954  -55.3286 H         1 UNK         0.0600 
    242 H242       -0.6541  -16.6763  -57.2069 H         1 UNK         0.3800 
    243 H243       -1.5228  -17.7327  -56.1228 H         1 UNK         0.3800 
    244 H244        1.3758  -19.2588  -52.9764 H         1 UNK         0.0800 
    245 H245        2.0092  -17.8464  -53.7563 H         1 UNK         0.0800 
    246 H246       -1.4238  -17.9551  -50.8092 H         1 UNK         0.0800 
    247 H247       -0.8702  -19.3925  -51.6358 H         1 UNK         0.0800 
@<TRIPOS>BOND
     1    1    2 1    
     2    1  127 1    
     3    1  128 1    
     4    1  129 1    
     5    2    3 2    
     6    2    4 am   BACKBONE|DICT|INTERRES
     7    4    5 1    
     8    4  130 1    
     9    5    6 1    
    10    5   65 1    
    11    5  131 1    
    12    6    7 1    
    13    6  132 1    
    14    6  133 1    
    15    7    8 1    
    16    8    9 1    
    17    8  134 1    
    18    8  135 1    
    19    9   10 ar   
    20    9   14 ar   
    21   10   11 ar   
    22   10  136 1    
    23   11   12 ar   
    24   11  126 1    
    25   12   13 ar   
    26   12  137 1    
    27   13   14 ar   
    28   13   15 1    
    29   14  138 1    
    30   15   16 1    
    31   15  139 1    
    32   15  140 1    
    33   16   17 1    
    34   17   18 1    
    35   17  141 1    
    36   17  142 1    
    37   18   19 1    
    38   18   67 1    
    39   18  143 1    
    40   19   20 am   BACKBONE|DICT|INTERRES
    41   19  144 1    
    42   20   21 2    
    43   20   22 1    
    44   22   23 1    
    45   22   24 1    
    46   22  145 1    
    47   23  146 1    
    48   23  147 1    
    49   23  148 1    
    50   24   25 am   BACKBONE|DICT|INTERRES
    51   24  149 1    
    52   25   26 2    
    53   25   27 1    
    54   27   28 1    
    55   27   29 1    
    56   27  150 1    
    57   28  151 1    
    58   28  152 1    
    59   28  153 1    
    60   29   30 am   BACKBONE|DICT|INTERRES
    61   29  154 1    
    62   30   31 2    
    63   30   32 1    
    64   32   33 1    
    65   32   34 1    
    66   32  155 1    
    67   33  156 1    
    68   33  157 1    
    69   33  158 1    
    70   34   35 am   BACKBONE|DICT|INTERRES
    71   34  159 1    
    72   35   36 2    
    73   35   37 1    
    74   37   38 1    
    75   37   39 1    
    76   37  160 1    
    77   38  161 1    
    78   38  162 1    
    79   38  163 1    
    80   39   40 am   BACKBONE|DICT|INTERRES
    81   39  164 1    
    82   40   41 2    
    83   40   42 1    
    84   42   43 1    
    85   42   44 1    
    86   42  165 1    
    87   43  166 1    
    88   43  167 1    
    89   43  168 1    
    90   44   45 am   BACKBONE|DICT|INTERRES
    91   44  169 1    
    92   45   46 2    
    93   45   47 1    
    94   47   48 1    
    95   47   49 1    
    96   47  170 1    
    97   48  171 1    
    98   48  172 1    
    99   48  173 1    
   100   49   50 am   BACKBONE|DICT|INTERRES
   101   49  174 1    
   102   50   51 2    
   103   50   52 1    
   104   52   53 1    
   105   52   54 1    
   106   52  175 1    
   107   53  176 1    
   108   53  177 1    
   109   53  178 1    
   110   54   55 am   BACKBONE|DICT|INTERRES
   111   54  179 1    
   112   55   56 2    
   113   55   57 1    
   114   57   58 1    
   115   57   59 1    
   116   57  180 1    
   117   58  181 1    
   118   58  182 1    
   119   58  183 1    
   120   59   60 am   BACKBONE|DICT|INTERRES
   121   59  184 1    
   122   60   61 2    
   123   60   62 1    
   124   62   63 1    
   125   62   64 1    
   126   62  185 1    
   127   63  186 1    
   128   63  187 1    
   129   63  188 1    
   130   64   65 am   BACKBONE|DICT|INTERRES
   131   64  189 1    
   132   65   66 2    
   133   67   68 2    
   134   67   69 am   BACKBONE|DICT|INTERRES
   135   69   70 1    
   136   69  190 1    
   137   70   71 1    
   138   70   72 1    
   139   70  191 1    
   140   71  192 1    
   141   71  193 1    
   142   71  194 1    
   143   72   73 2    
   144   72   74 am   BACKBONE|DICT|INTERRES
   145   74   75 1    
   146   74  195 1    
   147   75   76 1    
   148   75   77 1    
   149   75  196 1    
   150   76  197 1    
   151   76  198 1    
   152   76  199 1    
   153   77   78 2    
   154   77   79 am   BACKBONE|DICT|INTERRES
   155   79   80 1    
   156   79  200 1    
   157   80   81 1    
   158   80   82 1    
   159   80  201 1    
   160   81  202 1    
   161   81  203 1    
   162   81  204 1    
   163   82   83 2    
   164   82   84 am   BACKBONE|DICT|INTERRES
   165   84   85 1    
   166   84  205 1    
   167   85   86 1    
   168   85   87 1    
   169   85  206 1    
   170   86  207 1    
   171   86  208 1    
   172   86  209 1    
   173   87   88 2    
   174   87   89 am   BACKBONE|DICT|INTERRES
   175   89   90 1    
   176   89  210 1    
   177   90   91 1    
   178   90   92 1    
   179   90  211 1    
   180   91  212 1    
   181   91  213 1    
   182   91  214 1    
   183   92   93 2    
   184   92   94 am   BACKBONE|DICT|INTERRES
   185   94   95 1    
   186   94  215 1    
   187   95   96 1    
   188   95   97 1    
   189   95  216 1    
   190   96  217 1    
   191   96  218 1    
   192   96  219 1    
   193   97   98 2    
   194   97   99 am   BACKBONE|DICT|INTERRES
   195   99  100 1    
   196   99  220 1    
   197  100  101 1    
   198  100  102 1    
   199  100  221 1    
   200  101  222 1    
   201  101  223 1    
   202  101  224 1    
   203  102  103 2    
   204  102  104 am   BACKBONE|DICT|INTERRES
   205  104  105 1    
   206  104  225 1    
   207  105  106 1    
   208  105  107 1    
   209  105  226 1    
   210  106  227 1    
   211  106  228 1    
   212  106  229 1    
   213  107  108 2    
   214  107  109 am   BACKBONE|DICT|INTERRES
   215  109  110 1    
   216  109  230 1    
   217  110  111 1    
   218  110  112 1    
   219  110  231 1    
   220  111  232 1    
   221  111  233 1    
   222  111  234 1    
   223  112  113 2    
   224  112  114 am   BACKBONE|DICT|INTERRES
   225  114  115 1    
   226  114  235 1    
   227  115  116 1    
   228  115  117 1    
   229  115  236 1    
   230  116  237 1    
   231  116  238 1    
   232  116  239 1    
   233  117  118 2    
   234  117  119 am   BACKBONE|DICT|INTERRES
   235  119  120 1    
   236  119  240 1    
   237  120  121 1    
   238  120  124 1    
   239  120  241 1    
   240  121  122 am   BACKBONE|DICT|INTERRES
   241  121  123 2    
   242  122  242 1    
   243  122  243 1    
   244  124  125 1    
   245  124  244 1    
   246  124  245 1    
   247  125  126 1    
   248  126  246 1    
   249  126  247 1    
@<TRIPOS>SUBSTRUCTURE
     1 UNK         1 GROUP             0       ****    0 ROOT    
