@<TRIPOS>MOLECULE
3R540
247   249    1
SMALL
USER_CHARGES


@<TRIPOS>ATOM
      1 CA          0.1049  -11.7569  -45.7499 C.3       0 UNK        -0.1800 
      2 C           1.3658  -11.7957  -46.6015 C.2       0 UNK         0.5000 
      3 O           2.4582  -11.9608  -46.0596 O.2       0 UNK        -0.5000 
      4 N           1.2042  -11.6517  -47.9263 N.am      1 UNK        -0.5000 
      5 CA          2.2355  -11.6835  -48.9757 C.3       1 UNK         0.1400 
      6 C6          2.5553  -13.1169  -49.5020 C.3       23 UNK        -0.0398 
      7 S7          3.1585  -14.3407  -48.2781 S.3       23 UNK        -0.2404 
      8 C8          1.6365  -15.2531  -47.8633 C.3       23 UNK        -0.0205 
      9 C9          1.2646  -16.2644  -48.9371 C.ar      23 UNK        -0.0193 
     10 C10         0.3522  -15.9290  -49.9418 C.ar      23 UNK        -0.1150 
     11 C11         0.0362  -16.8456  -50.9474 C.ar      23 UNK        -0.0193 
     12 C12         0.6039  -18.1224  -50.9204 C.ar      23 UNK        -0.1150 
     13 C13         1.5059  -18.4764  -49.9132 C.ar      23 UNK        -0.0193 
     14 C14         1.8374  -17.5395  -48.9283 C.ar      23 UNK        -0.1150 
     15 C15         2.1535  -19.8548  -49.9206 C.3       23 UNK        -0.0205 
     16 S16         1.8681  -20.7758  -48.3779 S.3       23 UNK        -0.2404 
     17 C17         0.0633  -21.0288  -48.4231 C.3       23 UNK        -0.0398 
     18 CA         -0.3428  -22.2349  -47.5456 C.3       11 UNK         0.1400 
     19 N          -0.1545  -21.9842  -46.1139 N.am      11 UNK        -0.5000 
     20 C          -0.2467  -22.9216  -45.1608 C.2       10 UNK         0.5000 
     21 O          -0.4400  -24.1140  -45.3952 O.2       10 UNK        -0.5000 
     22 CA         -0.1758  -22.4417  -43.7000 C.3       10 UNK         0.1400 
     23 CB          1.2789  -22.2272  -43.2569 C.3       10 UNK        -0.1800 
     24 N          -0.9565  -21.2228  -43.4781 N.am      10 UNK        -0.5000 
     25 C          -2.2895  -21.1520  -43.6069 C.2       9 UNK         0.5000 
     26 O          -2.9991  -22.1261  -43.8582 O.2       9 UNK        -0.5000 
     27 CA         -2.9380  -19.7608  -43.4781 C.3       9 UNK         0.1400 
     28 CB         -3.1577  -19.3961  -42.0029 C.3       9 UNK        -0.1800 
     29 N          -2.1645  -18.7074  -44.1368 N.am      9 UNK        -0.5000 
     30 C          -1.9322  -18.6381  -45.4559 C.2       8 UNK         0.5000 
     31 O          -2.3932  -19.4344  -46.2725 O.2       8 UNK        -0.5000 
     32 CA         -0.9728  -17.5306  -45.9346 C.3       8 UNK         0.1400 
     33 CB         -1.6993  -16.1834  -46.0628 C.3       8 UNK        -0.1800 
     34 N           0.1897  -17.3889  -45.0550 N.am      8 UNK        -0.5000 
     35 C           1.0978  -18.3558  -44.8559 C.2       7 UNK         0.5000 
     36 O           1.0744  -19.4423  -45.4296 O.2       7 UNK        -0.5000 
     37 CA          2.1689  -18.0931  -43.7868 C.3       7 UNK         0.1400 
     38 CB          3.3225  -17.2549  -44.3571 C.3       7 UNK        -0.1800 
     39 N           1.5952  -17.4364  -42.6116 N.am      7 UNK        -0.5000 
     40 C           0.8038  -18.0591  -41.7242 C.2       6 UNK         0.5000 
     41 O           0.5252  -19.2560  -41.7870 O.2       6 UNK        -0.5000 
     42 CA          0.1876  -17.2018  -40.6011 C.3       6 UNK         0.1400 
     43 CB          1.1340  -17.1378  -39.3933 C.3       6 UNK        -0.1800 
     44 N          -0.1362  -15.8413  -41.0296 N.am      6 UNK        -0.5000 
     45 C          -1.0390  -15.5270  -41.9698 C.2       5 UNK         0.5000 
     46 O          -1.7601  -16.3556  -42.5229 O.2       5 UNK        -0.5000 
     47 CA         -1.1032  -14.0496  -42.4093 C.3       5 UNK         0.1400 
     48 CB         -2.2093  -13.3072  -41.6462 C.3       5 UNK        -0.1800 
     49 N           0.1668  -13.3334  -42.2408 N.am      5 UNK        -0.5000 
     50 C           1.3131  -13.6672  -42.8478 C.2       4 UNK         0.5000 
     51 O           1.4127  -14.6052  -43.6446 O.2       4 UNK        -0.5000 
     52 CA          2.5576  -12.8673  -42.4432 C.3       4 UNK         0.1400 
     53 CB          2.9980  -13.2271  -41.0112 C.3       4 UNK        -0.1800 
     54 N           3.6281  -13.1766  -43.3802 N.am      4 UNK        -0.5000 
     55 C           4.7036  -12.4228  -43.6221 C.2       3 UNK         0.5000 
     56 O           4.9443  -11.3657  -43.0359 O.2       3 UNK        -0.5000 
     57 CA          5.6720  -12.9139  -44.7084 C.3       3 UNK         0.1400 
     58 CB          5.5538  -14.4170  -45.0330 C.3       3 UNK        -0.1800 
     59 N           5.4184  -12.1443  -45.9187 N.am      3 UNK        -0.5000 
     60 C           6.3532  -11.5662  -46.6834 C.2       2 UNK         0.5000 
     61 O           7.5592  -11.6115  -46.4333 O.2       2 UNK        -0.5000 
     62 CA          5.8611  -10.8370  -47.9500 C.3       2 UNK         0.1400 
     63 CB          6.8988  -10.8606  -49.0873 C.3       2 UNK        -0.1800 
     64 N           4.6214  -11.4449  -48.4274 N.am      2 UNK        -0.5000 
     65 C           3.4658  -10.8088  -48.6370 C.2       1 UNK         0.5000 
     66 O           3.3310   -9.5857  -48.5583 O.2       1 UNK        -0.5000 
     67 C          -1.7752  -22.7060  -47.8616 C.2       11 UNK         0.5000 
     68 O          -1.9338  -23.6309  -48.6566 O.2       11 UNK        -0.5000 
     69 N          -2.7878  -22.1145  -47.2127 N.am      12 UNK        -0.5000 
     70 CA         -4.1866  -22.5324  -47.3214 C.3       12 UNK         0.1400 
     71 CB         -5.1016  -21.5148  -46.6263 C.3       12 UNK        -0.1800 
     72 C          -4.4264  -23.9590  -46.7977 C.2       12 UNK         0.5000 
     73 O          -5.1015  -24.7417  -47.4658 O.2       12 UNK        -0.5000 
     74 N          -3.8225  -24.2927  -45.6485 N.am      13 UNK        -0.5000 
     75 CA         -3.8403  -25.6347  -45.0599 C.3       13 UNK         0.1400 
     76 CB         -3.2284  -25.5834  -43.6520 C.3       13 UNK        -0.1800 
     77 C          -3.1252  -26.6865  -45.9327 C.2       13 UNK         0.5000 
     78 O          -3.5866  -27.8252  -46.0140 O.2       13 UNK        -0.5000 
     79 N          -2.0347  -26.2778  -46.5948 N.am      14 UNK        -0.5000 
     80 CA         -1.2687  -27.0865  -47.5465 C.3       14 UNK         0.1400 
     81 CB          0.1404  -26.4855  -47.6762 C.3       14 UNK        -0.1800 
     82 C          -1.9285  -27.2083  -48.9376 C.2       14 UNK         0.5000 
     83 O          -1.4333  -27.9751  -49.7643 O.2       14 UNK        -0.5000 
     84 N          -3.0050  -26.4452  -49.1818 N.am      15 UNK        -0.5000 
     85 CA         -3.7402  -26.3076  -50.4445 C.3       15 UNK         0.1400 
     86 CB         -4.3868  -27.6418  -50.8713 C.3       15 UNK        -0.1800 
     87 C          -2.9162  -25.6424  -51.5704 C.2       15 UNK         0.5000 
     88 O          -3.1933  -25.8623  -52.7494 O.2       15 UNK        -0.5000 
     89 N          -1.9460  -24.8026  -51.1859 N.am      16 UNK        -0.5000 
     90 CA         -1.2215  -23.8747  -52.0598 C.3       16 UNK         0.1400 
     91 CB          0.2028  -23.6908  -51.5122 C.3       16 UNK        -0.1800 
     92 C          -1.9492  -22.5168  -52.1679 C.2       16 UNK         0.5000 
     93 O          -1.5778  -21.6779  -52.9899 O.2       16 UNK        -0.5000 
     94 N          -2.9852  -22.3329  -51.3464 N.am      17 UNK        -0.5000 
     95 CA         -3.9392  -21.2385  -51.3696 C.3       17 UNK         0.1400 
     96 CB         -3.4654  -20.1230  -50.4208 C.3       17 UNK        -0.1800 
     97 C          -5.3154  -21.8005  -50.9832 C.2       17 UNK         0.5000 
     98 O          -5.4357  -23.0052  -50.7403 O.2       17 UNK        -0.5000 
     99 N          -6.3290  -20.9275  -50.9556 N.am      18 UNK        -0.5000 
    100 CA        -7.7429  -21.1909  -50.6702 C.3       18 UNK         0.1400 
    101 CB        -7.9505  -21.7313  -49.2399 C.3       18 UNK        -0.1800 
    102 C         -8.3844  -22.0777  -51.7510 C.2       18 UNK         0.5000 
    103 O         -9.0426  -21.5538  -52.6497 O.2       18 UNK        -0.5000 
    104 N         -8.1226  -23.3897  -51.6912 N.am      19 UNK        -0.5000 
    105 CA        -8.5202  -24.3808  -52.6949 C.3       19 UNK         0.1400 
    106 CB        -8.1705  -25.7832  -52.1738 C.3       19 UNK        -0.1800 
    107 C         -7.8636  -24.1377  -54.0690 C.2       19 UNK         0.5000 
    108 O         -8.4792  -24.4161  -55.0980 O.2       19 UNK        -0.5000 
    109 N         -6.6417  -23.5905  -54.0498 N.am      20 UNK        -0.5000 
    110 CA        -5.8682  -23.1827  -55.2239 C.3       20 UNK         0.1400 
    111 CB        -4.4389  -23.7302  -55.0747 C.3       20 UNK        -0.1800 
    112 C         -5.8671  -21.6504  -55.4121 C.2       20 UNK         0.5000 
    113 O         -5.0047  -21.1350  -56.1242 O.2       20 UNK        -0.5000 
    114 N         -6.8093  -20.9467  -54.7625 N.am      21 UNK        -0.5000 
    115 CA        -6.9371  -19.4887  -54.6573 C.3       21 UNK         0.1400 
    116 CB        -7.1620  -18.8214  -56.0310 C.3       21 UNK        -0.1800 
    117 C         -5.7632  -18.8847  -53.8663 C.2       21 UNK         0.5000 
    118 O         -5.8891  -18.7013  -52.6552 O.2       21 UNK        -0.5000 
    119 N         -4.6342  -18.6445  -54.5373 N.am      22 UNK        -0.5000 
    120 CA        -3.3580  -18.2538  -53.9359 C.3       22 UNK         0.1400 
    121 C         -2.2293  -18.4684  -54.9735 C.2       22 UNK         0.5000 
    122 N         -1.3880  -19.4798  -54.8071 N.am      22 UNK        -0.7600 
    123 O         -2.1086  -17.7141  -55.9355 O.2       22 UNK        -0.5000 
    124 C124       -3.3697  -16.8169  -53.3306 C.3       23 UNK        -0.0398 
    125 S125       -2.6236  -16.7856  -51.6676 S.3       23 UNK        -0.2404 
    126 C126       -0.8902  -16.4489  -52.0837 C.3       23 UNK        -0.0205 
    127 H127       -0.1498  -12.7638  -45.4195 H         1 UNK         0.0600 
    128 H128       -0.7443  -11.3531  -46.3014 H         1 UNK         0.0600 
    129 H129        0.2630  -11.1362  -44.8680 H         1 UNK         0.0600 
    130 H130        0.2693  -11.4860  -48.2707 H         1 UNK         0.3000 
    131 H131        1.7747  -11.1643  -49.8176 H         1 UNK         0.0600 
    132 H132        1.6634  -13.5131  -49.9823 H         1 UNK         0.0800 
    133 H133        3.2907  -13.0612  -50.3064 H         1 UNK         0.0800 
    134 H134        1.7857  -15.7670  -46.9132 H         1 UNK         0.0800 
    135 H135        0.8191  -14.5505  -47.7012 H         1 UNK         0.0800 
    136 H136       -0.1026  -14.9490  -49.9547 H         1 UNK         0.1150 
    137 H137        0.3548  -18.8333  -51.6962 H         1 UNK         0.1150 
    138 H138        2.5444  -17.8040  -48.1542 H         1 UNK         0.1150 
    139 H139        1.7993  -20.4520  -50.7625 H         1 UNK         0.0800 
    140 H140        3.2282  -19.7339  -50.0615 H         1 UNK         0.0800 
    141 H141       -0.2367  -21.1814  -49.4614 H         1 UNK         0.0800 
    142 H142       -0.4337  -20.1162  -48.0909 H         1 UNK         0.0800 
    143 H143        0.3125  -23.0677  -47.8093 H         1 UNK         0.0600 
    144 H144        0.0787  -21.0310  -45.8467 H         1 UNK         0.3000 
    145 H145       -0.6035  -23.2272  -43.0736 H         1 UNK         0.0600 
    146 H146        1.3329  -21.9443  -42.2056 H         1 UNK         0.0600 
    147 H147        1.7703  -21.4481  -43.8388 H         1 UNK         0.0600 
    148 H148        1.8606  -23.1417  -43.3782 H         1 UNK         0.0600 
    149 H149       -0.4406  -20.3910  -43.2137 H         1 UNK         0.3000 
    150 H150       -3.9149  -19.8040  -43.9631 H         1 UNK         0.0600 
    151 H151       -3.7694  -20.1478  -41.5024 H         1 UNK         0.0600 
    152 H152       -3.6721  -18.4398  -41.9053 H         1 UNK         0.0600 
    153 H153       -2.2152  -19.3258  -41.4603 H         1 UNK         0.0600 
    154 H154       -1.8028  -17.9683  -43.5403 H         1 UNK         0.3000 
    155 H155       -0.6061  -17.8119  -46.9242 H         1 UNK         0.0600 
    156 H156       -2.5113  -16.2512  -46.7877 H         1 UNK         0.0600 
    157 H157       -1.0254  -15.3982  -46.4032 H         1 UNK         0.0600 
    158 H158       -2.1334  -15.8632  -45.1161 H         1 UNK         0.0600 
    159 H159        0.2782  -16.5263  -44.5347 H         1 UNK         0.3000 
    160 H160        2.5790  -19.0562  -43.4754 H         1 UNK         0.0600 
    161 H161        2.9746  -16.3065  -44.7634 H         1 UNK         0.0600 
    162 H162        3.8221  -17.7874  -45.1673 H         1 UNK         0.0600 
    163 H163        4.0724  -17.0424  -43.5953 H         1 UNK         0.0600 
    164 H164        1.7186  -16.4344  -42.5490 H         1 UNK         0.3000 
    165 H165       -0.7394  -17.6842  -40.2848 H         1 UNK         0.0600 
    166 H166        0.6771  -16.6008  -38.5619 H         1 UNK         0.0600 
    167 H167        1.3791  -18.1391  -39.0364 H         1 UNK         0.0600 
    168 H168        2.0718  -16.6389  -39.6415 H         1 UNK         0.0600 
    169 H169        0.4055  -15.0954  -40.6201 H         1 UNK         0.3000 
    170 H170       -1.3532  -14.0373  -43.4720 H         1 UNK         0.0600 
    171 H171       -2.0006  -13.2626  -40.5766 H         1 UNK         0.0600 
    172 H172       -3.1720  -13.8045  -41.7728 H         1 UNK         0.0600 
    173 H173       -2.3226  -12.2860  -42.0104 H         1 UNK         0.0600 
    174 H174        0.1610  -12.5573  -41.5945 H         1 UNK         0.3000 
    175 H175        2.3169  -11.8041  -42.5071 H         1 UNK         0.0600 
    176 H176        3.2368  -14.2876  -40.9200 H         1 UNK         0.0600 
    177 H177        3.8809  -12.6612  -40.7138 H         1 UNK         0.0600 
    178 H178        2.2159  -13.0011  -40.2858 H         1 UNK         0.0600 
    179 H179        3.4411  -13.9851  -43.9600 H         1 UNK         0.3000 
    180 H180        6.6797  -12.7243  -44.3330 H         1 UNK         0.0600 
    181 H181        6.3394  -14.7263  -45.7224 H         1 UNK         0.0600 
    182 H182        4.5986  -14.6589  -45.4996 H         1 UNK         0.0600 
    183 H183        5.6567  -15.0254  -44.1336 H         1 UNK         0.0600 
    184 H184        4.4352  -12.0161  -46.1493 H         1 UNK         0.3000 
    185 H185        5.6918   -9.7981  -47.6604 H         1 UNK         0.0600 
    186 H186        6.5256  -10.3417  -49.9703 H         1 UNK         0.0600 
    187 H187        7.8230  -10.3644  -48.7886 H         1 UNK         0.0600 
    188 H188        7.1501  -11.8810  -49.3792 H         1 UNK         0.0600 
    189 H189        4.6143  -12.4571  -48.4585 H         1 UNK         0.3000 
    190 H190       -2.5931  -21.3094  -46.6236 H         1 UNK         0.3000 
    191 H191       -4.4422  -22.5367  -48.3789 H         1 UNK         0.0600 
    192 H192       -5.0051  -20.5269  -47.0773 H         1 UNK         0.0600 
    193 H193       -4.8746  -21.4229  -45.5655 H         1 UNK         0.0600 
    194 H194       -6.1472  -21.8119  -46.7094 H         1 UNK         0.0600 
    195 H195       -3.3219  -23.5733  -45.1338 H         1 UNK         0.3000 
    196 H196       -4.8841  -25.9407  -44.9642 H         1 UNK         0.0600 
    197 H197       -3.7710  -24.8877  -43.0117 H         1 UNK         0.0600 
    198 H198       -2.1849  -25.2693  -43.6764 H         1 UNK         0.0600 
    199 H199       -3.2654  -26.5632  -43.1742 H         1 UNK         0.0600 
    200 H200       -1.6802  -25.3447  -46.4097 H         1 UNK         0.3000 
    201 H201       -1.1711  -28.0964  -47.1434 H         1 UNK         0.0600 
    202 H202        0.6359  -26.4264  -46.7069 H         1 UNK         0.0600 
    203 H203        0.1100  -25.4813  -48.0990 H         1 UNK         0.0600 
    204 H204        0.7702  -27.0950  -48.3252 H         1 UNK         0.0600 
    205 H205       -3.3213  -25.8383  -48.4360 H         1 UNK         0.3000 
    206 H206       -4.5538  -25.6130  -50.2308 H         1 UNK         0.0600 
    207 H207       -3.6420  -28.3748  -51.1814 H         1 UNK         0.0600 
    208 H208       -4.9686  -28.0752  -50.0579 H         1 UNK         0.0600 
    209 H209       -5.0662  -27.4949  -51.7116 H         1 UNK         0.0600 
    210 H210       -1.8270  -24.6428  -50.1875 H         1 UNK         0.3000 
    211 H211       -1.1527  -24.2917  -53.0665 H         1 UNK         0.0600 
    212 H212        0.1983  -23.3089  -50.4919 H         1 UNK         0.0600 
    213 H213        0.7729  -22.9907  -52.1241 H         1 UNK         0.0600 
    214 H214        0.7452  -24.6363  -51.5093 H         1 UNK         0.0600 
    215 H215       -3.2476  -23.0930  -50.7318 H         1 UNK         0.3000 
    216 H216       -4.0240  -20.8635  -52.3888 H         1 UNK         0.0600 
    217 H217       -4.1222  -19.2544  -50.4725 H         1 UNK         0.0600 
    218 H218       -2.4628  -19.7830  -50.6814 H         1 UNK         0.0600 
    219 H219       -3.4429  -20.4533  -49.3832 H         1 UNK         0.0600 
    220 H220       -6.1352  -19.9794  -51.2711 H         1 UNK         0.3000 
    221 H221       -8.2461  -20.2241  -50.7245 H         1 UNK         0.0600 
    222 H222       -7.4186  -22.6651  -49.0571 H         1 UNK         0.0600 
    223 H223       -7.6088  -21.0059  -48.5022 H         1 UNK         0.0600 
    224 H224       -9.0076  -21.9154  -49.0445 H         1 UNK         0.0600 
    225 H225       -7.4896  -23.7050  -50.9663 H         1 UNK         0.3000 
    226 H226       -9.6024  -24.3173  -52.8250 H         1 UNK         0.0600 
    227 H227       -8.6868  -25.9962  -51.2376 H         1 UNK         0.0600 
    228 H228       -8.4659  -26.5516  -52.8895 H         1 UNK         0.0600 
    229 H229       -7.0992  -25.8911  -51.9983 H         1 UNK         0.0600 
    230 H230       -6.2198  -23.4150  -53.1486 H         1 UNK         0.3000 
    231 H231       -6.2995  -23.6118  -56.1303 H         1 UNK         0.0600 
    232 H232       -3.8275  -23.4938  -55.9463 H         1 UNK         0.0600 
    233 H233       -4.4445  -24.8154  -54.9729 H         1 UNK         0.0600 
    234 H234       -3.9403  -23.3146  -54.1995 H         1 UNK         0.0600 
    235 H235       -7.4850  -21.4650  -54.2148 H         1 UNK         0.3000 
    236 H236       -7.8348  -19.3079  -54.0639 H         1 UNK         0.0600 
    237 H237       -6.3297  -18.9714  -56.7182 H         1 UNK         0.0600 
    238 H238       -8.0590  -19.2134  -56.5102 H         1 UNK         0.0600 
    239 H239       -7.2999  -17.7453  -55.9190 H         1 UNK         0.0600 
    240 H240       -4.5890  -18.9004  -55.5161 H         1 UNK         0.3000 
    241 H241       -3.1780  -18.9631  -53.1292 H         1 UNK         0.0600 
    242 H242       -0.6557  -19.6154  -55.4853 H         1 UNK         0.3800 
    243 H243       -1.4963  -20.1654  -54.0617 H         1 UNK         0.3800 
    244 H244       -2.8791  -16.0848  -53.9745 H         1 UNK         0.0800 
    245 H245       -4.3903  -16.4506  -53.2168 H         1 UNK         0.0800 
    246 H246       -0.7732  -15.3895  -52.3171 H         1 UNK         0.0800 
    247 H247       -0.6097  -16.9938  -52.9858 H         1 UNK         0.0800 
@<TRIPOS>BOND
     1    1    2 1    
     2    1  127 1    
     3    1  128 1    
     4    1  129 1    
     5    2    3 2    
     6    2    4 am   BACKBONE|DICT|INTERRES
     7    4    5 1    
     8    4  130 1    
     9    5    6 1    
    10    5   65 1    
    11    5  131 1    
    12    6    7 1    
    13    6  132 1    
    14    6  133 1    
    15    7    8 1    
    16    8    9 1    
    17    8  134 1    
    18    8  135 1    
    19    9   10 ar   
    20    9   14 ar   
    21   10   11 ar   
    22   10  136 1    
    23   11   12 ar   
    24   11  126 1    
    25   12   13 ar   
    26   12  137 1    
    27   13   14 ar   
    28   13   15 1    
    29   14  138 1    
    30   15   16 1    
    31   15  139 1    
    32   15  140 1    
    33   16   17 1    
    34   17   18 1    
    35   17  141 1    
    36   17  142 1    
    37   18   19 1    
    38   18   67 1    
    39   18  143 1    
    40   19   20 am   BACKBONE|DICT|INTERRES
    41   19  144 1    
    42   20   21 2    
    43   20   22 1    
    44   22   23 1    
    45   22   24 1    
    46   22  145 1    
    47   23  146 1    
    48   23  147 1    
    49   23  148 1    
    50   24   25 am   BACKBONE|DICT|INTERRES
    51   24  149 1    
    52   25   26 2    
    53   25   27 1    
    54   27   28 1    
    55   27   29 1    
    56   27  150 1    
    57   28  151 1    
    58   28  152 1    
    59   28  153 1    
    60   29   30 am   BACKBONE|DICT|INTERRES
    61   29  154 1    
    62   30   31 2    
    63   30   32 1    
    64   32   33 1    
    65   32   34 1    
    66   32  155 1    
    67   33  156 1    
    68   33  157 1    
    69   33  158 1    
    70   34   35 am   BACKBONE|DICT|INTERRES
    71   34  159 1    
    72   35   36 2    
    73   35   37 1    
    74   37   38 1    
    75   37   39 1    
    76   37  160 1    
    77   38  161 1    
    78   38  162 1    
    79   38  163 1    
    80   39   40 am   BACKBONE|DICT|INTERRES
    81   39  164 1    
    82   40   41 2    
    83   40   42 1    
    84   42   43 1    
    85   42   44 1    
    86   42  165 1    
    87   43  166 1    
    88   43  167 1    
    89   43  168 1    
    90   44   45 am   BACKBONE|DICT|INTERRES
    91   44  169 1    
    92   45   46 2    
    93   45   47 1    
    94   47   48 1    
    95   47   49 1    
    96   47  170 1    
    97   48  171 1    
    98   48  172 1    
    99   48  173 1    
   100   49   50 am   BACKBONE|DICT|INTERRES
   101   49  174 1    
   102   50   51 2    
   103   50   52 1    
   104   52   53 1    
   105   52   54 1    
   106   52  175 1    
   107   53  176 1    
   108   53  177 1    
   109   53  178 1    
   110   54   55 am   BACKBONE|DICT|INTERRES
   111   54  179 1    
   112   55   56 2    
   113   55   57 1    
   114   57   58 1    
   115   57   59 1    
   116   57  180 1    
   117   58  181 1    
   118   58  182 1    
   119   58  183 1    
   120   59   60 am   BACKBONE|DICT|INTERRES
   121   59  184 1    
   122   60   61 2    
   123   60   62 1    
   124   62   63 1    
   125   62   64 1    
   126   62  185 1    
   127   63  186 1    
   128   63  187 1    
   129   63  188 1    
   130   64   65 am   BACKBONE|DICT|INTERRES
   131   64  189 1    
   132   65   66 2    
   133   67   68 2    
   134   67   69 am   BACKBONE|DICT|INTERRES
   135   69   70 1    
   136   69  190 1    
   137   70   71 1    
   138   70   72 1    
   139   70  191 1    
   140   71  192 1    
   141   71  193 1    
   142   71  194 1    
   143   72   73 2    
   144   72   74 am   BACKBONE|DICT|INTERRES
   145   74   75 1    
   146   74  195 1    
   147   75   76 1    
   148   75   77 1    
   149   75  196 1    
   150   76  197 1    
   151   76  198 1    
   152   76  199 1    
   153   77   78 2    
   154   77   79 am   BACKBONE|DICT|INTERRES
   155   79   80 1    
   156   79  200 1    
   157   80   81 1    
   158   80   82 1    
   159   80  201 1    
   160   81  202 1    
   161   81  203 1    
   162   81  204 1    
   163   82   83 2    
   164   82   84 am   BACKBONE|DICT|INTERRES
   165   84   85 1    
   166   84  205 1    
   167   85   86 1    
   168   85   87 1    
   169   85  206 1    
   170   86  207 1    
   171   86  208 1    
   172   86  209 1    
   173   87   88 2    
   174   87   89 am   BACKBONE|DICT|INTERRES
   175   89   90 1    
   176   89  210 1    
   177   90   91 1    
   178   90   92 1    
   179   90  211 1    
   180   91  212 1    
   181   91  213 1    
   182   91  214 1    
   183   92   93 2    
   184   92   94 am   BACKBONE|DICT|INTERRES
   185   94   95 1    
   186   94  215 1    
   187   95   96 1    
   188   95   97 1    
   189   95  216 1    
   190   96  217 1    
   191   96  218 1    
   192   96  219 1    
   193   97   98 2    
   194   97   99 am   BACKBONE|DICT|INTERRES
   195   99  100 1    
   196   99  220 1    
   197  100  101 1    
   198  100  102 1    
   199  100  221 1    
   200  101  222 1    
   201  101  223 1    
   202  101  224 1    
   203  102  103 2    
   204  102  104 am   BACKBONE|DICT|INTERRES
   205  104  105 1    
   206  104  225 1    
   207  105  106 1    
   208  105  107 1    
   209  105  226 1    
   210  106  227 1    
   211  106  228 1    
   212  106  229 1    
   213  107  108 2    
   214  107  109 am   BACKBONE|DICT|INTERRES
   215  109  110 1    
   216  109  230 1    
   217  110  111 1    
   218  110  112 1    
   219  110  231 1    
   220  111  232 1    
   221  111  233 1    
   222  111  234 1    
   223  112  113 2    
   224  112  114 am   BACKBONE|DICT|INTERRES
   225  114  115 1    
   226  114  235 1    
   227  115  116 1    
   228  115  117 1    
   229  115  236 1    
   230  116  237 1    
   231  116  238 1    
   232  116  239 1    
   233  117  118 2    
   234  117  119 am   BACKBONE|DICT|INTERRES
   235  119  120 1    
   236  119  240 1    
   237  120  121 1    
   238  120  124 1    
   239  120  241 1    
   240  121  122 am   BACKBONE|DICT|INTERRES
   241  121  123 2    
   242  122  242 1    
   243  122  243 1    
   244  124  125 1    
   245  124  244 1    
   246  124  245 1    
   247  125  126 1    
   248  126  246 1    
   249  126  247 1    
@<TRIPOS>SUBSTRUCTURE
     1 UNK         1 GROUP             0       ****    0 ROOT    
