@<TRIPOS>MOLECULE
3R540
247   249    1
SMALL
USER_CHARGES


@<TRIPOS>ATOM
      1 CA          1.9879  -18.8029  -44.9530 C.3       0 UNK        -0.1800 
      2 C           1.9586  -17.7286  -46.0266 C.2       0 UNK         0.5000 
      3 O           1.0211  -16.9350  -46.0792 O.2       0 UNK        -0.5000 
      4 N           2.9859  -17.7191  -46.8822 N.am      1 UNK        -0.5000 
      5 CA          3.1558  -16.8001  -48.0158 C.3       1 UNK         0.1400 
      6 C6          4.2639  -17.3345  -48.9589 C.3       23 UNK        -0.0398 
      7 S7          4.1555  -16.7080  -50.6699 S.3       23 UNK        -0.2404 
      8 C8          3.8101  -18.2221  -51.6207 C.3       23 UNK        -0.0205 
      9 C9          2.3182  -18.4803  -51.7673 C.ar      23 UNK        -0.0193 
     10 C10         1.6117  -17.8542  -52.7984 C.ar      23 UNK        -0.1150 
     11 C11         0.2520  -18.1117  -52.9917 C.ar      23 UNK        -0.0193 
     12 C12        -0.3990  -19.0076  -52.1401 C.ar      23 UNK        -0.1150 
     13 C13         0.2979  -19.6586  -51.1178 C.ar      23 UNK        -0.0193 
     14 C14         1.6556  -19.3800  -50.9246 C.ar      23 UNK        -0.1150 
     15 C15        -0.4107  -20.7140  -50.2814 C.3       23 UNK        -0.0205 
     16 S16        -1.3420  -19.9914  -48.9001 S.3       23 UNK        -0.2404 
     17 C17        -0.1567  -20.2163  -47.5243 C.3       23 UNK        -0.0398 
     18 CA         -0.1441  -21.5821  -46.7583 C.3       11 UNK         0.1400 
     19 N          -0.2055  -21.4122  -45.3037 N.am      11 UNK        -0.5000 
     20 C           0.1993  -22.3273  -44.4094 C.2       10 UNK         0.5000 
     21 O           0.7433  -23.3856  -44.7219 O.2       10 UNK        -0.5000 
     22 CA         -0.0907  -22.0397  -42.9214 C.3       10 UNK         0.1400 
     23 CB          1.1052  -21.3481  -42.2501 C.3       10 UNK        -0.1800 
     24 N          -1.2956  -21.2335  -42.7150 N.am      10 UNK        -0.5000 
     25 C          -2.5401  -21.6585  -42.9750 C.2       9 UNK         0.5000 
     26 O          -2.7997  -22.8010  -43.3489 O.2       9 UNK        -0.5000 
     27 CA         -3.6772  -20.6227  -42.8574 C.3       9 UNK         0.1400 
     28 CB         -4.2982  -20.6670  -41.4537 C.3       9 UNK        -0.1800 
     29 N          -3.2740  -19.2445  -43.1646 N.am      9 UNK        -0.5000 
     30 C          -2.7244  -18.8380  -44.3176 C.2       8 UNK         0.5000 
     31 O          -2.4691  -19.6063  -45.2486 O.2       8 UNK        -0.5000 
     32 CA         -2.3419  -17.3451  -44.3994 C.3       8 UNK         0.1400 
     33 CB         -1.2721  -17.0056  -43.3484 C.3       8 UNK        -0.1800 
     34 N          -1.8309  -16.9666  -45.7174 N.am      8 UNK        -0.5000 
     35 C          -2.5743  -16.8561  -46.8240 C.2       7 UNK         0.5000 
     36 O          -3.8002  -16.9821  -46.8450 O.2       7 UNK        -0.5000 
     37 CA         -1.8137  -16.4606  -48.0957 C.3       7 UNK         0.1400 
     38 CB         -2.6532  -16.6173  -49.3768 C.3       7 UNK        -0.1800 
     39 N          -1.3721  -15.0809  -47.9412 N.am      7 UNK        -0.5000 
     40 C          -0.3679  -14.5045  -48.6104 C.2       6 UNK         0.5000 
     41 O           0.2652  -15.0698  -49.5010 O.2       6 UNK        -0.5000 
     42 CA         -0.0218  -13.0451  -48.2417 C.3       6 UNK         0.1400 
     43 CB         -0.3504  -12.0948  -49.4029 C.3       6 UNK        -0.1800 
     44 N          -0.7108  -12.5637  -47.0401 N.am      6 UNK        -0.5000 
     45 C          -0.3368  -12.8428  -45.7864 C.2       5 UNK         0.5000 
     46 O           0.6455  -13.5312  -45.5004 O.2       5 UNK        -0.5000 
     47 CA         -1.2449  -12.2844  -44.6757 C.3       5 UNK         0.1400 
     48 CB         -2.4667  -13.1940  -44.4694 C.3       5 UNK        -0.1800 
     49 N          -0.5102  -12.1916  -43.4191 N.am      5 UNK        -0.5000 
     50 C           0.2909  -11.1798  -43.0711 C.2       4 UNK         0.5000 
     51 O           0.3653  -10.1202  -43.6948 O.2       4 UNK        -0.5000 
     52 CA          1.1970  -11.4043  -41.8450 C.3       4 UNK         0.1400 
     53 CB          0.4015  -11.3682  -40.5254 C.3       4 UNK        -0.1800 
     54 N           2.0228  -12.6134  -41.9647 N.am      4 UNK        -0.5000 
     55 C           1.6455  -13.8996  -41.9552 C.2       3 UNK         0.5000 
     56 O           0.4917  -14.2800  -41.7476 O.2       3 UNK        -0.5000 
     57 CA          2.7447  -14.9137  -42.3194 C.3       3 UNK         0.1400 
     58 CB          2.3311  -16.3700  -42.0519 C.3       3 UNK        -0.1800 
     59 N           3.1027  -14.7707  -43.7315 N.am      3 UNK        -0.5000 
     60 C           3.9788  -13.8772  -44.2109 C.2       2 UNK         0.5000 
     61 O           4.5999  -13.0952  -43.4881 O.2       2 UNK        -0.5000 
     62 CA          4.1954  -13.8507  -45.7352 C.3       2 UNK         0.1400 
     63 CB          5.6153  -13.3966  -46.1273 C.3       2 UNK        -0.1800 
     64 N           3.9092  -15.1547  -46.3343 N.am      2 UNK        -0.5000 
     65 C           3.4372  -15.3406  -47.5741 C.2       1 UNK         0.5000 
     66 O           3.2352  -14.4142  -48.3587 O.2       1 UNK        -0.5000 
     67 C          -1.2068  -22.6094  -47.1987 C.2       11 UNK         0.5000 
     68 O          -0.8877  -23.5134  -47.9681 O.2       11 UNK        -0.5000 
     69 N          -2.4289  -22.4820  -46.6611 N.am      12 UNK        -0.5000 
     70 CA         -3.5412  -23.3995  -46.9130 C.3       12 UNK         0.1400 
     71 CB         -4.8242  -22.8264  -46.2936 C.3       12 UNK        -0.1800 
     72 C          -3.2753  -24.8298  -46.4060 C.2       12 UNK         0.5000 
     73 O          -3.7080  -25.7878  -47.0435 O.2       12 UNK        -0.5000 
     74 N          -2.5492  -24.9541  -45.2876 N.am      13 UNK        -0.5000 
     75 CA         -2.0775  -26.2291  -44.7502 C.3       13 UNK         0.1400 
     76 CB         -1.5569  -26.0176  -43.3203 C.3       13 UNK        -0.1800 
     77 C          -0.9948  -26.8788  -45.6340 C.2       13 UNK         0.5000 
     78 O          -1.0133  -28.0968  -45.8157 O.2       13 UNK        -0.5000 
     79 N          -0.0727  -26.0613  -46.1611 N.am      14 UNK        -0.5000 
     80 CA          1.0307  -26.5005  -47.0150 C.3       14 UNK         0.1400 
     81 CB          2.1160  -25.4129  -47.0418 C.3       14 UNK        -0.1800 
     82 C           0.5855  -26.8530  -48.4460 C.2       14 UNK         0.5000 
     83 O           1.0420  -27.8591  -48.9909 O.2       14 UNK        -0.5000 
     84 N          -0.2788  -26.0174  -49.0313 N.am      15 UNK        -0.5000 
     85 CA         -0.7379  -26.1056  -50.4110 C.3       15 UNK         0.1400 
     86 CB          0.1111  -25.1653  -51.2872 C.3       15 UNK        -0.1800 
     87 C          -2.2308  -25.7580  -50.4581 C.2       15 UNK         0.5000 
     88 O          -2.5933  -24.6174  -50.7491 O.2       15 UNK        -0.5000 
     89 N          -3.0795  -26.7558  -50.1780 N.am      16 UNK        -0.5000 
     90 CA         -4.5427  -26.6356  -50.1406 C.3       16 UNK         0.1400 
     91 CB         -5.1466  -27.9715  -49.6838 C.3       16 UNK        -0.1800 
     92 C          -5.1785  -26.1782  -51.4682 C.2       16 UNK         0.5000 
     93 O          -6.2178  -25.5195  -51.4494 O.2       16 UNK        -0.5000 
     94 N          -4.5209  -26.4893  -52.5932 N.am      17 UNK        -0.5000 
     95 CA         -4.8939  -26.0358  -53.9347 C.3       17 UNK         0.1400 
     96 CB         -4.0929  -26.8447  -54.9668 C.3       17 UNK        -0.1800 
     97 C          -4.6858  -24.5222  -54.1598 C.2       17 UNK         0.5000 
     98 O          -5.2771  -23.9697  -55.0880 O.2       17 UNK        -0.5000 
     99 N          -3.8571  -23.8840  -53.3226 N.am      18 UNK        -0.5000 
    100 CA        -3.5193  -22.4622  -53.3760 C.3       18 UNK         0.1400 
    101 CB        -1.9976  -22.3319  -53.5613 C.3       18 UNK        -0.1800 
    102 C         -4.0061  -21.7097  -52.1217 C.2       18 UNK         0.5000 
    103 O         -3.5989  -20.5664  -51.9124 O.2       18 UNK        -0.5000 
    104 N         -4.8672  -22.3420  -51.3097 N.am      19 UNK        -0.5000 
    105 CA        -5.4292  -21.7952  -50.0745 C.3       19 UNK         0.1400 
    106 CB        -6.3808  -22.8277  -49.4508 C.3       19 UNK        -0.1800 
    107 C         -6.1517  -20.4551  -50.3056 C.2       19 UNK         0.5000 
    108 O         -7.1615  -20.4221  -51.0115 O.2       19 UNK        -0.5000 
    109 N         -5.5881  -19.3825  -49.7325 N.am      20 UNK        -0.5000 
    110 CA        -6.0228  -17.9835  -49.8286 C.3       20 UNK         0.1400 
    111 CB        -7.4435  -17.8048  -49.2533 C.3       20 UNK        -0.1800 
    112 C         -5.8848  -17.3571  -51.2368 C.2       20 UNK         0.5000 
    113 O         -6.3591  -16.2376  -51.4361 O.2       20 UNK        -0.5000 
    114 N         -5.2325  -18.0467  -52.1876 N.am      21 UNK        -0.5000 
    115 CA        -5.1733  -17.6551  -53.6022 C.3       21 UNK         0.1400 
    116 CB        -4.5934  -18.8085  -54.4347 C.3       21 UNK        -0.1800 
    117 C         -4.3998  -16.3500  -53.8690 C.2       21 UNK         0.5000 
    118 O         -4.7378  -15.6299  -54.8093 O.2       21 UNK        -0.5000 
    119 N         -3.4001  -16.0641  -53.0279 N.am      22 UNK        -0.5000 
    120 CA        -2.6364  -14.8055  -53.0234 C.3       22 UNK         0.1400 
    121 C         -3.2088  -13.7481  -52.0319 C.2       22 UNK         0.5000 
    122 N         -4.3397  -13.9772  -51.3725 N.am      22 UNK        -0.7600 
    123 O         -2.6348  -12.6743  -51.8814 O.2       22 UNK        -0.5000 
    124 C124       -1.1173  -15.0604  -52.8151 C.3       23 UNK        -0.0398 
    125 S125       -0.3050  -15.6905  -54.3218 S.3       23 UNK        -0.2404 
    126 C126       -0.5001  -17.4972  -54.1667 C.3       23 UNK        -0.0205 
    127 H127        2.5880  -18.4784  -44.1046 H         1 UNK         0.0600 
    128 H128        0.9792  -19.0107  -44.6032 H         1 UNK         0.0600 
    129 H129        2.4079  -19.7331  -45.3365 H         1 UNK         0.0600 
    130 H130        3.7218  -18.4009  -46.7634 H         1 UNK         0.3000 
    131 H131        2.2108  -16.7959  -48.5639 H         1 UNK         0.0600 
    132 H132        4.2172  -18.4232  -48.9968 H         1 UNK         0.0800 
    133 H133        5.2558  -17.1035  -48.5661 H         1 UNK         0.0800 
    134 H134        4.2506  -18.1088  -52.6124 H         1 UNK         0.0800 
    135 H135        4.3119  -19.0827  -51.1763 H         1 UNK         0.0800 
    136 H136        2.1272  -17.1769  -53.4648 H         1 UNK         0.1150 
    137 H137       -1.4449  -19.2302  -52.2935 H         1 UNK         0.1150 
    138 H138        2.2029  -19.8865  -50.1425 H         1 UNK         0.1150 
    139 H139       -1.1129  -21.2621  -50.9090 H         1 UNK         0.0800 
    140 H140        0.2978  -21.4587  -49.9157 H         1 UNK         0.0800 
    141 H141        0.8445  -20.0004  -47.8992 H         1 UNK         0.0800 
    142 H142       -0.3687  -19.4038  -46.8304 H         1 UNK         0.0800 
    143 H143        0.8200  -22.0450  -46.9817 H         1 UNK         0.0600 
    144 H144       -0.7529  -20.6236  -44.9801 H         1 UNK         0.3000 
    145 H145       -0.2402  -23.0029  -42.4290 H         1 UNK         0.0600 
    146 H146        0.9605  -21.2761  -41.1721 H         1 UNK         0.0600 
    147 H147        2.0262  -21.9088  -42.4158 H         1 UNK         0.0600 
    148 H148        1.2601  -20.3399  -42.6320 H         1 UNK         0.0600 
    149 H149       -1.1660  -20.2842  -42.3988 H         1 UNK         0.3000 
    150 H150       -4.4467  -20.9039  -43.5788 H         1 UNK         0.0600 
    151 H151       -4.6304  -21.6759  -41.2050 H         1 UNK         0.0600 
    152 H152       -5.1691  -20.0147  -41.3861 H         1 UNK         0.0600 
    153 H153       -3.5855  -20.3579  -40.6881 H         1 UNK         0.0600 
    154 H154       -3.4420  -18.5620  -42.4395 H         1 UNK         0.3000 
    155 H155       -3.2350  -16.7505  -44.1968 H         1 UNK         0.0600 
    156 H156       -0.8580  -16.0090  -43.5006 H         1 UNK         0.0600 
    157 H157       -0.4453  -17.7129  -43.3784 H         1 UNK         0.0600 
    158 H158       -1.6846  -17.0301  -42.3395 H         1 UNK         0.0600 
    159 H159       -0.8219  -16.8558  -45.7999 H         1 UNK         0.3000 
    160 H160       -0.9375  -17.1079  -48.1706 H         1 UNK         0.0600 
    161 H161       -3.4895  -15.9185  -49.3979 H         1 UNK         0.0600 
    162 H162       -3.0495  -17.6283  -49.4617 H         1 UNK         0.0600 
    163 H163       -2.0473  -16.4457  -50.2609 H         1 UNK         0.0600 
    164 H164       -1.8306  -14.5528  -47.2137 H         1 UNK         0.3000 
    165 H165        1.0543  -13.0009  -48.0673 H         1 UNK         0.0600 
    166 H166       -1.4240  -12.0444  -49.5848 H         1 UNK         0.0600 
    167 H167        0.0030  -11.0843  -49.1974 H         1 UNK         0.0600 
    168 H168        0.1251  -12.4224  -50.3285 H         1 UNK         0.0600 
    169 H169       -1.5293  -11.9923  -47.1946 H         1 UNK         0.3000 
    170 H170       -1.5929  -11.2911  -44.9674 H         1 UNK         0.0600 
    171 H171       -3.0688  -13.2593  -45.3763 H         1 UNK         0.0600 
    172 H172       -2.1735  -14.2073  -44.1971 H         1 UNK         0.0600 
    173 H173       -3.1129  -12.8107  -43.6796 H         1 UNK         0.0600 
    174 H174       -0.4264  -13.0480  -42.8784 H         1 UNK         0.3000 
    175 H175        1.9017  -10.5716  -41.8187 H         1 UNK         0.0600 
    176 H176        1.0597  -11.4932  -39.6657 H         1 UNK         0.0600 
    177 H177       -0.1075  -10.4108  -40.4088 H         1 UNK         0.0600 
    178 H178       -0.3611  -12.1458  -40.4797 H         1 UNK         0.0600 
    179 H179        2.9886  -12.4394  -42.2206 H         1 UNK         0.3000 
    180 H180        3.6130  -14.6999  -41.6924 H         1 UNK         0.0600 
    181 H181        3.1677  -17.0496  -42.2130 H         1 UNK         0.0600 
    182 H182        2.0003  -16.5022  -41.0211 H         1 UNK         0.0600 
    183 H183        1.5157  -16.6793  -42.7031 H         1 UNK         0.0600 
    184 H184        2.5212  -15.2662  -44.3939 H         1 UNK         0.3000 
    185 H185        3.4816  -13.1188  -46.1193 H         1 UNK         0.0600 
    186 H186        5.7297  -13.3442  -47.2101 H         1 UNK         0.0600 
    187 H187        5.8356  -12.4034  -45.7343 H         1 UNK         0.0600 
    188 H188        6.3729  -14.0802  -45.7430 H         1 UNK         0.0600 
    189 H189        4.0689  -15.9612  -45.7477 H         1 UNK         0.3000 
    190 H190       -2.6064  -21.6932  -46.0517 H         1 UNK         0.3000 
    191 H191       -3.6760  -23.4606  -47.9948 H         1 UNK         0.0600 
    192 H192       -5.6805  -23.4649  -46.5135 H         1 UNK         0.0600 
    193 H193       -5.0454  -21.8337  -46.6862 H         1 UNK         0.0600 
    194 H194       -4.7488  -22.7494  -45.2094 H         1 UNK         0.0600 
    195 H195       -2.3278  -24.1183  -44.7566 H         1 UNK         0.3000 
    196 H196       -2.9272  -26.9135  -44.7035 H         1 UNK         0.0600 
    197 H197       -1.2353  -26.9616  -42.8788 H         1 UNK         0.0600 
    198 H198       -2.3323  -25.6035  -42.6754 H         1 UNK         0.0600 
    199 H199       -0.7050  -25.3378  -43.2981 H         1 UNK         0.0600 
    200 H200       -0.1100  -25.0739  -45.9415 H         1 UNK         0.3000 
    201 H201        1.4693  -27.3980  -46.5734 H         1 UNK         0.0600 
    202 H202        2.5017  -25.2172  -46.0411 H         1 UNK         0.0600 
    203 H203        1.7354  -24.4727  -47.4424 H         1 UNK         0.0600 
    204 H204        2.9601  -25.7171  -47.6620 H         1 UNK         0.0600 
    205 H205       -0.5943  -25.1912  -48.5228 H         1 UNK         0.3000 
    206 H206       -0.6236  -27.1234  -50.7899 H         1 UNK         0.0600 
    207 H207        1.1571  -25.4720  -51.2940 H         1 UNK         0.0600 
    208 H208       -0.2378  -25.1713  -52.3205 H         1 UNK         0.0600 
    209 H209        0.0684  -24.1351  -50.9300 H         1 UNK         0.0600 
    210 H210       -2.6996  -27.6556  -49.9221 H         1 UNK         0.3000 
    211 H211       -4.7912  -25.8780  -49.3969 H         1 UNK         0.0600 
    212 H212       -6.2342  -27.9096  -49.6253 H         1 UNK         0.0600 
    213 H213       -4.7854  -28.2463  -48.6924 H         1 UNK         0.0600 
    214 H214       -4.8991  -28.7817  -50.3707 H         1 UNK         0.0600 
    215 H215       -3.6758  -27.0359  -52.5174 H         1 UNK         0.3000 
    216 H216       -5.9552  -26.2459  -54.0829 H         1 UNK         0.0600 
    217 H217       -4.3663  -26.5611  -55.9840 H         1 UNK         0.0600 
    218 H218       -4.2851  -27.9132  -54.8670 H         1 UNK         0.0600 
    219 H219       -3.0195  -26.6836  -54.8587 H         1 UNK         0.0600 
    220 H220       -3.4375  -24.3940  -52.5512 H         1 UNK         0.3000 
    221 H221       -4.0035  -21.9840  -54.2291 H         1 UNK         0.0600 
    222 H222       -1.4536  -22.7717  -52.7250 H         1 UNK         0.0600 
    223 H223       -1.6694  -22.8332  -54.4717 H         1 UNK         0.0600 
    224 H224       -1.6953  -21.2876  -53.6434 H         1 UNK         0.0600 
    225 H225       -5.1728  -23.2692  -51.5687 H         1 UNK         0.3000 
    226 H226       -4.5998  -21.6340  -49.3828 H         1 UNK         0.0600 
    227 H227       -5.8514  -23.7391  -49.1767 H         1 UNK         0.0600 
    228 H228       -6.8467  -22.4358  -48.5461 H         1 UNK         0.0600 
    229 H229       -7.1823  -23.1019  -50.1381 H         1 UNK         0.0600 
    230 H230       -4.7325  -19.5236  -49.2131 H         1 UNK         0.3000 
    231 H231       -5.3561  -17.4189  -49.1791 H         1 UNK         0.0600 
    232 H232       -7.6954  -16.7481  -49.1564 H         1 UNK         0.0600 
    233 H233       -7.5257  -18.2468  -48.2603 H         1 UNK         0.0600 
    234 H234       -8.2025  -18.2607  -49.8894 H         1 UNK         0.0600 
    235 H235       -4.8155  -18.9411  -51.9484 H         1 UNK         0.3000 
    236 H236       -6.2001  -17.4902  -53.9356 H         1 UNK         0.0600 
    237 H237       -3.5765  -19.0554  -54.1302 H         1 UNK         0.0600 
    238 H238       -4.5645  -18.5512  -55.4942 H         1 UNK         0.0600 
    239 H239       -5.2026  -19.7070  -54.3368 H         1 UNK         0.0600 
    240 H240       -3.2113  -16.7081  -52.2750 H         1 UNK         0.3000 
    241 H241       -2.7435  -14.3273  -53.9987 H         1 UNK         0.0600 
    242 H242       -4.6940  -13.2644  -50.7557 H         1 UNK         0.3800 
    243 H243       -4.8885  -14.8139  -51.5293 H         1 UNK         0.3800 
    244 H244       -0.9273  -15.7399  -51.9868 H         1 UNK         0.0800 
    245 H245       -0.5972  -14.1364  -52.5571 H         1 UNK         0.0800 
    246 H246       -0.1319  -17.9599  -55.0830 H         1 UNK         0.0800 
    247 H247       -1.5610  -17.7378  -54.1171 H         1 UNK         0.0800 
@<TRIPOS>BOND
     1    1    2 1    
     2    1  127 1    
     3    1  128 1    
     4    1  129 1    
     5    2    3 2    
     6    2    4 am   BACKBONE|DICT|INTERRES
     7    4    5 1    
     8    4  130 1    
     9    5    6 1    
    10    5   65 1    
    11    5  131 1    
    12    6    7 1    
    13    6  132 1    
    14    6  133 1    
    15    7    8 1    
    16    8    9 1    
    17    8  134 1    
    18    8  135 1    
    19    9   10 ar   
    20    9   14 ar   
    21   10   11 ar   
    22   10  136 1    
    23   11   12 ar   
    24   11  126 1    
    25   12   13 ar   
    26   12  137 1    
    27   13   14 ar   
    28   13   15 1    
    29   14  138 1    
    30   15   16 1    
    31   15  139 1    
    32   15  140 1    
    33   16   17 1    
    34   17   18 1    
    35   17  141 1    
    36   17  142 1    
    37   18   19 1    
    38   18   67 1    
    39   18  143 1    
    40   19   20 am   BACKBONE|DICT|INTERRES
    41   19  144 1    
    42   20   21 2    
    43   20   22 1    
    44   22   23 1    
    45   22   24 1    
    46   22  145 1    
    47   23  146 1    
    48   23  147 1    
    49   23  148 1    
    50   24   25 am   BACKBONE|DICT|INTERRES
    51   24  149 1    
    52   25   26 2    
    53   25   27 1    
    54   27   28 1    
    55   27   29 1    
    56   27  150 1    
    57   28  151 1    
    58   28  152 1    
    59   28  153 1    
    60   29   30 am   BACKBONE|DICT|INTERRES
    61   29  154 1    
    62   30   31 2    
    63   30   32 1    
    64   32   33 1    
    65   32   34 1    
    66   32  155 1    
    67   33  156 1    
    68   33  157 1    
    69   33  158 1    
    70   34   35 am   BACKBONE|DICT|INTERRES
    71   34  159 1    
    72   35   36 2    
    73   35   37 1    
    74   37   38 1    
    75   37   39 1    
    76   37  160 1    
    77   38  161 1    
    78   38  162 1    
    79   38  163 1    
    80   39   40 am   BACKBONE|DICT|INTERRES
    81   39  164 1    
    82   40   41 2    
    83   40   42 1    
    84   42   43 1    
    85   42   44 1    
    86   42  165 1    
    87   43  166 1    
    88   43  167 1    
    89   43  168 1    
    90   44   45 am   BACKBONE|DICT|INTERRES
    91   44  169 1    
    92   45   46 2    
    93   45   47 1    
    94   47   48 1    
    95   47   49 1    
    96   47  170 1    
    97   48  171 1    
    98   48  172 1    
    99   48  173 1    
   100   49   50 am   BACKBONE|DICT|INTERRES
   101   49  174 1    
   102   50   51 2    
   103   50   52 1    
   104   52   53 1    
   105   52   54 1    
   106   52  175 1    
   107   53  176 1    
   108   53  177 1    
   109   53  178 1    
   110   54   55 am   BACKBONE|DICT|INTERRES
   111   54  179 1    
   112   55   56 2    
   113   55   57 1    
   114   57   58 1    
   115   57   59 1    
   116   57  180 1    
   117   58  181 1    
   118   58  182 1    
   119   58  183 1    
   120   59   60 am   BACKBONE|DICT|INTERRES
   121   59  184 1    
   122   60   61 2    
   123   60   62 1    
   124   62   63 1    
   125   62   64 1    
   126   62  185 1    
   127   63  186 1    
   128   63  187 1    
   129   63  188 1    
   130   64   65 am   BACKBONE|DICT|INTERRES
   131   64  189 1    
   132   65   66 2    
   133   67   68 2    
   134   67   69 am   BACKBONE|DICT|INTERRES
   135   69   70 1    
   136   69  190 1    
   137   70   71 1    
   138   70   72 1    
   139   70  191 1    
   140   71  192 1    
   141   71  193 1    
   142   71  194 1    
   143   72   73 2    
   144   72   74 am   BACKBONE|DICT|INTERRES
   145   74   75 1    
   146   74  195 1    
   147   75   76 1    
   148   75   77 1    
   149   75  196 1    
   150   76  197 1    
   151   76  198 1    
   152   76  199 1    
   153   77   78 2    
   154   77   79 am   BACKBONE|DICT|INTERRES
   155   79   80 1    
   156   79  200 1    
   157   80   81 1    
   158   80   82 1    
   159   80  201 1    
   160   81  202 1    
   161   81  203 1    
   162   81  204 1    
   163   82   83 2    
   164   82   84 am   BACKBONE|DICT|INTERRES
   165   84   85 1    
   166   84  205 1    
   167   85   86 1    
   168   85   87 1    
   169   85  206 1    
   170   86  207 1    
   171   86  208 1    
   172   86  209 1    
   173   87   88 2    
   174   87   89 am   BACKBONE|DICT|INTERRES
   175   89   90 1    
   176   89  210 1    
   177   90   91 1    
   178   90   92 1    
   179   90  211 1    
   180   91  212 1    
   181   91  213 1    
   182   91  214 1    
   183   92   93 2    
   184   92   94 am   BACKBONE|DICT|INTERRES
   185   94   95 1    
   186   94  215 1    
   187   95   96 1    
   188   95   97 1    
   189   95  216 1    
   190   96  217 1    
   191   96  218 1    
   192   96  219 1    
   193   97   98 2    
   194   97   99 am   BACKBONE|DICT|INTERRES
   195   99  100 1    
   196   99  220 1    
   197  100  101 1    
   198  100  102 1    
   199  100  221 1    
   200  101  222 1    
   201  101  223 1    
   202  101  224 1    
   203  102  103 2    
   204  102  104 am   BACKBONE|DICT|INTERRES
   205  104  105 1    
   206  104  225 1    
   207  105  106 1    
   208  105  107 1    
   209  105  226 1    
   210  106  227 1    
   211  106  228 1    
   212  106  229 1    
   213  107  108 2    
   214  107  109 am   BACKBONE|DICT|INTERRES
   215  109  110 1    
   216  109  230 1    
   217  110  111 1    
   218  110  112 1    
   219  110  231 1    
   220  111  232 1    
   221  111  233 1    
   222  111  234 1    
   223  112  113 2    
   224  112  114 am   BACKBONE|DICT|INTERRES
   225  114  115 1    
   226  114  235 1    
   227  115  116 1    
   228  115  117 1    
   229  115  236 1    
   230  116  237 1    
   231  116  238 1    
   232  116  239 1    
   233  117  118 2    
   234  117  119 am   BACKBONE|DICT|INTERRES
   235  119  120 1    
   236  119  240 1    
   237  120  121 1    
   238  120  124 1    
   239  120  241 1    
   240  121  122 am   BACKBONE|DICT|INTERRES
   241  121  123 2    
   242  122  242 1    
   243  122  243 1    
   244  124  125 1    
   245  124  244 1    
   246  124  245 1    
   247  125  126 1    
   248  126  246 1    
   249  126  247 1    
@<TRIPOS>SUBSTRUCTURE
     1 UNK         1 GROUP             0       ****    0 ROOT    
