@<TRIPOS>MOLECULE
3R540
247   249    1
SMALL
USER_CHARGES


@<TRIPOS>ATOM
      1 CA         -2.3816  -15.9097  -48.8130 C.3       0 UNK        -0.1800 
      2 C          -1.5781  -14.6788  -48.4187 C.2       0 UNK         0.5000 
      3 O          -2.0967  -13.8215  -47.7038 O.2       0 UNK        -0.5000 
      4 N          -0.3274  -14.5770  -48.8890 N.am      1 UNK        -0.5000 
      5 CA          0.5871  -13.4673  -48.5995 C.3       1 UNK         0.1400 
      6 C6          1.7839  -13.4089  -49.5799 C.3       23 UNK        -0.0398 
      7 S7          1.2432  -13.1012  -51.2991 S.3       23 UNK        -0.2404 
      8 C8          1.9387  -14.5212  -52.2041 C.3       23 UNK        -0.0205 
      9 C9          1.2870  -15.8361  -51.8051 C.ar      23 UNK        -0.0193 
     10 C10         0.0219  -16.1774  -52.2951 C.ar      23 UNK        -0.1150 
     11 C11        -0.5825  -17.3804  -51.9171 C.ar      23 UNK        -0.0193 
     12 C12         0.0906  -18.2440  -51.0493 C.ar      23 UNK        -0.1150 
     13 C13         1.3503  -17.9087  -50.5478 C.ar      23 UNK        -0.0193 
     14 C14         1.9489  -16.7099  -50.9385 C.ar      23 UNK        -0.1150 
     15 C15         2.0528  -18.8278  -49.5623 C.3       23 UNK        -0.0205 
     16 S16         1.8709  -18.2512  -47.8416 S.3       23 UNK        -0.2404 
     17 C17         0.0640  -18.3390  -47.5932 C.3       23 UNK        -0.0398 
     18 CA         -0.4204  -19.7761  -47.3024 C.3       11 UNK         0.1400 
     19 N          -0.0362  -20.2341  -45.9685 N.am      11 UNK        -0.5000 
     20 C          -0.0947  -21.5046  -45.5540 C.2       10 UNK         0.5000 
     21 O          -0.4763  -22.4345  -46.2636 O.2       10 UNK        -0.5000 
     22 CA          0.3024  -21.7765  -44.0923 C.3       10 UNK         0.1400 
     23 CB          1.8300  -21.7841  -43.9326 C.3       10 UNK        -0.1800 
     24 N          -0.2866  -20.8159  -43.1582 N.am      10 UNK        -0.5000 
     25 C          -1.6033  -20.6756  -42.9475 C.2       9 UNK         0.5000 
     26 O          -2.4627  -21.3575  -43.5072 O.2       9 UNK        -0.5000 
     27 CA         -2.0361  -19.5584  -41.9805 C.3       9 UNK         0.1400 
     28 CB         -1.8112  -19.9755  -40.5194 C.3       9 UNK        -0.1800 
     29 N          -1.3531  -18.2911  -42.2375 N.am      9 UNK        -0.5000 
     30 C          -1.4547  -17.5890  -43.3756 C.2       8 UNK         0.5000 
     31 O          -2.1534  -17.9206  -44.3318 O.2       8 UNK        -0.5000 
     32 CA         -0.5829  -16.3278  -43.4823 C.3       8 UNK         0.1400 
     33 CB         -1.1807  -15.1956  -42.6314 C.3       8 UNK        -0.1800 
     34 N           0.8020  -16.5744  -43.0792 N.am      8 UNK        -0.5000 
     35 C           1.6137  -17.4909  -43.6274 C.2       7 UNK         0.5000 
     36 O           1.2908  -18.2206  -44.5596 O.2       7 UNK        -0.5000 
     37 CA          2.9943  -17.6779  -42.9808 C.3       7 UNK         0.1400 
     38 CB          3.9746  -16.5906  -43.4452 C.3       7 UNK        -0.1800 
     39 N           2.9095  -17.6958  -41.5211 N.am      7 UNK        -0.5000 
     40 C           2.3009  -18.6587  -40.8124 C.2       6 UNK         0.5000 
     41 O           1.7800  -19.6557  -41.3134 O.2       6 UNK        -0.5000 
     42 CA          2.2291  -18.4474  -39.2898 C.3       6 UNK         0.1400 
     43 CB          3.5278  -18.9134  -38.6150 C.3       6 UNK        -0.1800 
     44 N           1.9708  -17.0506  -38.9364 N.am      6 UNK        -0.5000 
     45 C           0.8133  -16.4163  -39.1706 C.2       5 UNK         0.5000 
     46 O          -0.1734  -16.9566  -39.6729 O.2       5 UNK        -0.5000 
     47 CA          0.7772  -14.9126  -38.8315 C.3       5 UNK         0.1400 
     48 CB          0.4880  -14.6993  -37.3382 C.3       5 UNK        -0.1800 
     49 N           2.0121  -14.2063  -39.1982 N.am      5 UNK        -0.5000 
     50 C           2.4566  -14.0893  -40.4554 C.2       4 UNK         0.5000 
     51 O           1.8718  -14.5797  -41.4256 O.2       4 UNK        -0.5000 
     52 CA          3.7784  -13.3383  -40.6797 C.3       4 UNK         0.1400 
     53 CB          4.9794  -14.1777  -40.2066 C.3       4 UNK        -0.1800 
     54 N           3.8715  -13.0923  -42.1119 N.am      4 UNK        -0.5000 
     55 C           4.6638  -12.2422  -42.7693 C.2       3 UNK         0.5000 
     56 O           5.5124  -11.5325  -42.2286 O.2       3 UNK        -0.5000 
     57 CA          4.4565  -12.1716  -44.2992 C.3       3 UNK         0.1400 
     58 CB          5.4968  -13.0408  -45.0220 C.3       3 UNK        -0.1800 
     59 N           3.1145  -12.5960  -44.7186 N.am      3 UNK        -0.5000 
     60 C           1.9873  -11.9188  -44.4668 C.2       2 UNK         0.5000 
     61 O           1.9690  -10.7976  -43.9557 O.2       2 UNK        -0.5000 
     62 CA          0.6699  -12.6239  -44.8427 C.3       2 UNK         0.1400 
     63 CB         -0.5586  -11.9536  -44.2011 C.3       2 UNK        -0.1800 
     64 N           0.4613  -12.6818  -46.2864 N.am      2 UNK        -0.5000 
     65 C           1.0550  -13.5329  -47.1307 C.2       1 UNK         0.5000 
     66 O           1.9075  -14.3543  -46.7869 O.2       1 UNK        -0.5000 
     67 C          -1.9325  -19.9224  -47.5594 C.2       11 UNK         0.5000 
     68 O          -2.3091  -20.3148  -48.6629 O.2       11 UNK        -0.5000 
     69 N          -2.7714  -19.6553  -46.5479 N.am      12 UNK        -0.5000 
     70 CA         -4.2181  -19.8770  -46.6071 C.3       12 UNK         0.1400 
     71 CB         -4.8947  -19.2588  -45.3750 C.3       12 UNK        -0.1800 
     72 C          -4.5799  -21.3675  -46.7392 C.2       12 UNK         0.5000 
     73 O          -5.4655  -21.7078  -47.5237 O.2       12 UNK        -0.5000 
     74 N          -3.8648  -22.2313  -46.0033 N.am      13 UNK        -0.5000 
     75 CA         -3.9823  -23.6868  -46.0988 C.3       13 UNK         0.1400 
     76 CB         -3.2026  -24.3480  -44.9526 C.3       13 UNK        -0.1800 
     77 C          -3.5218  -24.2265  -47.4658 C.2       13 UNK         0.5000 
     78 O          -4.1665  -25.1238  -48.0087 O.2       13 UNK        -0.5000 
     79 N          -2.4428  -23.6502  -48.0161 N.am      14 UNK        -0.5000 
     80 CA         -1.9413  -23.9512  -49.3561 C.3       14 UNK         0.1400 
     81 CB         -0.5733  -23.2895  -49.5795 C.3       14 UNK        -0.1800 
     82 C          -2.9385  -23.5440  -50.4532 C.2       14 UNK         0.5000 
     83 O          -3.2573  -24.3672  -51.3079 O.2       14 UNK        -0.5000 
     84 N          -3.4617  -22.3128  -50.3801 N.am      15 UNK        -0.5000 
     85 CA         -4.4517  -21.7550  -51.3097 C.3       15 UNK         0.1400 
     86 CB         -4.7439  -20.3028  -50.9056 C.3       15 UNK        -0.1800 
     87 C          -5.7721  -22.5470  -51.3889 C.2       15 UNK         0.5000 
     88 O          -6.4763  -22.4556  -52.3948 O.2       15 UNK        -0.5000 
     89 N          -6.0902  -23.2953  -50.3262 N.am      16 UNK        -0.5000 
     90 CA         -7.2881  -24.1183  -50.2151 C.3       16 UNK         0.1400 
     91 CB         -7.6091  -24.3188  -48.7252 C.3       16 UNK        -0.1800 
     92 C          -7.1855  -25.4789  -50.9331 C.2       16 UNK         0.5000 
     93 O          -8.2269  -26.1136  -51.1128 O.2       16 UNK        -0.5000 
     94 N          -5.9787  -25.9325  -51.3123 N.am      17 UNK        -0.5000 
     95 CA         -5.7833  -27.2647  -51.8919 C.3       17 UNK         0.1400 
     96 CB         -5.7997  -28.3388  -50.7851 C.3       17 UNK        -0.1800 
     97 C          -4.5134  -27.3755  -52.7469 C.2       17 UNK         0.5000 
     98 O          -4.6099  -27.6911  -53.9336 O.2       17 UNK        -0.5000 
     99 N          -3.3459  -27.1748  -52.1211 N.am      18 UNK        -0.5000 
    100 CA        -2.0254  -27.3919  -52.7213 C.3       18 UNK         0.1400 
    101 CB        -0.9502  -27.2992  -51.6278 C.3       18 UNK        -0.1800 
    102 C         -1.6976  -26.4309  -53.8790 C.2       18 UNK         0.5000 
    103 O         -1.0767  -26.8492  -54.8574 O.2       18 UNK        -0.5000 
    104 N         -2.1267  -25.1732  -53.7465 N.am      19 UNK        -0.5000 
    105 CA        -2.0385  -24.1353  -54.7645 C.3       19 UNK         0.1400 
    106 CB        -1.4157  -22.8771  -54.1410 C.3       19 UNK        -0.1800 
    107 C         -3.4497  -23.8382  -55.2885 C.2       19 UNK         0.5000 
    108 O         -4.4139  -23.8690  -54.5201 O.2       19 UNK        -0.5000 
    109 N         -3.5479  -23.5320  -56.5865 N.am      20 UNK        -0.5000 
    110 CA        -4.7931  -23.2001  -57.2779 C.3       20 UNK         0.1400 
    111 CB        -4.6164  -23.4900  -58.7794 C.3       20 UNK        -0.1800 
    112 C         -5.2022  -21.7406  -57.0013 C.2       20 UNK         0.5000 
    113 O         -5.0561  -20.8823  -57.8733 O.2       20 UNK        -0.5000 
    114 N         -5.6528  -21.4792  -55.7673 N.am      21 UNK        -0.5000 
    115 CA        -6.1217  -20.2062  -55.1981 C.3       21 UNK         0.1400 
    116 CB        -7.3231  -19.6482  -55.9853 C.3       21 UNK        -0.1800 
    117 C         -5.0365  -19.1263  -55.0008 C.2       21 UNK         0.5000 
    118 O         -5.1458  -18.3594  -54.0435 O.2       21 UNK        -0.5000 
    119 N         -4.0196  -19.1046  -55.8757 N.am      22 UNK        -0.5000 
    120 CA        -2.8432  -18.2135  -55.8977 C.3       22 UNK         0.1400 
    121 C         -3.1507  -16.6825  -55.8156 C.2       22 UNK         0.5000 
    122 N         -2.1714  -15.8365  -55.5197 N.am      22 UNK        -0.7600 
    123 O         -4.2573  -16.2311  -56.1031 O.2       22 UNK        -0.5000 
    124 C124       -1.6529  -18.7217  -55.0164 C.3       23 UNK        -0.0398 
    125 S125       -2.0554  -19.2763  -53.3245 S.3       23 UNK        -0.2404 
    126 C126       -1.9899  -17.7238  -52.3787 C.3       23 UNK        -0.0205 
    127 H127       -1.8752  -16.4902  -49.5809 H         1 UNK         0.0600 
    128 H128       -3.3542  -15.6136  -49.2057 H         1 UNK         0.0600 
    129 H129       -2.5445  -16.5491  -47.9451 H         1 UNK         0.0600 
    130 H130        0.0498  -15.3059  -49.4783 H         1 UNK         0.3000 
    131 H131        0.0272  -12.5381  -48.7294 H         1 UNK         0.0600 
    132 H132        2.4586  -12.5969  -49.3031 H         1 UNK         0.0800 
    133 H133        2.3769  -14.3218  -49.5224 H         1 UNK         0.0800 
    134 H134        3.0176  -14.5588  -52.0453 H         1 UNK         0.0800 
    135 H135        1.7957  -14.3600  -53.2735 H         1 UNK         0.0800 
    136 H136       -0.4984  -15.4937  -52.9510 H         1 UNK         0.1150 
    137 H137       -0.3842  -19.1663  -50.7425 H         1 UNK         0.1150 
    138 H138        2.9241  -16.4515  -50.5500 H         1 UNK         0.1150 
    139 H139        1.6773  -19.8479  -49.6525 H         1 UNK         0.0800 
    140 H140        3.1151  -18.8757  -49.8056 H         1 UNK         0.0800 
    141 H141       -0.4253  -17.9286  -48.4721 H         1 UNK         0.0800 
    142 H142       -0.2066  -17.6720  -46.7729 H         1 UNK         0.0800 
    143 H143        0.0665  -20.4422  -48.0165 H         1 UNK         0.0600 
    144 H144        0.3430  -19.5238  -45.3433 H         1 UNK         0.3000 
    145 H145       -0.0704  -22.7682  -43.8278 H         1 UNK         0.0600 
    146 H146        2.2633  -20.8083  -44.1533 H         1 UNK         0.0600 
    147 H147        2.1182  -22.0550  -42.9168 H         1 UNK         0.0600 
    148 H148        2.2896  -22.5083  -44.6063 H         1 UNK         0.0600 
    149 H149        0.3605  -20.2282  -42.6419 H         1 UNK         0.3000 
    150 H150       -3.1058  -19.3928  -42.1248 H         1 UNK         0.0600 
    151 H151       -2.3286  -20.9092  -40.2956 H         1 UNK         0.0600 
    152 H152       -2.1907  -19.2194  -39.8318 H         1 UNK         0.0600 
    153 H153       -0.7536  -20.1240  -40.2994 H         1 UNK         0.0600 
    154 H154       -0.7650  -17.9300  -41.4945 H         1 UNK         0.3000 
    155 H155       -0.5686  -16.0077  -44.5264 H         1 UNK         0.0600 
    156 H156       -1.3198  -15.4965  -41.5932 H         1 UNK         0.0600 
    157 H157       -0.5433  -14.3144  -42.6272 H         1 UNK         0.0600 
    158 H158       -2.1552  -14.8942  -43.0171 H         1 UNK         0.0600 
    159 H159        1.1641  -15.9883  -42.3306 H         1 UNK         0.3000 
    160 H160        3.3871  -18.6440  -43.3048 H         1 UNK         0.0600 
    161 H161        4.0970  -16.6191  -44.5289 H         1 UNK         0.0600 
    162 H162        4.9608  -16.7285  -43.0021 H         1 UNK         0.0600 
    163 H163        3.6248  -15.5936  -43.1866 H         1 UNK         0.0600 
    164 H164        3.2738  -16.8935  -41.0319 H         1 UNK         0.3000 
    165 H165        1.4071  -19.0562  -38.9069 H         1 UNK         0.0600 
    166 H166        3.4581  -18.8343  -37.5299 H         1 UNK         0.0600 
    167 H167        3.7361  -19.9579  -38.8509 H         1 UNK         0.0600 
    168 H168        4.3869  -18.3254  -38.9404 H         1 UNK         0.0600 
    169 H169        2.7300  -16.5336  -38.5183 H         1 UNK         0.3000 
    170 H170       -0.0421  -14.4694  -39.4018 H         1 UNK         0.0600 
    171 H171       -0.4342  -15.2021  -37.0437 H         1 UNK         0.0600 
    172 H172        1.2900  -15.0905  -36.7111 H         1 UNK         0.0600 
    173 H173        0.3670  -13.6408  -37.1075 H         1 UNK         0.0600 
    174 H174        2.5363  -13.7846  -38.4449 H         1 UNK         0.3000 
    175 H175        3.7433  -12.3860  -40.1475 H         1 UNK         0.0600 
    176 H176        5.0347  -15.1324  -40.7310 H         1 UNK         0.0600 
    177 H177        5.9197  -13.6525  -40.3738 H         1 UNK         0.0600 
    178 H178        4.9167  -14.3903  -39.1389 H         1 UNK         0.0600 
    179 H179        3.1677  -13.5985  -42.6348 H         1 UNK         0.3000 
    180 H180        4.6011  -11.1337  -44.6061 H         1 UNK         0.0600 
    181 H181        5.3922  -14.0946  -44.7607 H         1 UNK         0.0600 
    182 H182        6.5108  -12.7363  -44.7595 H         1 UNK         0.0600 
    183 H183        5.4014  -12.9523  -46.1044 H         1 UNK         0.0600 
    184 H184        3.0401  -13.4745  -45.2198 H         1 UNK         0.3000 
    185 H185        0.7319  -13.6447  -44.4613 H         1 UNK         0.0600 
    186 H186       -1.4667  -12.5220  -44.4035 H         1 UNK         0.0600 
    187 H187       -0.4500  -11.8905  -43.1175 H         1 UNK         0.0600 
    188 H188       -0.7082  -10.9401  -44.5753 H         1 UNK         0.0600 
    189 H189       -0.2426  -12.0570  -46.6531 H         1 UNK         0.3000 
    190 H190       -2.4056  -19.2776  -45.6778 H         1 UNK         0.3000 
    191 H191       -4.5989  -19.3648  -47.4932 H         1 UNK         0.0600 
    192 H192       -4.5172  -19.6915  -44.4480 H         1 UNK         0.0600 
    193 H193       -5.9732  -19.4196  -45.3988 H         1 UNK         0.0600 
    194 H194       -4.7280  -18.1824  -45.3341 H         1 UNK         0.0600 
    195 H195       -3.1864  -21.8698  -45.3403 H         1 UNK         0.3000 
    196 H196       -5.0370  -23.9446  -45.9814 H         1 UNK         0.0600 
    197 H197       -3.3008  -25.4336  -44.9895 H         1 UNK         0.0600 
    198 H198       -3.5760  -24.0198  -43.9824 H         1 UNK         0.0600 
    199 H199       -2.1394  -24.1127  -44.9969 H         1 UNK         0.0600 
    200 H200       -1.9189  -22.9727  -47.4702 H         1 UNK         0.3000 
    201 H201       -1.8040  -25.0322  -49.4153 H         1 UNK         0.0600 
    202 H202        0.1469  -23.6075  -48.8255 H         1 UNK         0.0600 
    203 H203       -0.6363  -22.2026  -49.5451 H         1 UNK         0.0600 
    204 H204       -0.1666  -23.5612  -50.5545 H         1 UNK         0.0600 
    205 H205       -3.1259  -21.6827  -49.6550 H         1 UNK         0.3000 
    206 H206       -4.0106  -21.7539  -52.3078 H         1 UNK         0.0600 
    207 H207       -3.8300  -19.7130  -50.8713 H         1 UNK         0.0600 
    208 H208       -5.4143  -19.8236  -51.6198 H         1 UNK         0.0600 
    209 H209       -5.2118  -20.2465  -49.9223 H         1 UNK         0.0600 
    210 H210       -5.4669  -23.2886  -49.5300 H         1 UNK         0.3000 
    211 H211       -8.1230  -23.5774  -50.6654 H         1 UNK         0.0600 
    212 H212       -6.8227  -24.8747  -48.2146 H         1 UNK         0.0600 
    213 H213       -8.5388  -24.8743  -48.5958 H         1 UNK         0.0600 
    214 H214       -7.7292  -23.3630  -48.2146 H         1 UNK         0.0600 
    215 H215       -5.1584  -25.3447  -51.2060 H         1 UNK         0.3000 
    216 H216       -6.6148  -27.4731  -52.5690 H         1 UNK         0.0600 
    217 H217       -5.5783  -29.3265  -51.1916 H         1 UNK         0.0600 
    218 H218       -6.7771  -28.4012  -50.3067 H         1 UNK         0.0600 
    219 H219       -5.0637  -28.1285  -50.0084 H         1 UNK         0.0600 
    220 H220       -3.3576  -26.8755  -51.1573 H         1 UNK         0.3000 
    221 H221       -2.0107  -28.4071  -53.1233 H         1 UNK         0.0600 
    222 H222       -0.8957  -26.2971  -51.2027 H         1 UNK         0.0600 
    223 H223       -1.1455  -28.0013  -50.8170 H         1 UNK         0.0600 
    224 H224        0.0353  -27.5352  -52.0314 H         1 UNK         0.0600 
    225 H225       -2.6727  -24.9320  -52.9205 H         1 UNK         0.3000 
    226 H226       -1.4102  -24.4602  -55.5964 H         1 UNK         0.0600 
    227 H227       -2.0041  -22.5074  -53.3015 H         1 UNK         0.0600 
    228 H228       -0.4078  -23.0761  -53.7768 H         1 UNK         0.0600 
    229 H229       -1.3451  -22.0716  -54.8726 H         1 UNK         0.0600 
    230 H230       -2.7077  -23.4932  -57.1453 H         1 UNK         0.3000 
    231 H231       -5.5934  -23.8454  -56.9086 H         1 UNK         0.0600 
    232 H232       -5.5270  -23.2545  -59.3318 H         1 UNK         0.0600 
    233 H233       -4.3960  -24.5434  -58.9532 H         1 UNK         0.0600 
    234 H234       -3.8066  -22.9025  -59.2141 H         1 UNK         0.0600 
    235 H235       -5.6266  -22.2508  -55.1069 H         1 UNK         0.3000 
    236 H236       -6.4818  -20.4560  -54.1994 H         1 UNK         0.0600 
    237 H237       -7.0443  -19.3411  -56.9935 H         1 UNK         0.0600 
    238 H238       -7.7401  -18.7733  -55.4852 H         1 UNK         0.0600 
    239 H239       -8.1203  -20.3872  -56.0657 H         1 UNK         0.0600 
    240 H240       -4.1025  -19.7379  -56.6639 H         1 UNK         0.3000 
    241 H241       -2.4930  -18.3078  -56.9261 H         1 UNK         0.0600 
    242 H242       -2.3754  -14.8494  -55.5070 H         1 UNK         0.3800 
    243 H243       -1.2306  -16.1483  -55.3440 H         1 UNK         0.3800 
    244 H244       -1.2237  -19.5932  -55.5117 H         1 UNK         0.0800 
    245 H245       -0.8308  -18.0077  -54.9732 H         1 UNK         0.0800 
    246 H246       -2.4304  -16.9130  -52.9582 H         1 UNK         0.0800 
    247 H247       -2.6217  -17.8318  -51.4975 H         1 UNK         0.0800 
@<TRIPOS>BOND
     1    1    2 1    
     2    1  127 1    
     3    1  128 1    
     4    1  129 1    
     5    2    3 2    
     6    2    4 am   BACKBONE|DICT|INTERRES
     7    4    5 1    
     8    4  130 1    
     9    5    6 1    
    10    5   65 1    
    11    5  131 1    
    12    6    7 1    
    13    6  132 1    
    14    6  133 1    
    15    7    8 1    
    16    8    9 1    
    17    8  134 1    
    18    8  135 1    
    19    9   10 ar   
    20    9   14 ar   
    21   10   11 ar   
    22   10  136 1    
    23   11   12 ar   
    24   11  126 1    
    25   12   13 ar   
    26   12  137 1    
    27   13   14 ar   
    28   13   15 1    
    29   14  138 1    
    30   15   16 1    
    31   15  139 1    
    32   15  140 1    
    33   16   17 1    
    34   17   18 1    
    35   17  141 1    
    36   17  142 1    
    37   18   19 1    
    38   18   67 1    
    39   18  143 1    
    40   19   20 am   BACKBONE|DICT|INTERRES
    41   19  144 1    
    42   20   21 2    
    43   20   22 1    
    44   22   23 1    
    45   22   24 1    
    46   22  145 1    
    47   23  146 1    
    48   23  147 1    
    49   23  148 1    
    50   24   25 am   BACKBONE|DICT|INTERRES
    51   24  149 1    
    52   25   26 2    
    53   25   27 1    
    54   27   28 1    
    55   27   29 1    
    56   27  150 1    
    57   28  151 1    
    58   28  152 1    
    59   28  153 1    
    60   29   30 am   BACKBONE|DICT|INTERRES
    61   29  154 1    
    62   30   31 2    
    63   30   32 1    
    64   32   33 1    
    65   32   34 1    
    66   32  155 1    
    67   33  156 1    
    68   33  157 1    
    69   33  158 1    
    70   34   35 am   BACKBONE|DICT|INTERRES
    71   34  159 1    
    72   35   36 2    
    73   35   37 1    
    74   37   38 1    
    75   37   39 1    
    76   37  160 1    
    77   38  161 1    
    78   38  162 1    
    79   38  163 1    
    80   39   40 am   BACKBONE|DICT|INTERRES
    81   39  164 1    
    82   40   41 2    
    83   40   42 1    
    84   42   43 1    
    85   42   44 1    
    86   42  165 1    
    87   43  166 1    
    88   43  167 1    
    89   43  168 1    
    90   44   45 am   BACKBONE|DICT|INTERRES
    91   44  169 1    
    92   45   46 2    
    93   45   47 1    
    94   47   48 1    
    95   47   49 1    
    96   47  170 1    
    97   48  171 1    
    98   48  172 1    
    99   48  173 1    
   100   49   50 am   BACKBONE|DICT|INTERRES
   101   49  174 1    
   102   50   51 2    
   103   50   52 1    
   104   52   53 1    
   105   52   54 1    
   106   52  175 1    
   107   53  176 1    
   108   53  177 1    
   109   53  178 1    
   110   54   55 am   BACKBONE|DICT|INTERRES
   111   54  179 1    
   112   55   56 2    
   113   55   57 1    
   114   57   58 1    
   115   57   59 1    
   116   57  180 1    
   117   58  181 1    
   118   58  182 1    
   119   58  183 1    
   120   59   60 am   BACKBONE|DICT|INTERRES
   121   59  184 1    
   122   60   61 2    
   123   60   62 1    
   124   62   63 1    
   125   62   64 1    
   126   62  185 1    
   127   63  186 1    
   128   63  187 1    
   129   63  188 1    
   130   64   65 am   BACKBONE|DICT|INTERRES
   131   64  189 1    
   132   65   66 2    
   133   67   68 2    
   134   67   69 am   BACKBONE|DICT|INTERRES
   135   69   70 1    
   136   69  190 1    
   137   70   71 1    
   138   70   72 1    
   139   70  191 1    
   140   71  192 1    
   141   71  193 1    
   142   71  194 1    
   143   72   73 2    
   144   72   74 am   BACKBONE|DICT|INTERRES
   145   74   75 1    
   146   74  195 1    
   147   75   76 1    
   148   75   77 1    
   149   75  196 1    
   150   76  197 1    
   151   76  198 1    
   152   76  199 1    
   153   77   78 2    
   154   77   79 am   BACKBONE|DICT|INTERRES
   155   79   80 1    
   156   79  200 1    
   157   80   81 1    
   158   80   82 1    
   159   80  201 1    
   160   81  202 1    
   161   81  203 1    
   162   81  204 1    
   163   82   83 2    
   164   82   84 am   BACKBONE|DICT|INTERRES
   165   84   85 1    
   166   84  205 1    
   167   85   86 1    
   168   85   87 1    
   169   85  206 1    
   170   86  207 1    
   171   86  208 1    
   172   86  209 1    
   173   87   88 2    
   174   87   89 am   BACKBONE|DICT|INTERRES
   175   89   90 1    
   176   89  210 1    
   177   90   91 1    
   178   90   92 1    
   179   90  211 1    
   180   91  212 1    
   181   91  213 1    
   182   91  214 1    
   183   92   93 2    
   184   92   94 am   BACKBONE|DICT|INTERRES
   185   94   95 1    
   186   94  215 1    
   187   95   96 1    
   188   95   97 1    
   189   95  216 1    
   190   96  217 1    
   191   96  218 1    
   192   96  219 1    
   193   97   98 2    
   194   97   99 am   BACKBONE|DICT|INTERRES
   195   99  100 1    
   196   99  220 1    
   197  100  101 1    
   198  100  102 1    
   199  100  221 1    
   200  101  222 1    
   201  101  223 1    
   202  101  224 1    
   203  102  103 2    
   204  102  104 am   BACKBONE|DICT|INTERRES
   205  104  105 1    
   206  104  225 1    
   207  105  106 1    
   208  105  107 1    
   209  105  226 1    
   210  106  227 1    
   211  106  228 1    
   212  106  229 1    
   213  107  108 2    
   214  107  109 am   BACKBONE|DICT|INTERRES
   215  109  110 1    
   216  109  230 1    
   217  110  111 1    
   218  110  112 1    
   219  110  231 1    
   220  111  232 1    
   221  111  233 1    
   222  111  234 1    
   223  112  113 2    
   224  112  114 am   BACKBONE|DICT|INTERRES
   225  114  115 1    
   226  114  235 1    
   227  115  116 1    
   228  115  117 1    
   229  115  236 1    
   230  116  237 1    
   231  116  238 1    
   232  116  239 1    
   233  117  118 2    
   234  117  119 am   BACKBONE|DICT|INTERRES
   235  119  120 1    
   236  119  240 1    
   237  120  121 1    
   238  120  124 1    
   239  120  241 1    
   240  121  122 am   BACKBONE|DICT|INTERRES
   241  121  123 2    
   242  122  242 1    
   243  122  243 1    
   244  124  125 1    
   245  124  244 1    
   246  124  245 1    
   247  125  126 1    
   248  126  246 1    
   249  126  247 1    
@<TRIPOS>SUBSTRUCTURE
     1 UNK         1 GROUP             0       ****    0 ROOT    
