@<TRIPOS>MOLECULE
3R540
247   249    1
SMALL
USER_CHARGES


@<TRIPOS>ATOM
      1 CA          0.1552  -11.7351  -44.3696 C.3       0 UNK        -0.1800 
      2 C           0.2934  -11.9444  -45.8711 C.2       0 UNK         0.5000 
      3 O           1.1143  -11.2868  -46.5098 O.2       0 UNK        -0.5000 
      4 N          -0.4927  -12.8722  -46.4355 N.am      1 UNK        -0.5000 
      5 CA         -0.4824  -13.2533  -47.8567 C.3       1 UNK         0.1400 
      6 C6         -1.6531  -14.2155  -48.1765 C.3       23 UNK        -0.0398 
      7 S7         -2.1308  -14.2143  -49.9381 S.3       23 UNK        -0.2404 
      8 C8         -3.0104  -15.8029  -50.0728 C.3       23 UNK        -0.0205 
      9 C9         -2.1044  -16.9260  -50.5582 C.ar      23 UNK        -0.0193 
     10 C10        -2.1247  -17.3095  -51.9021 C.ar      23 UNK        -0.1150 
     11 C11        -1.3382  -18.3744  -52.3476 C.ar      23 UNK        -0.0193 
     12 C12        -0.5105  -19.0434  -51.4432 C.ar      23 UNK        -0.1150 
     13 C13        -0.4701  -18.6710  -50.0969 C.ar      23 UNK        -0.0193 
     14 C14        -1.2741  -17.6076  -49.6637 C.ar      23 UNK        -0.1150 
     15 C15         0.4688  -19.4331  -49.1604 C.3       23 UNK        -0.0205 
     16 S16         0.0811  -19.3101  -47.3830 S.3       23 UNK        -0.2404 
     17 C17        -1.5031  -20.2042  -47.2715 C.3       23 UNK        -0.0398 
     18 CA         -1.3554  -21.5925  -46.6077 C.3       11 UNK         0.1400 
     19 N          -0.7816  -21.5287  -45.2535 N.am      11 UNK        -0.5000 
     20 C          -0.4669  -22.5818  -44.4817 C.2       10 UNK         0.5000 
     21 O          -0.6178  -23.7512  -44.8398 O.2       10 UNK        -0.5000 
     22 CA          0.0419  -22.3010  -43.0548 C.3       10 UNK         0.1400 
     23 CB          1.5704  -22.4327  -42.9826 C.3       10 UNK        -0.1800 
     24 N          -0.3728  -20.9969  -42.5313 N.am      10 UNK        -0.5000 
     25 C          -1.6339  -20.6756  -42.2063 C.2       9 UNK         0.5000 
     26 O          -2.5821  -21.4533  -42.3157 O.2       9 UNK        -0.5000 
     27 CA         -1.8868  -19.2397  -41.7073 C.3       9 UNK         0.1400 
     28 CB         -1.6442  -19.1395  -40.1940 C.3       9 UNK        -0.1800 
     29 N          -1.0650  -18.2468  -42.3993 N.am      9 UNK        -0.5000 
     30 C          -1.1876  -17.9335  -43.6964 C.2       8 UNK         0.5000 
     31 O          -2.0674  -18.3892  -44.4256 O.2       8 UNK        -0.5000 
     32 CA         -0.1270  -16.9856  -44.2886 C.3       8 UNK         0.1400 
     33 CB         -0.5303  -15.5194  -44.0822 C.3       8 UNK        -0.1800 
     34 N           1.2127  -17.2047  -43.7396 N.am      8 UNK        -0.5000 
     35 C           1.9049  -18.3494  -43.8450 C.2       7 UNK         0.5000 
     36 O           1.4914  -19.3492  -44.4261 O.2       7 UNK        -0.5000 
     37 CA          3.2631  -18.4078  -43.1295 C.3       7 UNK         0.1400 
     38 CB          4.3546  -17.7018  -43.9468 C.3       7 UNK        -0.1800 
     39 N           3.1825  -17.8266  -41.7912 N.am      7 UNK        -0.5000 
     40 C           2.5354  -18.3977  -40.7650 C.2       6 UNK         0.5000 
     41 O           1.9990  -19.5043  -40.8243 O.2       6 UNK        -0.5000 
     42 CA          2.4379  -17.5724  -39.4691 C.3       6 UNK         0.1400 
     43 CB          3.6924  -17.7697  -38.6051 C.3       6 UNK        -0.1800 
     44 N           2.2471  -16.1438  -39.7282 N.am      6 UNK        -0.5000 
     45 C           1.1448  -15.6151  -40.2788 C.2       5 UNK         0.5000 
     46 O           0.1553  -16.2750  -40.5932 O.2       5 UNK        -0.5000 
     47 CA          1.1751  -14.1031  -40.5703 C.3       5 UNK         0.1400 
     48 CB          0.7275  -13.3042  -39.3376 C.3       5 UNK        -0.1800 
     49 N           2.4931  -13.6321  -41.0055 N.am      5 UNK        -0.5000 
     50 C           3.0825  -13.9970  -42.1507 C.2       4 UNK         0.5000 
     51 O           2.5796  -14.7826  -42.9578 O.2       4 UNK        -0.5000 
     52 CA          4.4868  -13.4344  -42.4112 C.3       4 UNK         0.1400 
     53 CB          5.5598  -14.4494  -41.9895 C.3       4 UNK        -0.1800 
     54 N           4.6459  -13.1322  -43.8297 N.am      4 UNK        -0.5000 
     55 C           4.3117  -11.9710  -44.4002 C.2       3 UNK         0.5000 
     56 O           3.9068  -10.9937  -43.7692 O.2       3 UNK        -0.5000 
     57 CA          4.4361  -11.8819  -45.9317 C.3       3 UNK         0.1400 
     58 CB          5.9081  -11.8116  -46.3829 C.3       3 UNK        -0.1800 
     59 N           3.6894  -12.9234  -46.6471 N.am      3 UNK        -0.5000 
     60 C           3.9211  -14.2427  -46.7216 C.2       2 UNK         0.5000 
     61 O           4.8630  -14.8024  -46.1581 O.2       2 UNK        -0.5000 
     62 CA          2.9125  -15.0664  -47.5500 C.3       2 UNK         0.1400 
     63 CB          2.9049  -16.5556  -47.1704 C.3       2 UNK        -0.1800 
     64 N           1.5588  -14.5354  -47.3884 N.am      2 UNK        -0.5000 
     65 C           0.8779  -13.8383  -48.3077 C.2       1 UNK         0.5000 
     66 O           1.3015  -13.6039  -49.4398 O.2       1 UNK        -0.5000 
     67 C          -2.7001  -22.3474  -46.6701 C.2       11 UNK         0.5000 
     68 O          -3.0372  -22.8778  -47.7301 O.2       11 UNK        -0.5000 
     69 N          -3.4144  -22.4402  -45.5374 N.am      12 UNK        -0.5000 
     70 CA         -4.6089  -23.2678  -45.3516 C.3       12 UNK         0.1400 
     71 CB         -5.1426  -23.0697  -43.9262 C.3       12 UNK        -0.1800 
     72 C          -4.3696  -24.7651  -45.6335 C.2       12 UNK         0.5000 
     73 O          -5.2852  -25.4425  -46.0998 O.2       12 UNK        -0.5000 
     74 N          -3.1420  -25.2374  -45.3805 N.am      13 UNK        -0.5000 
     75 CA         -2.6835  -26.5836  -45.7061 C.3       13 UNK         0.1400 
     76 CB         -1.9602  -27.1797  -44.4878 C.3       13 UNK        -0.1800 
     77 C          -1.7541  -26.5569  -46.9296 C.2       13 UNK         0.5000 
     78 O          -1.9578  -27.3362  -47.8599 O.2       13 UNK        -0.5000 
     79 N          -0.7561  -25.6605  -46.9144 N.am      14 UNK        -0.5000 
     80 CA          0.3455  -25.6185  -47.8808 C.3       14 UNK         0.1400 
     81 CB          1.4445  -24.6819  -47.3547 C.3       14 UNK        -0.1800 
     82 C          -0.0650  -25.2246  -49.3119 C.2       14 UNK         0.5000 
     83 O           0.5825  -25.6675  -50.2614 O.2       14 UNK        -0.5000 
     84 N          -1.1249  -24.4183  -49.4450 N.am      15 UNK        -0.5000 
     85 CA         -1.6992  -23.9927  -50.7242 C.3       15 UNK         0.1400 
     86 CB         -1.4710  -22.4801  -50.8935 C.3       15 UNK        -0.1800 
     87 C          -3.1933  -24.3536  -50.8166 C.2       15 UNK         0.5000 
     88 O          -3.8805  -23.8501  -51.7068 O.2       15 UNK        -0.5000 
     89 N          -3.6795  -25.1839  -49.8790 N.am      16 UNK        -0.5000 
     90 CA         -5.0721  -25.6123  -49.7055 C.3       16 UNK         0.1400 
     91 CB         -5.4537  -26.6288  -50.8001 C.3       16 UNK        -0.1800 
     92 C          -6.0611  -24.4294  -49.5907 C.2       16 UNK         0.5000 
     93 O          -7.1422  -24.4660  -50.1798 O.2       16 UNK        -0.5000 
     94 N          -5.6438  -23.3909  -48.8494 N.am      17 UNK        -0.5000 
     95 CA         -6.3215  -22.1049  -48.6541 C.3       17 UNK         0.1400 
     96 CB         -7.6944  -22.2828  -47.9708 C.3       17 UNK        -0.1800 
     97 C          -6.3767  -21.2738  -49.9511 C.2       17 UNK         0.5000 
     98 O          -7.4024  -20.6619  -50.2535 O.2       17 UNK        -0.5000 
     99 N          -5.2493  -21.2701  -50.6792 N.am      18 UNK        -0.5000 
    100 CA        -5.0117  -20.5917  -51.9569 C.3       18 UNK         0.1400 
    101 CB        -5.0805  -19.0605  -51.7843 C.3       18 UNK        -0.1800 
    102 C         -5.9377  -21.1177  -53.0709 C.2       18 UNK         0.5000 
    103 O         -6.5882  -20.3309  -53.7629 O.2       18 UNK        -0.5000 
    104 N         -5.9920  -22.4496  -53.2095 N.am      19 UNK        -0.5000 
    105 CA        -6.8248  -23.1671  -54.1752 C.3       19 UNK         0.1400 
    106 CB        -6.6667  -24.6793  -53.9599 C.3       19 UNK        -0.1800 
    107 C         -6.4985  -22.7692  -55.6272 C.2       19 UNK         0.5000 
    108 O         -5.3964  -23.0482  -56.1021 O.2       19 UNK        -0.5000 
    109 N         -7.4581  -22.0914  -56.2740 N.am      20 UNK        -0.5000 
    110 CA        -7.3874  -21.4913  -57.6136 C.3       20 UNK         0.1400 
    111 CB        -7.1696  -22.5697  -58.6964 C.3       20 UNK        -0.1800 
    112 C         -6.3873  -20.3167  -57.7324 C.2       20 UNK         0.5000 
    113 O         -6.0359  -19.9372  -58.8514 O.2       20 UNK        -0.5000 
    114 N         -5.9783  -19.7429  -56.5887 N.am      21 UNK        -0.5000 
    115 CA        -5.0130  -18.6502  -56.4234 C.3       21 UNK         0.1400 
    116 CB        -5.5756  -17.3418  -57.0212 C.3       21 UNK        -0.1800 
    117 C         -3.5964  -18.9901  -56.9446 C.2       21 UNK         0.5000 
    118 O         -3.2911  -20.1518  -57.2239 O.2       21 UNK        -0.5000 
    119 N         -2.7341  -17.9716  -57.0242 N.am      22 UNK        -0.5000 
    120 CA        -1.3412  -18.0797  -57.4881 C.3       22 UNK         0.1400 
    121 C         -0.7903  -16.7688  -58.1236 C.2       22 UNK         0.5000 
    122 N         -1.6268  -15.7992  -58.4779 N.am      22 UNK        -0.7600 
    123 O          0.4128  -16.6301  -58.3272 O.2       22 UNK        -0.5000 
    124 C124       -0.3994  -18.7139  -56.4258 C.3       23 UNK        -0.0398 
    125 S125       -0.3137  -17.7980  -54.8462 S.3       23 UNK        -0.2404 
    126 C126       -1.3958  -18.8175  -53.7993 C.3       23 UNK        -0.0205 
    127 H127        1.0720  -12.0396  -43.8643 H         1 UNK         0.0600 
    128 H128       -0.6702  -12.3122  -43.9524 H         1 UNK         0.0600 
    129 H129       -0.0216  -10.6821  -44.1513 H         1 UNK         0.0600 
    130 H130       -1.1685  -13.3515  -45.8590 H         1 UNK         0.3000 
    131 H131       -0.6366  -12.3303  -48.4202 H         1 UNK         0.0600 
    132 H132       -1.4257  -15.2269  -47.8401 H         1 UNK         0.0800 
    133 H133       -2.5428  -13.9134  -47.6218 H         1 UNK         0.0800 
    134 H134       -3.8444  -15.6765  -50.7649 H         1 UNK         0.0800 
    135 H135       -3.4588  -16.0703  -49.1147 H         1 UNK         0.0800 
    136 H136       -2.7657  -16.7903  -52.6006 H         1 UNK         0.1150 
    137 H137        0.1057  -19.8609  -51.7905 H         1 UNK         0.1150 
    138 H138       -1.2622  -17.3074  -48.6280 H         1 UNK         0.1150 
    139 H139        0.4901  -20.4893  -49.4312 H         1 UNK         0.0800 
    140 H140        1.4804  -19.0564  -49.3148 H         1 UNK         0.0800 
    141 H141       -1.9249  -20.2993  -48.2734 H         1 UNK         0.0800 
    142 H142       -2.2058  -19.5846  -46.7139 H         1 UNK         0.0800 
    143 H143       -0.6579  -22.1688  -47.2163 H         1 UNK         0.0600 
    144 H144       -0.5775  -20.6020  -44.9008 H         1 UNK         0.3000 
    145 H145       -0.3868  -23.0674  -42.4059 H         1 UNK         0.0600 
    146 H146        1.9359  -22.2517  -41.9716 H         1 UNK         0.0600 
    147 H147        1.8859  -23.4369  -43.2682 H         1 UNK         0.0600 
    148 H148        2.0726  -21.7343  -43.6508 H         1 UNK         0.0600 
    149 H149        0.3529  -20.2998  -42.4247 H         1 UNK         0.3000 
    150 H150       -2.9353  -19.0022  -41.8989 H         1 UNK         0.0600 
    151 H151       -2.2619  -19.8557  -39.6508 H         1 UNK         0.0600 
    152 H152       -1.8928  -18.1461  -39.8203 H         1 UNK         0.0600 
    153 H153       -0.6038  -19.3416  -39.9380 H         1 UNK         0.0600 
    154 H154       -0.3683  -17.7606  -41.8442 H         1 UNK         0.3000 
    155 H155       -0.0739  -17.1717  -45.3623 H         1 UNK         0.0600 
    156 H156       -0.6667  -15.2854  -43.0267 H         1 UNK         0.0600 
    157 H157       -1.4702  -15.3004  -44.5898 H         1 UNK         0.0600 
    158 H158        0.2277  -14.8442  -44.4763 H         1 UNK         0.0600 
    159 H159        1.6504  -16.4110  -43.2796 H         1 UNK         0.3000 
    160 H160        3.5451  -19.4584  -43.0304 H         1 UNK         0.0600 
    161 H161        4.1271  -16.6479  -44.1065 H         1 UNK         0.0600 
    162 H162        4.4613  -18.1630  -44.9293 H         1 UNK         0.0600 
    163 H163        5.3235  -17.7669  -43.4522 H         1 UNK         0.0600 
    164 H164        3.5572  -16.8980  -41.6731 H         1 UNK         0.3000 
    165 H165        1.5742  -17.9353  -38.9076 H         1 UNK         0.0600 
    166 H166        3.6007  -17.2481  -37.6522 H         1 UNK         0.0600 
    167 H167        3.8498  -18.8259  -38.3823 H         1 UNK         0.0600 
    168 H168        4.5896  -17.4022  -39.1048 H         1 UNK         0.0600 
    169 H169        3.0124  -15.5290  -39.4943 H         1 UNK         0.3000 
    170 H170        0.4659  -13.9065  -41.3767 H         1 UNK         0.0600 
    171 H171       -0.2614  -13.6226  -39.0049 H         1 UNK         0.0600 
    172 H172        1.4137  -13.4349  -38.5000 H         1 UNK         0.0600 
    173 H173        0.6665  -12.2386  -39.5595 H         1 UNK         0.0600 
    174 H174        2.9678  -12.9876  -40.3895 H         1 UNK         0.3000 
    175 H175        4.6242  -12.5250  -41.8222 H         1 UNK         0.0600 
    176 H176        5.4936  -15.3727  -42.5641 H         1 UNK         0.0600 
    177 H177        6.5606  -14.0417  -42.1325 H         1 UNK         0.0600 
    178 H178        5.4635  -14.7091  -40.9345 H         1 UNK         0.0600 
    179 H179        4.8880  -13.9043  -44.4442 H         1 UNK         0.3000 
    180 H180        3.9675  -10.9412  -46.2256 H         1 UNK         0.0600 
    181 H181        6.4680  -12.7055  -46.1077 H         1 UNK         0.0600 
    182 H182        6.4124  -10.9609  -45.9230 H         1 UNK         0.0600 
    183 H183        5.9830  -11.6883  -47.4632 H         1 UNK         0.0600 
    184 H184        2.8456  -12.5822  -47.0911 H         1 UNK         0.3000 
    185 H185        3.2313  -14.9926  -48.5914 H         1 UNK         0.0600 
    186 H186        3.8895  -17.0058  -47.3007 H         1 UNK         0.0600 
    187 H187        2.6089  -16.6965  -46.1330 H         1 UNK         0.0600 
    188 H188        2.2084  -17.1142  -47.7947 H         1 UNK         0.0600 
    189 H189        1.1555  -14.6306  -46.4684 H         1 UNK         0.3000 
    190 H190       -3.0592  -21.9798  -44.7095 H         1 UNK         0.3000 
    191 H191       -5.3702  -22.9167  -46.0466 H         1 UNK         0.0600 
    192 H192       -4.4213  -23.4007  -43.1779 H         1 UNK         0.0600 
    193 H193       -6.0615  -23.6366  -43.7706 H         1 UNK         0.0600 
    194 H194       -5.3702  -22.0216  -43.7310 H         1 UNK         0.0600 
    195 H195       -2.4381  -24.5989  -45.0265 H         1 UNK         0.3000 
    196 H196       -3.5294  -27.2324  -45.9432 H         1 UNK         0.0600 
    197 H197       -1.5893  -28.1821  -44.7052 H         1 UNK         0.0600 
    198 H198       -2.6337  -27.2604  -43.6345 H         1 UNK         0.0600 
    199 H199       -1.1077  -26.5716  -44.1823 H         1 UNK         0.0600 
    200 H200       -0.6690  -25.0368  -46.1148 H         1 UNK         0.3000 
    201 H201        0.7664  -26.6247  -47.9359 H         1 UNK         0.0600 
    202 H202        1.7959  -24.9987  -46.3725 H         1 UNK         0.0600 
    203 H203        1.0958  -23.6537  -47.2677 H         1 UNK         0.0600 
    204 H204        2.3073  -24.6786  -48.0221 H         1 UNK         0.0600 
    205 H205       -1.6094  -24.0912  -48.6173 H         1 UNK         0.3000 
    206 H206       -1.2129  -24.5049  -51.5564 H         1 UNK         0.0600 
    207 H207       -0.4092  -22.2409  -50.8453 H         1 UNK         0.0600 
    208 H208       -1.8333  -22.1305  -51.8608 H         1 UNK         0.0600 
    209 H209       -1.9814  -21.9042  -50.1219 H         1 UNK         0.0600 
    210 H210       -3.0221  -25.5691  -49.2156 H         1 UNK         0.3000 
    211 H211       -5.1173  -26.1334  -48.7485 H         1 UNK         0.0600 
    212 H212       -5.3833  -26.1945  -51.7963 H         1 UNK         0.0600 
    213 H213       -6.4734  -26.9919  -50.6671 H         1 UNK         0.0600 
    214 H214       -4.7960  -27.4974  -50.7711 H         1 UNK         0.0600 
    215 H215       -4.7110  -23.4451  -48.4490 H         1 UNK         0.3000 
    216 H216       -5.6924  -21.5344  -47.9698 H         1 UNK         0.0600 
    217 H217       -8.1079  -21.3180  -47.6751 H         1 UNK         0.0600 
    218 H218       -7.6144  -22.8913  -47.0702 H         1 UNK         0.0600 
    219 H219       -8.4208  -22.7569  -48.6311 H         1 UNK         0.0600 
    220 H220       -4.4970  -21.8654  -50.3648 H         1 UNK         0.3000 
    221 H221       -3.9933  -20.8429  -52.2564 H         1 UNK         0.0600 
    222 H222       -6.0925  -18.7182  -51.5669 H         1 UNK         0.0600 
    223 H223       -4.4362  -18.7295  -50.9704 H         1 UNK         0.0600 
    224 H224       -4.7534  -18.5518  -52.6913 H         1 UNK         0.0600 
    225 H225       -5.3822  -23.0178  -52.6275 H         1 UNK         0.3000 
    226 H226       -7.8650  -22.9100  -53.9652 H         1 UNK         0.0600 
    227 H227       -7.0330  -24.9710  -52.9759 H         1 UNK         0.0600 
    228 H228       -7.2382  -25.2431  -54.6981 H         1 UNK         0.0600 
    229 H229       -5.6244  -24.9907  -54.0399 H         1 UNK         0.0600 
    230 H230       -8.3110  -21.8930  -55.7688 H         1 UNK         0.3000 
    231 H231       -8.3709  -21.0536  -57.7902 H         1 UNK         0.0600 
    232 H232       -7.8857  -23.3849  -58.5924 H         1 UNK         0.0600 
    233 H233       -6.1666  -22.9944  -58.6507 H         1 UNK         0.0600 
    234 H234       -7.2993  -22.1526  -59.6956 H         1 UNK         0.0600 
    235 H235       -6.3240  -20.1319  -55.7166 H         1 UNK         0.3000 
    236 H236       -4.9138  -18.5074  -55.3466 H         1 UNK         0.0600 
    237 H237       -4.9915  -16.4755  -56.7101 H         1 UNK         0.0600 
    238 H238       -5.5793  -17.3627  -58.1116 H         1 UNK         0.0600 
    239 H239       -6.5989  -17.1670  -56.6886 H         1 UNK         0.0600 
    240 H240       -3.0219  -17.0499  -56.7303 H         1 UNK         0.3000 
    241 H241       -1.3501  -18.7679  -58.3354 H         1 UNK         0.0600 
    242 H242       -1.2507  -14.9611  -58.8940 H         1 UNK         0.3800 
    243 H243       -2.6251  -15.9083  -58.4075 H         1 UNK         0.3800 
    244 H244       -0.7117  -19.7401  -56.2300 H         1 UNK         0.0800 
    245 H245        0.6138  -18.8021  -56.8209 H         1 UNK         0.0800 
    246 H246       -1.1037  -19.8658  -53.8795 H         1 UNK         0.0800 
    247 H247       -2.4218  -18.7546  -54.1624 H         1 UNK         0.0800 
@<TRIPOS>BOND
     1    1    2 1    
     2    1  127 1    
     3    1  128 1    
     4    1  129 1    
     5    2    3 2    
     6    2    4 am   BACKBONE|DICT|INTERRES
     7    4    5 1    
     8    4  130 1    
     9    5    6 1    
    10    5   65 1    
    11    5  131 1    
    12    6    7 1    
    13    6  132 1    
    14    6  133 1    
    15    7    8 1    
    16    8    9 1    
    17    8  134 1    
    18    8  135 1    
    19    9   10 ar   
    20    9   14 ar   
    21   10   11 ar   
    22   10  136 1    
    23   11   12 ar   
    24   11  126 1    
    25   12   13 ar   
    26   12  137 1    
    27   13   14 ar   
    28   13   15 1    
    29   14  138 1    
    30   15   16 1    
    31   15  139 1    
    32   15  140 1    
    33   16   17 1    
    34   17   18 1    
    35   17  141 1    
    36   17  142 1    
    37   18   19 1    
    38   18   67 1    
    39   18  143 1    
    40   19   20 am   BACKBONE|DICT|INTERRES
    41   19  144 1    
    42   20   21 2    
    43   20   22 1    
    44   22   23 1    
    45   22   24 1    
    46   22  145 1    
    47   23  146 1    
    48   23  147 1    
    49   23  148 1    
    50   24   25 am   BACKBONE|DICT|INTERRES
    51   24  149 1    
    52   25   26 2    
    53   25   27 1    
    54   27   28 1    
    55   27   29 1    
    56   27  150 1    
    57   28  151 1    
    58   28  152 1    
    59   28  153 1    
    60   29   30 am   BACKBONE|DICT|INTERRES
    61   29  154 1    
    62   30   31 2    
    63   30   32 1    
    64   32   33 1    
    65   32   34 1    
    66   32  155 1    
    67   33  156 1    
    68   33  157 1    
    69   33  158 1    
    70   34   35 am   BACKBONE|DICT|INTERRES
    71   34  159 1    
    72   35   36 2    
    73   35   37 1    
    74   37   38 1    
    75   37   39 1    
    76   37  160 1    
    77   38  161 1    
    78   38  162 1    
    79   38  163 1    
    80   39   40 am   BACKBONE|DICT|INTERRES
    81   39  164 1    
    82   40   41 2    
    83   40   42 1    
    84   42   43 1    
    85   42   44 1    
    86   42  165 1    
    87   43  166 1    
    88   43  167 1    
    89   43  168 1    
    90   44   45 am   BACKBONE|DICT|INTERRES
    91   44  169 1    
    92   45   46 2    
    93   45   47 1    
    94   47   48 1    
    95   47   49 1    
    96   47  170 1    
    97   48  171 1    
    98   48  172 1    
    99   48  173 1    
   100   49   50 am   BACKBONE|DICT|INTERRES
   101   49  174 1    
   102   50   51 2    
   103   50   52 1    
   104   52   53 1    
   105   52   54 1    
   106   52  175 1    
   107   53  176 1    
   108   53  177 1    
   109   53  178 1    
   110   54   55 am   BACKBONE|DICT|INTERRES
   111   54  179 1    
   112   55   56 2    
   113   55   57 1    
   114   57   58 1    
   115   57   59 1    
   116   57  180 1    
   117   58  181 1    
   118   58  182 1    
   119   58  183 1    
   120   59   60 am   BACKBONE|DICT|INTERRES
   121   59  184 1    
   122   60   61 2    
   123   60   62 1    
   124   62   63 1    
   125   62   64 1    
   126   62  185 1    
   127   63  186 1    
   128   63  187 1    
   129   63  188 1    
   130   64   65 am   BACKBONE|DICT|INTERRES
   131   64  189 1    
   132   65   66 2    
   133   67   68 2    
   134   67   69 am   BACKBONE|DICT|INTERRES
   135   69   70 1    
   136   69  190 1    
   137   70   71 1    
   138   70   72 1    
   139   70  191 1    
   140   71  192 1    
   141   71  193 1    
   142   71  194 1    
   143   72   73 2    
   144   72   74 am   BACKBONE|DICT|INTERRES
   145   74   75 1    
   146   74  195 1    
   147   75   76 1    
   148   75   77 1    
   149   75  196 1    
   150   76  197 1    
   151   76  198 1    
   152   76  199 1    
   153   77   78 2    
   154   77   79 am   BACKBONE|DICT|INTERRES
   155   79   80 1    
   156   79  200 1    
   157   80   81 1    
   158   80   82 1    
   159   80  201 1    
   160   81  202 1    
   161   81  203 1    
   162   81  204 1    
   163   82   83 2    
   164   82   84 am   BACKBONE|DICT|INTERRES
   165   84   85 1    
   166   84  205 1    
   167   85   86 1    
   168   85   87 1    
   169   85  206 1    
   170   86  207 1    
   171   86  208 1    
   172   86  209 1    
   173   87   88 2    
   174   87   89 am   BACKBONE|DICT|INTERRES
   175   89   90 1    
   176   89  210 1    
   177   90   91 1    
   178   90   92 1    
   179   90  211 1    
   180   91  212 1    
   181   91  213 1    
   182   91  214 1    
   183   92   93 2    
   184   92   94 am   BACKBONE|DICT|INTERRES
   185   94   95 1    
   186   94  215 1    
   187   95   96 1    
   188   95   97 1    
   189   95  216 1    
   190   96  217 1    
   191   96  218 1    
   192   96  219 1    
   193   97   98 2    
   194   97   99 am   BACKBONE|DICT|INTERRES
   195   99  100 1    
   196   99  220 1    
   197  100  101 1    
   198  100  102 1    
   199  100  221 1    
   200  101  222 1    
   201  101  223 1    
   202  101  224 1    
   203  102  103 2    
   204  102  104 am   BACKBONE|DICT|INTERRES
   205  104  105 1    
   206  104  225 1    
   207  105  106 1    
   208  105  107 1    
   209  105  226 1    
   210  106  227 1    
   211  106  228 1    
   212  106  229 1    
   213  107  108 2    
   214  107  109 am   BACKBONE|DICT|INTERRES
   215  109  110 1    
   216  109  230 1    
   217  110  111 1    
   218  110  112 1    
   219  110  231 1    
   220  111  232 1    
   221  111  233 1    
   222  111  234 1    
   223  112  113 2    
   224  112  114 am   BACKBONE|DICT|INTERRES
   225  114  115 1    
   226  114  235 1    
   227  115  116 1    
   228  115  117 1    
   229  115  236 1    
   230  116  237 1    
   231  116  238 1    
   232  116  239 1    
   233  117  118 2    
   234  117  119 am   BACKBONE|DICT|INTERRES
   235  119  120 1    
   236  119  240 1    
   237  120  121 1    
   238  120  124 1    
   239  120  241 1    
   240  121  122 am   BACKBONE|DICT|INTERRES
   241  121  123 2    
   242  122  242 1    
   243  122  243 1    
   244  124  125 1    
   245  124  244 1    
   246  124  245 1    
   247  125  126 1    
   248  126  246 1    
   249  126  247 1    
@<TRIPOS>SUBSTRUCTURE
     1 UNK         1 GROUP             0       ****    0 ROOT    
