@<TRIPOS>MOLECULE
3R540
247   249    1
SMALL
USER_CHARGES


@<TRIPOS>ATOM
      1 CA         -0.1252  -15.8269  -51.6285 C.3       0 UNK        -0.1800 
      2 C           0.9845  -14.9860  -51.0177 C.2       0 UNK         0.5000 
      3 O           1.3071  -13.9216  -51.5451 O.2       0 UNK        -0.5000 
      4 N           1.5719  -15.4617  -49.9121 N.am      1 UNK        -0.5000 
      5 CA          2.6937  -14.8191  -49.2139 C.3       1 UNK         0.1400 
      6 C6          3.3875  -15.7866  -48.2267 C.3       23 UNK        -0.0398 
      7 S7          4.1600  -17.2092  -49.0691 S.3       23 UNK        -0.2404 
      8 C8          3.2905  -18.6226  -48.3211 C.3       23 UNK        -0.0205 
      9 C9          1.9857  -18.9483  -49.0311 C.ar      23 UNK        -0.0193 
     10 C10         2.0031  -19.6931  -50.2143 C.ar      23 UNK        -0.1150 
     11 C11         0.8139  -20.0663  -50.8486 C.ar      23 UNK        -0.0193 
     12 C12        -0.4042  -19.6856  -50.2735 C.ar      23 UNK        -0.1150 
     13 C13        -0.4365  -18.9297  -49.1000 C.ar      23 UNK        -0.0193 
     14 C14         0.7615  -18.5564  -48.4837 C.ar      23 UNK        -0.1150 
     15 C15        -1.7754  -18.5508  -48.4911 C.3       23 UNK        -0.0205 
     16 S16        -2.4945  -19.9479  -47.5731 S.3       23 UNK        -0.2404 
     17 C17        -1.3628  -20.0562  -46.1510 C.3       23 UNK        -0.0398 
     18 CA         -0.3154  -21.1986  -46.2619 C.3       11 UNK         0.1400 
     19 N           0.8676  -20.9306  -45.4422 N.am      11 UNK        -0.5000 
     20 C           1.9878  -21.6641  -45.3761 C.2       10 UNK         0.5000 
     21 O           2.2006  -22.6627  -46.0637 O.2       10 UNK        -0.5000 
     22 CA          3.0508  -21.2131  -44.3536 C.3       10 UNK         0.1400 
     23 CB          4.0258  -20.1990  -44.9694 C.3       10 UNK        -0.1800 
     24 N           2.4601  -20.6371  -43.1450 N.am      10 UNK        -0.5000 
     25 C           1.8648  -21.3515  -42.1802 C.2       9 UNK         0.5000 
     26 O           1.8179  -22.5819  -42.1686 O.2       9 UNK        -0.5000 
     27 CA          1.1871  -20.5569  -41.0473 C.3       9 UNK         0.1400 
     28 CB          2.2078  -20.1807  -39.9628 C.3       9 UNK        -0.1800 
     29 N           0.5155  -19.3459  -41.5211 N.am      9 UNK        -0.5000 
     30 C          -0.5332  -19.3325  -42.3559 C.2       8 UNK         0.5000 
     31 O          -1.0831  -20.3493  -42.7841 O.2       8 UNK        -0.5000 
     32 CA         -1.0140  -17.9489  -42.8357 C.3       8 UNK         0.1400 
     33 CB         -1.9514  -17.3116  -41.8009 C.3       8 UNK        -0.1800 
     34 N           0.0846  -17.0275  -43.1449 N.am      8 UNK        -0.5000 
     35 C           1.0216  -17.2516  -44.0770 C.2       7 UNK         0.5000 
     36 O           1.0660  -18.2607  -44.7716 O.2       7 UNK        -0.5000 
     37 CA          2.1197  -16.1986  -44.2539 C.3       7 UNK         0.1400 
     38 CB          1.6089  -15.0322  -45.1016 C.3       7 UNK        -0.1800 
     39 N           2.6414  -15.7207  -42.9774 N.am      7 UNK        -0.5000 
     40 C           3.3438  -16.4855  -42.1295 C.2       6 UNK         0.5000 
     41 O           3.6981  -17.6392  -42.3769 O.2       6 UNK        -0.5000 
     42 CA          3.6442  -15.8763  -40.7501 C.3       6 UNK         0.1400 
     43 CB          4.8588  -14.9379  -40.8122 C.3       6 UNK        -0.1800 
     44 N           2.4885  -15.1581  -40.2103 N.am      6 UNK        -0.5000 
     45 C           1.3431  -15.7499  -39.8408 C.2       5 UNK         0.5000 
     46 O           1.1585  -16.9665  -39.8822 O.2       5 UNK        -0.5000 
     47 CA          0.1985  -14.8313  -39.3764 C.3       5 UNK         0.1400 
     48 CB          0.2806  -14.5961  -37.8610 C.3       5 UNK        -0.1800 
     49 N           0.1641  -13.5389  -40.0628 N.am      5 UNK        -0.5000 
     50 C          -0.0458  -13.3606  -41.3748 C.2       4 UNK         0.5000 
     51 O          -0.2159  -14.2909  -42.1652 O.2       4 UNK        -0.5000 
     52 CA         -0.0855  -11.9032  -41.8905 C.3       4 UNK         0.1400 
     53 CB          0.3052  -10.8520  -40.8268 C.3       4 UNK        -0.1800 
     54 N           0.7084  -11.6802  -43.1030 N.am      4 UNK        -0.5000 
     55 C           1.9956  -11.9813  -43.3139 C.2       3 UNK         0.5000 
     56 O           2.6735  -12.6548  -42.5343 O.2       3 UNK        -0.5000 
     57 CA          2.6288  -11.4184  -44.6103 C.3       3 UNK         0.1400 
     58 CB          4.1315  -11.7396  -44.7095 C.3       3 UNK        -0.1800 
     59 N           1.9864  -11.8608  -45.8522 N.am      3 UNK        -0.5000 
     60 C           0.7656  -11.5547  -46.3037 C.2       2 UNK         0.5000 
     61 O          -0.0216  -10.8400  -45.6811 O.2       2 UNK        -0.5000 
     62 CA          0.3270  -12.1249  -47.6736 C.3       2 UNK         0.1400 
     63 CB          0.3601  -11.0212  -48.7479 C.3       2 UNK        -0.1800 
     64 N           1.0163  -13.3326  -48.1661 N.am      2 UNK        -0.5000 
     65 C           2.3041  -13.4970  -48.5106 C.2       1 UNK         0.5000 
     66 O           3.1785  -12.6575  -48.2975 O.2       1 UNK        -0.5000 
     67 C          -0.9329  -22.5643  -45.9138 C.2       11 UNK         0.5000 
     68 O          -1.0130  -23.4321  -46.7843 O.2       11 UNK        -0.5000 
     69 N          -1.3286  -22.7305  -44.6410 N.am      12 UNK        -0.5000 
     70 CA         -1.9591  -23.9209  -44.0633 C.3       12 UNK         0.1400 
     71 CB         -0.9135  -25.0456  -43.8961 C.3       12 UNK        -0.1800 
     72 C          -3.2185  -24.3464  -44.8523 C.2       12 UNK         0.5000 
     73 O          -4.2552  -23.6929  -44.7310 O.2       12 UNK        -0.5000 
     74 N          -3.0994  -25.4064  -45.6634 N.am      13 UNK        -0.5000 
     75 CA         -4.1385  -25.9120  -46.5651 C.3       13 UNK         0.1400 
     76 CB         -3.8040  -27.3703  -46.9192 C.3       13 UNK        -0.1800 
     77 C          -4.3189  -25.0731  -47.8508 C.2       13 UNK         0.5000 
     78 O          -5.2703  -25.3209  -48.5924 O.2       13 UNK        -0.5000 
     79 N          -3.4083  -24.1193  -48.0987 N.am      14 UNK        -0.5000 
     80 CA         -3.3307  -23.2239  -49.2581 C.3       14 UNK         0.1400 
     81 CB         -4.5906  -22.3462  -49.3849 C.3       14 UNK        -0.1800 
     82 C          -2.9412  -23.9491  -50.5614 C.2       14 UNK         0.5000 
     83 O          -3.3594  -23.5443  -51.6484 O.2       14 UNK        -0.5000 
     84 N          -2.1137  -24.9961  -50.4183 N.am      15 UNK        -0.5000 
     85 CA         -1.5085  -25.8035  -51.4814 C.3       15 UNK         0.1400 
     86 CB         -0.4121  -24.9779  -52.1943 C.3       15 UNK        -0.1800 
     87 C          -2.5549  -26.4130  -52.4430 C.2       15 UNK         0.5000 
     88 O          -3.6424  -26.7934  -52.0043 O.2       15 UNK        -0.5000 
     89 N          -2.2129  -26.4982  -53.7347 N.am      16 UNK        -0.5000 
     90 CA         -3.1141  -26.9237  -54.8071 C.3       16 UNK         0.1400 
     91 CB         -2.2702  -27.4124  -55.9950 C.3       16 UNK        -0.1800 
     92 C          -4.0780  -25.8054  -55.2544 C.2       16 UNK         0.5000 
     93 O          -5.0741  -26.1004  -55.9159 O.2       16 UNK        -0.5000 
     94 N          -3.7632  -24.5482  -54.9075 N.am      17 UNK        -0.5000 
     95 CA         -4.5580  -23.3653  -55.2371 C.3       17 UNK         0.1400 
     96 CB         -3.7113  -22.1097  -54.9904 C.3       17 UNK        -0.1800 
     97 C          -5.8761  -23.2969  -54.4460 C.2       17 UNK         0.5000 
     98 O          -6.8862  -22.8513  -54.9933 O.2       17 UNK        -0.5000 
     99 N          -5.8403  -23.7489  -53.1835 N.am      18 UNK        -0.5000 
    100 CA        -6.9610  -23.8520  -52.2481 C.3       18 UNK         0.1400 
    101 CB        -7.9102  -24.9921  -52.6801 C.3       18 UNK        -0.1800 
    102 C         -7.6554  -22.4886  -52.0517 C.2       18 UNK         0.5000 
    103 O         -7.0362  -21.5705  -51.5135 O.2       18 UNK        -0.5000 
    104 N         -8.9002  -22.3582  -52.5301 N.am      19 UNK        -0.5000 
    105 CA        -9.7169  -21.1431  -52.4723 C.3       19 UNK         0.1400 
    106 CB       -11.1148  -21.4600  -53.0251 C.3       19 UNK        -0.1800 
    107 C         -9.1130  -19.9242  -53.2015 C.2       19 UNK         0.5000 
    108 O         -9.4570  -18.7931  -52.8561 O.2       19 UNK        -0.5000 
    109 N         -8.2193  -20.1587  -54.1748 N.am      20 UNK        -0.5000 
    110 CA        -7.4756  -19.1061  -54.8723 C.3       20 UNK         0.1400 
    111 CB        -6.9726  -19.6457  -56.2199 C.3       20 UNK        -0.1800 
    112 C         -6.3116  -18.5273  -54.0398 C.2       20 UNK         0.5000 
    113 O         -5.7921  -17.4695  -54.3997 O.2       20 UNK        -0.5000 
    114 N         -5.9124  -19.2222  -52.9602 N.am      21 UNK        -0.5000 
    115 CA        -4.9166  -18.8222  -51.9551 C.3       21 UNK         0.1400 
    116 CB        -5.4922  -17.7027  -51.0648 C.3       21 UNK        -0.1800 
    117 C         -3.5264  -18.4673  -52.5273 C.2       21 UNK         0.5000 
    118 O         -2.8201  -17.6398  -51.9525 O.2       21 UNK        -0.5000 
    119 N         -3.1758  -19.0877  -53.6610 N.am      22 UNK        -0.5000 
    120 CA        -1.9705  -18.8291  -54.4693 C.3       22 UNK         0.1400 
    121 C         -1.9304  -17.4149  -55.1299 C.2       22 UNK         0.5000 
    122 N         -3.0426  -16.6951  -55.2325 N.am      22 UNK        -0.7600 
    123 O         -0.8829  -16.9715  -55.5929 O.2       22 UNK        -0.5000 
    124 C124       -0.6452  -19.1894  -53.7397 C.3       23 UNK        -0.0398 
    125 S125       -0.6009  -20.9238  -53.1707 S.3       23 UNK        -0.2404 
    126 C126        0.8950  -20.9122  -52.1216 C.3       23 UNK        -0.0205 
    127 H127       -1.0701  -15.2842  -51.6014 H         1 UNK         0.0600 
    128 H128       -0.2604  -16.7674  -51.0949 H         1 UNK         0.0600 
    129 H129        0.1047  -16.0580  -52.6685 H         1 UNK         0.0600 
    130 H130        1.2944  -16.3668  -49.5590 H         1 UNK         0.3000 
    131 H131        3.4298  -14.5463  -49.9736 H         1 UNK         0.0600 
    132 H132        2.6791  -16.1448  -47.4818 H         1 UNK         0.0800 
    133 H133        4.1776  -15.2735  -47.6748 H         1 UNK         0.0800 
    134 H134        3.1134  -18.4328  -47.2628 H         1 UNK         0.0800 
    135 H135        3.9450  -19.4945  -48.3625 H         1 UNK         0.0800 
    136 H136        2.9515  -19.9990  -50.6336 H         1 UNK         0.1150 
    137 H137       -1.3399  -19.9800  -50.7258 H         1 UNK         0.1150 
    138 H138        0.7407  -17.9937  -47.5608 H         1 UNK         0.1150 
    139 H139       -1.6765  -17.6834  -47.8366 H         1 UNK         0.0800 
    140 H140       -2.4645  -18.2563  -49.2836 H         1 UNK         0.0800 
    141 H141       -1.9651  -20.1438  -45.2467 H         1 UNK         0.0800 
    142 H142       -0.8649  -19.0938  -46.0655 H         1 UNK         0.0800 
    143 H143        0.0350  -21.2471  -47.2950 H         1 UNK         0.0600 
    144 H144        0.8474  -20.0636  -44.9117 H         1 UNK         0.3000 
    145 H145        3.6256  -22.0975  -44.0705 H         1 UNK         0.0600 
    146 H146        4.8666  -20.0115  -44.3014 H         1 UNK         0.0600 
    147 H147        3.5416  -19.2428  -45.1617 H         1 UNK         0.0600 
    148 H148        4.4334  -20.5642  -45.9128 H         1 UNK         0.0600 
    149 H149        2.4649  -19.6280  -43.0715 H         1 UNK         0.3000 
    150 H150        0.4315  -21.2029  -40.5956 H         1 UNK         0.0600 
    151 H151        2.7196  -21.0655  -39.5822 H         1 UNK         0.0600 
    152 H152        1.7214  -19.6964  -39.1158 H         1 UNK         0.0600 
    153 H153        2.9680  -19.4985  -40.3454 H         1 UNK         0.0600 
    154 H154        0.8737  -18.4615  -41.1728 H         1 UNK         0.3000 
    155 H155       -1.5818  -18.0959  -43.7562 H         1 UNK         0.0600 
    156 H156       -2.8292  -17.9373  -41.6354 H         1 UNK         0.0600 
    157 H157       -2.3045  -16.3350  -42.1327 H         1 UNK         0.0600 
    158 H158       -1.4576  -17.1829  -40.8385 H         1 UNK         0.0600 
    159 H159        0.0917  -16.1379  -42.6532 H         1 UNK         0.3000 
    160 H160        2.9397  -16.6716  -44.7990 H         1 UNK         0.0600 
    161 H161        0.9066  -14.4052  -44.5543 H         1 UNK         0.0600 
    162 H162        1.0903  -15.3850  -45.9932 H         1 UNK         0.0600 
    163 H163        2.4447  -14.4175  -45.4283 H         1 UNK         0.0600 
    164 H164        2.3948  -14.7783  -42.6963 H         1 UNK         0.3000 
    165 H165        3.8829  -16.6959  -40.0688 H         1 UNK         0.0600 
    166 H166        5.1078  -14.5499  -39.8245 H         1 UNK         0.0600 
    167 H167        5.7379  -15.4647  -41.1855 H         1 UNK         0.0600 
    168 H168        4.6824  -14.0879  -41.4718 H         1 UNK         0.0600 
    169 H169        2.5432  -14.1497  -40.1930 H         1 UNK         0.3000 
    170 H170       -0.7424  -15.3414  -39.5877 H         1 UNK         0.0600 
    171 H171        1.1880  -14.0573  -37.5852 H         1 UNK         0.0600 
    172 H172       -0.5740  -14.0214  -37.5034 H         1 UNK         0.0600 
    173 H173        0.2832  -15.5427  -37.3188 H         1 UNK         0.0600 
    174 H174        0.2996  -12.7212  -39.4864 H         1 UNK         0.3000 
    175 H175       -1.1229  -11.7177  -42.1714 H         1 UNK         0.0600 
    176 H176        1.3284  -10.9905  -40.4747 H         1 UNK         0.0600 
    177 H177        0.2332   -9.8433  -41.2339 H         1 UNK         0.0600 
    178 H178       -0.3593  -10.8887  -39.9627 H         1 UNK         0.0600 
    179 H179        0.2280  -11.2074  -43.8647 H         1 UNK         0.3000 
    180 H180        2.5294  -10.3326  -44.5577 H         1 UNK         0.0600 
    181 H181        4.5791  -11.2687  -45.5849 H         1 UNK         0.0600 
    182 H182        4.3096  -12.8134  -44.7790 H         1 UNK         0.0600 
    183 H183        4.6706  -11.3727  -43.8350 H         1 UNK         0.0600 
    184 H184        2.5763  -12.3773  -46.4954 H         1 UNK         0.3000 
    185 H185       -0.7152  -12.4220  -47.5472 H         1 UNK         0.0600 
    186 H186       -0.0374  -11.3826  -49.6965 H         1 UNK         0.0600 
    187 H187       -0.2440  -10.1637  -48.4487 H         1 UNK         0.0600 
    188 H188        1.3734  -10.6596  -48.9256 H         1 UNK         0.0600 
    189 H189        0.4010  -14.1074  -48.3695 H         1 UNK         0.3000 
    190 H190       -1.2175  -21.9473  -44.0027 H         1 UNK         0.3000 
    191 H191       -2.3010  -23.6382  -43.0666 H         1 UNK         0.0600 
    192 H192       -0.1093  -24.7268  -43.2324 H         1 UNK         0.0600 
    193 H193       -0.4568  -25.3346  -44.8431 H         1 UNK         0.0600 
    194 H194       -1.3606  -25.9366  -43.4534 H         1 UNK         0.0600 
    195 H195       -2.1990  -25.8602  -45.7186 H         1 UNK         0.3000 
    196 H196       -5.0930  -25.9003  -46.0350 H         1 UNK         0.0600 
    197 H197       -3.7369  -27.9887  -46.0238 H         1 UNK         0.0600 
    198 H198       -2.8564  -27.4473  -47.4537 H         1 UNK         0.0600 
    199 H199       -4.5752  -27.8069  -47.5553 H         1 UNK         0.0600 
    200 H200       -2.6406  -24.0115  -47.4391 H         1 UNK         0.3000 
    201 H201       -2.4966  -22.5521  -49.0538 H         1 UNK         0.0600 
    202 H202       -4.7825  -21.7955  -48.4645 H         1 UNK         0.0600 
    203 H203       -5.4790  -22.9318  -49.6117 H         1 UNK         0.0600 
    204 H204       -4.4717  -21.6147  -50.1820 H         1 UNK         0.0600 
    205 H205       -1.8649  -25.2594  -49.4761 H         1 UNK         0.3000 
    206 H206       -1.0237  -26.6465  -50.9873 H         1 UNK         0.0600 
    207 H207       -0.8339  -24.1561  -52.7747 H         1 UNK         0.0600 
    208 H208        0.2803  -24.5449  -51.4721 H         1 UNK         0.0600 
    209 H209        0.1833  -25.5956  -52.8674 H         1 UNK         0.0600 
    210 H210       -1.2950  -26.1839  -54.0151 H         1 UNK         0.3000 
    211 H211       -3.7204  -27.7603  -54.4529 H         1 UNK         0.0600 
    212 H212       -1.6415  -26.6170  -56.3972 H         1 UNK         0.0600 
    213 H213       -2.9064  -27.7695  -56.8059 H         1 UNK         0.0600 
    214 H214       -1.6221  -28.2395  -55.7047 H         1 UNK         0.0600 
    215 H215       -2.9463  -24.3974  -54.3345 H         1 UNK         0.3000 
    216 H216       -4.8074  -23.4058  -56.2995 H         1 UNK         0.0600 
    217 H217       -4.2492  -21.2122  -55.2917 H         1 UNK         0.0600 
    218 H218       -2.7844  -22.1382  -55.5635 H         1 UNK         0.0600 
    219 H219       -3.4494  -22.0039  -53.9368 H         1 UNK         0.0600 
    220 H220       -4.9313  -23.9795  -52.7927 H         1 UNK         0.3000 
    221 H221       -6.5362  -24.1293  -51.2831 H         1 UNK         0.0600 
    222 H222       -8.3439  -24.8219  -53.6661 H         1 UNK         0.0600 
    223 H223       -7.3764  -25.9419  -52.7191 H         1 UNK         0.0600 
    224 H224       -8.7281  -25.1150  -51.9691 H         1 UNK         0.0600 
    225 H225       -9.3138  -23.1528  -52.9955 H         1 UNK         0.3000 
    226 H226       -9.8195  -20.8688  -51.4204 H         1 UNK         0.0600 
    227 H227      -11.5945  -22.2560  -52.4552 H         1 UNK         0.0600 
    228 H228      -11.7655  -20.5861  -52.9697 H         1 UNK         0.0600 
    229 H229      -11.0720  -21.7717  -54.0695 H         1 UNK         0.0600 
    230 H230       -7.9788  -21.1174  -54.4042 H         1 UNK         0.3000 
    231 H231       -8.1582  -18.2800  -55.0828 H         1 UNK         0.0600 
    232 H232       -6.4421  -18.8733  -56.7783 H         1 UNK         0.0600 
    233 H233       -7.8019  -19.9828  -56.8420 H         1 UNK         0.0600 
    234 H234       -6.2905  -20.4843  -56.0931 H         1 UNK         0.0600 
    235 H235       -6.4099  -20.0779  -52.7346 H         1 UNK         0.3000 
    236 H236       -4.7613  -19.6942  -51.3221 H         1 UNK         0.0600 
    237 H237       -5.6291  -16.7761  -51.6232 H         1 UNK         0.0600 
    238 H238       -6.4578  -17.9898  -50.6482 H         1 UNK         0.0600 
    239 H239       -4.8306  -17.4868  -50.2251 H         1 UNK         0.0600 
    240 H240       -3.8327  -19.7427  -54.0544 H         1 UNK         0.3000 
    241 H241       -2.0514  -19.5087  -55.3179 H         1 UNK         0.0600 
    242 H242       -3.9275  -17.0341  -54.8673 H         1 UNK         0.3800 
    243 H243       -3.0034  -15.7895  -55.6718 H         1 UNK         0.3800 
    244 H244       -0.4878  -18.5248  -52.8909 H         1 UNK         0.0800 
    245 H245        0.2094  -19.0436  -54.4019 H         1 UNK         0.0800 
    246 H246        1.7369  -20.5785  -52.7302 H         1 UNK         0.0800 
    247 H247        1.1126  -21.9406  -51.8312 H         1 UNK         0.0800 
@<TRIPOS>BOND
     1    1    2 1    
     2    1  127 1    
     3    1  128 1    
     4    1  129 1    
     5    2    3 2    
     6    2    4 am   BACKBONE|DICT|INTERRES
     7    4    5 1    
     8    4  130 1    
     9    5    6 1    
    10    5   65 1    
    11    5  131 1    
    12    6    7 1    
    13    6  132 1    
    14    6  133 1    
    15    7    8 1    
    16    8    9 1    
    17    8  134 1    
    18    8  135 1    
    19    9   10 ar   
    20    9   14 ar   
    21   10   11 ar   
    22   10  136 1    
    23   11   12 ar   
    24   11  126 1    
    25   12   13 ar   
    26   12  137 1    
    27   13   14 ar   
    28   13   15 1    
    29   14  138 1    
    30   15   16 1    
    31   15  139 1    
    32   15  140 1    
    33   16   17 1    
    34   17   18 1    
    35   17  141 1    
    36   17  142 1    
    37   18   19 1    
    38   18   67 1    
    39   18  143 1    
    40   19   20 am   BACKBONE|DICT|INTERRES
    41   19  144 1    
    42   20   21 2    
    43   20   22 1    
    44   22   23 1    
    45   22   24 1    
    46   22  145 1    
    47   23  146 1    
    48   23  147 1    
    49   23  148 1    
    50   24   25 am   BACKBONE|DICT|INTERRES
    51   24  149 1    
    52   25   26 2    
    53   25   27 1    
    54   27   28 1    
    55   27   29 1    
    56   27  150 1    
    57   28  151 1    
    58   28  152 1    
    59   28  153 1    
    60   29   30 am   BACKBONE|DICT|INTERRES
    61   29  154 1    
    62   30   31 2    
    63   30   32 1    
    64   32   33 1    
    65   32   34 1    
    66   32  155 1    
    67   33  156 1    
    68   33  157 1    
    69   33  158 1    
    70   34   35 am   BACKBONE|DICT|INTERRES
    71   34  159 1    
    72   35   36 2    
    73   35   37 1    
    74   37   38 1    
    75   37   39 1    
    76   37  160 1    
    77   38  161 1    
    78   38  162 1    
    79   38  163 1    
    80   39   40 am   BACKBONE|DICT|INTERRES
    81   39  164 1    
    82   40   41 2    
    83   40   42 1    
    84   42   43 1    
    85   42   44 1    
    86   42  165 1    
    87   43  166 1    
    88   43  167 1    
    89   43  168 1    
    90   44   45 am   BACKBONE|DICT|INTERRES
    91   44  169 1    
    92   45   46 2    
    93   45   47 1    
    94   47   48 1    
    95   47   49 1    
    96   47  170 1    
    97   48  171 1    
    98   48  172 1    
    99   48  173 1    
   100   49   50 am   BACKBONE|DICT|INTERRES
   101   49  174 1    
   102   50   51 2    
   103   50   52 1    
   104   52   53 1    
   105   52   54 1    
   106   52  175 1    
   107   53  176 1    
   108   53  177 1    
   109   53  178 1    
   110   54   55 am   BACKBONE|DICT|INTERRES
   111   54  179 1    
   112   55   56 2    
   113   55   57 1    
   114   57   58 1    
   115   57   59 1    
   116   57  180 1    
   117   58  181 1    
   118   58  182 1    
   119   58  183 1    
   120   59   60 am   BACKBONE|DICT|INTERRES
   121   59  184 1    
   122   60   61 2    
   123   60   62 1    
   124   62   63 1    
   125   62   64 1    
   126   62  185 1    
   127   63  186 1    
   128   63  187 1    
   129   63  188 1    
   130   64   65 am   BACKBONE|DICT|INTERRES
   131   64  189 1    
   132   65   66 2    
   133   67   68 2    
   134   67   69 am   BACKBONE|DICT|INTERRES
   135   69   70 1    
   136   69  190 1    
   137   70   71 1    
   138   70   72 1    
   139   70  191 1    
   140   71  192 1    
   141   71  193 1    
   142   71  194 1    
   143   72   73 2    
   144   72   74 am   BACKBONE|DICT|INTERRES
   145   74   75 1    
   146   74  195 1    
   147   75   76 1    
   148   75   77 1    
   149   75  196 1    
   150   76  197 1    
   151   76  198 1    
   152   76  199 1    
   153   77   78 2    
   154   77   79 am   BACKBONE|DICT|INTERRES
   155   79   80 1    
   156   79  200 1    
   157   80   81 1    
   158   80   82 1    
   159   80  201 1    
   160   81  202 1    
   161   81  203 1    
   162   81  204 1    
   163   82   83 2    
   164   82   84 am   BACKBONE|DICT|INTERRES
   165   84   85 1    
   166   84  205 1    
   167   85   86 1    
   168   85   87 1    
   169   85  206 1    
   170   86  207 1    
   171   86  208 1    
   172   86  209 1    
   173   87   88 2    
   174   87   89 am   BACKBONE|DICT|INTERRES
   175   89   90 1    
   176   89  210 1    
   177   90   91 1    
   178   90   92 1    
   179   90  211 1    
   180   91  212 1    
   181   91  213 1    
   182   91  214 1    
   183   92   93 2    
   184   92   94 am   BACKBONE|DICT|INTERRES
   185   94   95 1    
   186   94  215 1    
   187   95   96 1    
   188   95   97 1    
   189   95  216 1    
   190   96  217 1    
   191   96  218 1    
   192   96  219 1    
   193   97   98 2    
   194   97   99 am   BACKBONE|DICT|INTERRES
   195   99  100 1    
   196   99  220 1    
   197  100  101 1    
   198  100  102 1    
   199  100  221 1    
   200  101  222 1    
   201  101  223 1    
   202  101  224 1    
   203  102  103 2    
   204  102  104 am   BACKBONE|DICT|INTERRES
   205  104  105 1    
   206  104  225 1    
   207  105  106 1    
   208  105  107 1    
   209  105  226 1    
   210  106  227 1    
   211  106  228 1    
   212  106  229 1    
   213  107  108 2    
   214  107  109 am   BACKBONE|DICT|INTERRES
   215  109  110 1    
   216  109  230 1    
   217  110  111 1    
   218  110  112 1    
   219  110  231 1    
   220  111  232 1    
   221  111  233 1    
   222  111  234 1    
   223  112  113 2    
   224  112  114 am   BACKBONE|DICT|INTERRES
   225  114  115 1    
   226  114  235 1    
   227  115  116 1    
   228  115  117 1    
   229  115  236 1    
   230  116  237 1    
   231  116  238 1    
   232  116  239 1    
   233  117  118 2    
   234  117  119 am   BACKBONE|DICT|INTERRES
   235  119  120 1    
   236  119  240 1    
   237  120  121 1    
   238  120  124 1    
   239  120  241 1    
   240  121  122 am   BACKBONE|DICT|INTERRES
   241  121  123 2    
   242  122  242 1    
   243  122  243 1    
   244  124  125 1    
   245  124  244 1    
   246  124  245 1    
   247  125  126 1    
   248  126  246 1    
   249  126  247 1    
@<TRIPOS>SUBSTRUCTURE
     1 UNK         1 GROUP             0       ****    0 ROOT    
