@<TRIPOS>MOLECULE
3R540
247   249    1
SMALL
USER_CHARGES


@<TRIPOS>ATOM
      1 CA         -4.7187  -13.7560  -47.8167 C.3       0 UNK        -0.1800 
      2 C          -3.5089  -13.4975  -46.9318 C.2       0 UNK         0.5000 
      3 O          -3.6627  -13.2764  -45.7301 O.2       0 UNK        -0.5000 
      4 N          -2.3020  -13.5414  -47.5139 N.am      1 UNK        -0.5000 
      5 CA         -1.0231  -13.2436  -46.8484 C.3       1 UNK         0.1400 
      6 C6          0.1626  -13.1871  -47.8390 C.3       23 UNK        -0.0398 
      7 S7         -0.0979  -12.0087  -49.2121 S.3       23 UNK        -0.2404 
      8 C8          0.9844  -12.6866  -50.5220 C.3       23 UNK        -0.0205 
      9 C9          0.7247  -14.1614  -50.8041 C.ar      23 UNK        -0.0193 
     10 C10         1.7691  -15.0898  -50.7224 C.ar      23 UNK        -0.1150 
     11 C11         1.5193  -16.4560  -50.8860 C.ar      23 UNK        -0.0193 
     12 C12         0.2121  -16.8870  -51.1248 C.ar      23 UNK        -0.1150 
     13 C13        -0.8328  -15.9675  -51.2410 C.ar      23 UNK        -0.0193 
     14 C14        -0.5683  -14.6052  -51.0961 C.ar      23 UNK        -0.1150 
     15 C15        -2.2530  -16.4473  -51.4879 C.3       23 UNK        -0.0205 
     16 S16        -3.2626  -16.4192  -49.9689 S.3       23 UNK        -0.2404 
     17 C17        -2.2781  -17.4238  -48.8051 C.3       23 UNK        -0.0398 
     18 CA         -2.2715  -18.9336  -49.1544 C.3       11 UNK         0.1400 
     19 N          -0.9986  -19.5674  -48.7912 N.am      11 UNK        -0.5000 
     20 C          -0.5971  -20.7635  -49.2457 C.2       10 UNK         0.5000 
     21 O          -1.1749  -21.3556  -50.1569 O.2       10 UNK        -0.5000 
     22 CA          0.6227  -21.4330  -48.5750 C.3       10 UNK         0.1400 
     23 CB          1.8255  -21.4240  -49.5240 C.3       10 UNK        -0.1800 
     24 N           1.0300  -20.8405  -47.3012 N.am      10 UNK        -0.5000 
     25 C           0.2788  -20.7356  -46.1969 C.2       9 UNK         0.5000 
     26 O          -0.8525  -21.2090  -46.0982 O.2       9 UNK        -0.5000 
     27 CA          0.8547  -19.8977  -45.0376 C.3       9 UNK         0.1400 
     28 CB          1.3818  -20.8183  -43.9285 C.3       9 UNK        -0.1800 
     29 N           1.8984  -18.9372  -45.4288 N.am      9 UNK        -0.5000 
     30 C           1.7729  -17.9711  -46.3563 C.2       8 UNK         0.5000 
     31 O           0.7398  -17.7930  -47.0057 O.2       8 UNK        -0.5000 
     32 CA          3.0091  -17.0945  -46.6380 C.3       8 UNK         0.1400 
     33 CB          2.6270  -15.6536  -47.0008 C.3       8 UNK        -0.1800 
     34 N           3.9188  -17.0633  -45.4958 N.am      8 UNK        -0.5000 
     35 C           5.1523  -17.5876  -45.4674 C.2       7 UNK         0.5000 
     36 O           5.6769  -18.1533  -46.4268 O.2       7 UNK        -0.5000 
     37 CA          5.9334  -17.4783  -44.1399 C.3       7 UNK         0.1400 
     38 CB          6.9497  -16.3282  -44.2104 C.3       7 UNK        -0.1800 
     39 N           5.0737  -17.2746  -42.9721 N.am      7 UNK        -0.5000 
     40 C           4.1685  -18.1528  -42.5185 C.2       6 UNK         0.5000 
     41 O           4.0365  -19.2843  -42.9825 O.2       6 UNK        -0.5000 
     42 CA          3.2199  -17.6713  -41.4017 C.3       6 UNK         0.1400 
     43 CB          3.6493  -18.2481  -40.0446 C.3       6 UNK        -0.1800 
     44 N           3.1320  -16.2102  -41.2963 N.am      6 UNK        -0.5000 
     45 C           2.6042  -15.4015  -42.2254 C.2       5 UNK         0.5000 
     46 O           2.1244  -15.7995  -43.2888 O.2       5 UNK        -0.5000 
     47 CA          2.7239  -13.8980  -41.9537 C.3       5 UNK         0.1400 
     48 CB          3.9025  -13.3026  -42.7446 C.3       5 UNK        -0.1800 
     49 N           1.4883  -13.2142  -42.3194 N.am      5 UNK        -0.5000 
     50 C           1.0584  -12.0801  -41.7501 C.2       4 UNK         0.5000 
     51 O           1.6611  -11.4997  -40.8457 O.2       4 UNK        -0.5000 
     52 CA         -0.2671  -11.4912  -42.2592 C.3       4 UNK         0.1400 
     53 CB         -0.0461  -10.6697  -43.5400 C.3       4 UNK        -0.1800 
     54 N          -1.2621  -12.5316  -42.5084 N.am      4 UNK        -0.5000 
     55 C          -2.1020  -13.0176  -41.5837 C.2       3 UNK         0.5000 
     56 O          -2.1312  -12.6250  -40.4167 O.2       3 UNK        -0.5000 
     57 CA         -3.0881  -14.1150  -42.0300 C.3       3 UNK         0.1400 
     58 CB         -4.4716  -13.5098  -42.3131 C.3       3 UNK        -0.1800 
     59 N          -2.6315  -14.8314  -43.2203 N.am      3 UNK        -0.5000 
     60 C          -1.7159  -15.8113  -43.2031 C.2       2 UNK         0.5000 
     61 O          -1.2239  -16.2668  -42.1707 O.2       2 UNK        -0.5000 
     62 CA         -1.2619  -16.3666  -44.5682 C.3       2 UNK         0.1400 
     63 CB         -2.1146  -17.5891  -44.9463 C.3       2 UNK        -0.1800 
     64 N          -1.3276  -15.3867  -45.6564 N.am      2 UNK        -0.5000 
     65 C          -0.6935  -14.2052  -45.6848 C.2       1 UNK         0.5000 
     66 O           0.0867  -13.8354  -44.8091 O.2       1 UNK        -0.5000 
     67 C          -3.4921  -19.6640  -48.5440 C.2       11 UNK         0.5000 
     68 O          -4.5821  -19.5929  -49.1079 O.2       11 UNK        -0.5000 
     69 N          -3.2901  -20.3689  -47.4221 N.am      12 UNK        -0.5000 
     70 CA         -4.3190  -21.1227  -46.7051 C.3       12 UNK         0.1400 
     71 CB         -4.2101  -20.7952  -45.2061 C.3       12 UNK        -0.1800 
     72 C          -4.2134  -22.6406  -46.9527 C.2       12 UNK         0.5000 
     73 O          -4.9236  -23.4016  -46.2935 O.2       12 UNK        -0.5000 
     74 N          -3.3516  -23.0657  -47.8900 N.am      13 UNK        -0.5000 
     75 CA         -3.0970  -24.4640  -48.2467 C.3       13 UNK         0.1400 
     76 CB         -2.0542  -24.5191  -49.3712 C.3       13 UNK        -0.1800 
     77 C          -4.3749  -25.2232  -48.6504 C.2       13 UNK         0.5000 
     78 O          -5.1129  -24.7555  -49.5212 O.2       13 UNK        -0.5000 
     79 N          -4.6167  -26.3597  -47.9807 N.am      14 UNK        -0.5000 
     80 CA         -5.7999  -27.2220  -48.0953 C.3       14 UNK         0.1400 
     81 CB         -5.8293  -27.9229  -49.4697 C.3       14 UNK        -0.1800 
     82 C          -7.1134  -26.4759  -47.7741 C.2       14 UNK         0.5000 
     83 O          -8.1028  -26.6368  -48.4870 O.2       14 UNK        -0.5000 
     84 N          -7.0825  -25.6265  -46.7350 N.am      15 UNK        -0.5000 
     85 CA         -8.1493  -24.6964  -46.3338 C.3       15 UNK         0.1400 
     86 CB         -9.3898  -25.4573  -45.8205 C.3       15 UNK        -0.1800 
     87 C          -8.4755  -23.6757  -47.4471 C.2       15 UNK         0.5000 
     88 O          -9.6401  -23.3566  -47.6893 O.2       15 UNK        -0.5000 
     89 N          -7.4106  -23.2167  -48.1174 N.am      16 UNK        -0.5000 
     90 CA         -7.3626  -22.3192  -49.2739 C.3       16 UNK         0.1400 
     91 CB         -8.0169  -20.9581  -48.9620 C.3       16 UNK        -0.1800 
     92 C          -7.8795  -22.9387  -50.5908 C.2       16 UNK         0.5000 
     93 O          -7.9964  -22.2173  -51.5821 O.2       16 UNK        -0.5000 
     94 N          -8.1369  -24.2556  -50.6235 N.am      17 UNK        -0.5000 
     95 CA         -8.5135  -24.9788  -51.8431 C.3       17 UNK         0.1400 
     96 CB         -9.1614  -26.3213  -51.4750 C.3       17 UNK        -0.1800 
     97 C          -7.3235  -25.2015  -52.7977 C.2       17 UNK         0.5000 
     98 O          -7.5416  -25.3900  -53.9950 O.2       17 UNK        -0.5000 
     99 N          -6.0970  -25.1645  -52.2616 N.am      18 UNK        -0.5000 
    100 CA        -4.8388  -25.2965  -52.9945 C.3       18 UNK         0.1400 
    101 CB        -4.1365  -26.5925  -52.5490 C.3       18 UNK        -0.1800 
    102 C         -3.9610  -24.0500  -52.7744 C.2       18 UNK         0.5000 
    103 O         -2.7346  -24.1625  -52.7637 O.2       18 UNK        -0.5000 
    104 N         -4.6061  -22.8894  -52.5779 N.am      19 UNK        -0.5000 
    105 CA        -3.9841  -21.5962  -52.2919 C.3       19 UNK         0.1400 
    106 CB        -5.0797  -20.5256  -52.1798 C.3       19 UNK        -0.1800 
    107 C         -2.9424  -21.1576  -53.3381 C.2       19 UNK         0.5000 
    108 O         -3.1193  -21.4144  -54.5313 O.2       19 UNK        -0.5000 
    109 N         -1.9044  -20.4660  -52.8517 N.am      20 UNK        -0.5000 
    110 CA        -0.7528  -19.9498  -53.5968 C.3       20 UNK         0.1400 
    111 CB        -1.1663  -18.9945  -54.7355 C.3       20 UNK        -0.1800 
    112 C          0.2157  -21.0633  -54.0354 C.2       20 UNK         0.5000 
    113 O          0.8762  -20.9446  -55.0695 O.2       20 UNK        -0.5000 
    114 N          0.3454  -22.0985  -53.1905 N.am      21 UNK        -0.5000 
    115 CA         1.3112  -23.1955  -53.3351 C.3       21 UNK         0.1400 
    116 CB         0.9911  -24.2870  -52.3000 C.3       21 UNK        -0.1800 
    117 C          2.7896  -22.7477  -53.2409 C.2       21 UNK         0.5000 
    118 O          3.6808  -23.5138  -53.6086 O.2       21 UNK        -0.5000 
    119 N          3.0175  -21.5095  -52.7822 N.am      22 UNK        -0.5000 
    120 CA         4.2874  -20.7738  -52.8531 C.3       22 UNK         0.1400 
    121 C          4.7572  -20.4271  -54.3000 C.2       22 UNK         0.5000 
    122 N          3.8989  -20.4754  -55.3141 N.am      22 UNK        -0.7600 
    123 O          5.9280  -20.1182  -54.5049 O.2       22 UNK        -0.5000 
    124 C124        4.2541  -19.5076  -51.9517 C.3       23 UNK        -0.0398 
    125 S125        2.8801  -18.3652  -52.3517 S.3       23 UNK        -0.2404 
    126 C126        2.6471  -17.4733  -50.7800 C.3       23 UNK        -0.0205 
    127 H127       -5.4765  -12.9905  -47.6506 H         1 UNK         0.0600 
    128 H128       -5.1542  -14.7272  -47.5820 H         1 UNK         0.0600 
    129 H129       -4.4542  -13.7453  -48.8743 H         1 UNK         0.0600 
    130 H130       -2.2394  -13.7260  -48.5053 H         1 UNK         0.3000 
    131 H131       -1.1264  -12.2516  -46.4035 H         1 UNK         0.0600 
    132 H132        0.3262  -14.1841  -48.2434 H         1 UNK         0.0800 
    133 H133        1.0840  -12.9046  -47.3260 H         1 UNK         0.0800 
    134 H134        2.0235  -12.5271  -50.2299 H         1 UNK         0.0800 
    135 H135        0.8304  -12.1178  -51.4397 H         1 UNK         0.0800 
    136 H136        2.7727  -14.7516  -50.5061 H         1 UNK         0.1150 
    137 H137        0.0104  -17.9432  -51.2088 H         1 UNK         0.1150 
    138 H138       -1.3788  -13.8931  -51.1640 H         1 UNK         0.1150 
    139 H139       -2.7255  -15.8069  -52.2339 H         1 UNK         0.0800 
    140 H140       -2.2528  -17.4506  -51.9147 H         1 UNK         0.0800 
    141 H141       -2.6690  -17.2519  -47.8024 H         1 UNK         0.0800 
    142 H142       -1.2647  -17.0227  -48.7807 H         1 UNK         0.0800 
    143 H143       -2.3673  -19.0355  -50.2357 H         1 UNK         0.0600 
    144 H144       -0.4397  -19.0961  -48.0865 H         1 UNK         0.3000 
    145 H145        0.3489  -22.4702  -48.3793 H         1 UNK         0.0600 
    146 H146        2.6441  -22.0297  -49.1351 H         1 UNK         0.0600 
    147 H147        1.5546  -21.8305  -50.4953 H         1 UNK         0.0600 
    148 H148        2.1993  -20.4152  -49.6848 H         1 UNK         0.0600 
    149 H149        1.9442  -20.4146  -47.2801 H         1 UNK         0.3000 
    150 H150        0.0279  -19.3241  -44.6209 H         1 UNK         0.0600 
    151 H151        0.6515  -21.5872  -43.6720 H         1 UNK         0.0600 
    152 H152        1.5825  -20.2572  -43.0165 H         1 UNK         0.0600 
    153 H153        2.3013  -21.3235  -44.2264 H         1 UNK         0.0600 
    154 H154        2.7790  -19.0165  -44.9367 H         1 UNK         0.3000 
    155 H155        3.5011  -17.5338  -47.5076 H         1 UNK         0.0600 
    156 H156        2.0855  -15.1685  -46.1888 H         1 UNK         0.0600 
    157 H157        1.9968  -15.6381  -47.8883 H         1 UNK         0.0600 
    158 H158        3.5096  -15.0535  -47.2215 H         1 UNK         0.0600 
    159 H159        3.5438  -16.6363  -44.6555 H         1 UNK         0.3000 
    160 H160        6.4785  -18.4141  -44.0003 H         1 UNK         0.0600 
    161 H161        6.4567  -15.3629  -44.3334 H         1 UNK         0.0600 
    162 H162        7.6302  -16.4588  -45.0529 H         1 UNK         0.0600 
    163 H163        7.5586  -16.2828  -43.3073 H         1 UNK         0.0600 
    164 H164        5.1261  -16.3722  -42.5245 H         1 UNK         0.3000 
    165 H165        2.2233  -18.0512  -41.6370 H         1 UNK         0.0600 
    166 H166        2.9415  -17.9801  -39.2599 H         1 UNK         0.0600 
    167 H167        3.6951  -19.3375  -40.0799 H         1 UNK         0.0600 
    168 H168        4.6348  -17.8875  -39.7473 H         1 UNK         0.0600 
    169 H169        3.5219  -15.8023  -40.4584 H         1 UNK         0.3000 
    170 H170        2.9086  -13.7597  -40.8861 H         1 UNK         0.0600 
    171 H171        4.8384  -13.8031  -42.4936 H         1 UNK         0.0600 
    172 H172        3.7527  -13.4032  -43.8206 H         1 UNK         0.0600 
    173 H173        4.0332  -12.2432  -42.5234 H         1 UNK         0.0600 
    174 H174        0.9610  -13.6343  -43.0821 H         1 UNK         0.3000 
    175 H175       -0.6464  -10.8097  -41.4945 H         1 UNK         0.0600 
    176 H176        0.3842  -11.2683  -44.3426 H         1 UNK         0.0600 
    177 H177       -0.9821  -10.2449  -43.9029 H         1 UNK         0.0600 
    178 H178        0.6367   -9.8399  -43.3534 H         1 UNK         0.0600 
    179 H179       -1.2421  -12.9611  -43.4238 H         1 UNK         0.3000 
    180 H180       -3.1919  -14.8241  -41.2059 H         1 UNK         0.0600 
    181 H181       -5.1889  -14.2797  -42.5976 H         1 UNK         0.0600 
    182 H182       -4.4322  -12.7741  -43.1174 H         1 UNK         0.0600 
    183 H183       -4.8667  -13.0080  -41.4290 H         1 UNK         0.0600 
    184 H184       -2.9848  -14.4979  -44.1108 H         1 UNK         0.3000 
    185 H185       -0.2223  -16.6815  -44.4631 H         1 UNK         0.0600 
    186 H186       -1.7148  -18.0946  -45.8241 H         1 UNK         0.0600 
    187 H187       -2.1351  -18.3204  -44.1372 H         1 UNK         0.0600 
    188 H188       -3.1475  -17.3104  -45.1578 H         1 UNK         0.0600 
    189 H189       -1.9628  -15.5910  -46.4115 H         1 UNK         0.3000 
    190 H190       -2.3539  -20.4444  -47.0337 H         1 UNK         0.3000 
    191 H191       -5.3131  -20.8194  -47.0383 H         1 UNK         0.0600 
    192 H192       -4.9924  -21.2959  -44.6344 H         1 UNK         0.0600 
    193 H193       -4.3189  -19.7253  -45.0293 H         1 UNK         0.0600 
    194 H194       -3.2504  -21.1077  -44.7931 H         1 UNK         0.0600 
    195 H195       -2.8345  -22.3717  -48.4082 H         1 UNK         0.3000 
    196 H196       -2.6693  -24.9491  -47.3672 H         1 UNK         0.0600 
    197 H197       -2.3380  -23.8805  -50.2064 H         1 UNK         0.0600 
    198 H198       -1.0773  -24.1918  -49.0199 H         1 UNK         0.0600 
    199 H199       -1.9349  -25.5326  -49.7568 H         1 UNK         0.0600 
    200 H200       -3.9495  -26.6452  -47.2774 H         1 UNK         0.3000 
    201 H201       -5.6955  -27.9955  -47.3333 H         1 UNK         0.0600 
    202 H202       -6.0083  -27.2173  -50.2799 H         1 UNK         0.0600 
    203 H203       -6.6220  -28.6707  -49.5099 H         1 UNK         0.0600 
    204 H204       -4.8892  -28.4354  -49.6731 H         1 UNK         0.0600 
    205 H205       -6.2071  -25.5156  -46.2398 H         1 UNK         0.3000 
    206 H206       -7.7512  -24.1167  -45.4996 H         1 UNK         0.0600 
    207 H207       -9.1211  -26.1660  -45.0373 H         1 UNK         0.0600 
    208 H208      -10.1209  -24.7680  -45.3966 H         1 UNK         0.0600 
    209 H209       -9.8885  -26.0102  -46.6169 H         1 UNK         0.0600 
    210 H210       -6.5122  -23.5889  -47.8348 H         1 UNK         0.3000 
    211 H211       -6.3008  -22.1324  -49.4410 H         1 UNK         0.0600 
    212 H212       -7.8092  -20.2362  -49.7527 H         1 UNK         0.0600 
    213 H213       -7.6305  -20.5363  -48.0344 H         1 UNK         0.0600 
    214 H214       -9.1002  -21.0381  -48.8718 H         1 UNK         0.0600 
    215 H215       -8.0200  -24.8077  -49.7828 H         1 UNK         0.3000 
    216 H216       -9.2594  -24.3854  -52.3761 H         1 UNK         0.0600 
    217 H217       -8.4373  -27.0147  -51.0472 H         1 UNK         0.0600 
    218 H218       -9.5846  -26.8015  -52.3580 H         1 UNK         0.0600 
    219 H219       -9.9701  -26.1899  -50.7559 H         1 UNK         0.0600 
    220 H220       -5.9964  -24.9838  -51.2657 H         1 UNK         0.3000 
    221 H221       -5.0230  -25.3603  -54.0684 H         1 UNK         0.0600 
    222 H222       -4.7832  -27.4591  -52.6868 H         1 UNK         0.0600 
    223 H223       -3.8498  -26.5513  -51.4977 H         1 UNK         0.0600 
    224 H224       -3.2307  -26.7689  -53.1302 H         1 UNK         0.0600 
    225 H225       -5.6145  -22.8976  -52.6261 H         1 UNK         0.3000 
    226 H226       -3.4931  -21.6891  -51.3221 H         1 UNK         0.0600 
    227 H227       -5.6743  -20.4600  -53.0918 H         1 UNK         0.0600 
    228 H228       -5.7549  -20.7347  -51.3524 H         1 UNK         0.0600 
    229 H229       -4.6504  -19.5396  -51.9952 H         1 UNK         0.0600 
    230 H230       -1.8201  -20.4156  -51.8429 H         1 UNK         0.3000 
    231 H231       -0.1857  -19.3553  -52.8833 H         1 UNK         0.0600 
    232 H232       -1.6398  -19.5234  -55.5626 H         1 UNK         0.0600 
    233 H233       -0.2959  -18.4766  -55.1400 H         1 UNK         0.0600 
    234 H234       -1.8594  -18.2319  -54.3807 H         1 UNK         0.0600 
    235 H235       -0.2553  -22.1341  -52.3775 H         1 UNK         0.3000 
    236 H236        1.1740  -23.6248  -54.3295 H         1 UNK         0.0600 
    237 H237       -0.0212  -24.6693  -52.4331 H         1 UNK         0.0600 
    238 H238        1.6705  -25.1341  -52.4024 H         1 UNK         0.0600 
    239 H239        1.0756  -23.9227  -51.2769 H         1 UNK         0.0600 
    240 H240        2.2188  -20.9534  -52.5211 H         1 UNK         0.3000 
    241 H241        5.0541  -21.4365  -52.4476 H         1 UNK         0.0600 
    242 H242        4.2204  -20.2526  -56.2426 H         1 UNK         0.3800 
    243 H243        2.9215  -20.6991  -55.1651 H         1 UNK         0.3800 
    244 H244        5.1960  -18.9600  -52.0165 H         1 UNK         0.0800 
    245 H245        4.1663  -19.8130  -50.9089 H         1 UNK         0.0800 
    246 H246        3.5835  -16.9858  -50.5043 H         1 UNK         0.0800 
    247 H247        2.4128  -18.1739  -49.9795 H         1 UNK         0.0800 
@<TRIPOS>BOND
     1    1    2 1    
     2    1  127 1    
     3    1  128 1    
     4    1  129 1    
     5    2    3 2    
     6    2    4 am   BACKBONE|DICT|INTERRES
     7    4    5 1    
     8    4  130 1    
     9    5    6 1    
    10    5   65 1    
    11    5  131 1    
    12    6    7 1    
    13    6  132 1    
    14    6  133 1    
    15    7    8 1    
    16    8    9 1    
    17    8  134 1    
    18    8  135 1    
    19    9   10 ar   
    20    9   14 ar   
    21   10   11 ar   
    22   10  136 1    
    23   11   12 ar   
    24   11  126 1    
    25   12   13 ar   
    26   12  137 1    
    27   13   14 ar   
    28   13   15 1    
    29   14  138 1    
    30   15   16 1    
    31   15  139 1    
    32   15  140 1    
    33   16   17 1    
    34   17   18 1    
    35   17  141 1    
    36   17  142 1    
    37   18   19 1    
    38   18   67 1    
    39   18  143 1    
    40   19   20 am   BACKBONE|DICT|INTERRES
    41   19  144 1    
    42   20   21 2    
    43   20   22 1    
    44   22   23 1    
    45   22   24 1    
    46   22  145 1    
    47   23  146 1    
    48   23  147 1    
    49   23  148 1    
    50   24   25 am   BACKBONE|DICT|INTERRES
    51   24  149 1    
    52   25   26 2    
    53   25   27 1    
    54   27   28 1    
    55   27   29 1    
    56   27  150 1    
    57   28  151 1    
    58   28  152 1    
    59   28  153 1    
    60   29   30 am   BACKBONE|DICT|INTERRES
    61   29  154 1    
    62   30   31 2    
    63   30   32 1    
    64   32   33 1    
    65   32   34 1    
    66   32  155 1    
    67   33  156 1    
    68   33  157 1    
    69   33  158 1    
    70   34   35 am   BACKBONE|DICT|INTERRES
    71   34  159 1    
    72   35   36 2    
    73   35   37 1    
    74   37   38 1    
    75   37   39 1    
    76   37  160 1    
    77   38  161 1    
    78   38  162 1    
    79   38  163 1    
    80   39   40 am   BACKBONE|DICT|INTERRES
    81   39  164 1    
    82   40   41 2    
    83   40   42 1    
    84   42   43 1    
    85   42   44 1    
    86   42  165 1    
    87   43  166 1    
    88   43  167 1    
    89   43  168 1    
    90   44   45 am   BACKBONE|DICT|INTERRES
    91   44  169 1    
    92   45   46 2    
    93   45   47 1    
    94   47   48 1    
    95   47   49 1    
    96   47  170 1    
    97   48  171 1    
    98   48  172 1    
    99   48  173 1    
   100   49   50 am   BACKBONE|DICT|INTERRES
   101   49  174 1    
   102   50   51 2    
   103   50   52 1    
   104   52   53 1    
   105   52   54 1    
   106   52  175 1    
   107   53  176 1    
   108   53  177 1    
   109   53  178 1    
   110   54   55 am   BACKBONE|DICT|INTERRES
   111   54  179 1    
   112   55   56 2    
   113   55   57 1    
   114   57   58 1    
   115   57   59 1    
   116   57  180 1    
   117   58  181 1    
   118   58  182 1    
   119   58  183 1    
   120   59   60 am   BACKBONE|DICT|INTERRES
   121   59  184 1    
   122   60   61 2    
   123   60   62 1    
   124   62   63 1    
   125   62   64 1    
   126   62  185 1    
   127   63  186 1    
   128   63  187 1    
   129   63  188 1    
   130   64   65 am   BACKBONE|DICT|INTERRES
   131   64  189 1    
   132   65   66 2    
   133   67   68 2    
   134   67   69 am   BACKBONE|DICT|INTERRES
   135   69   70 1    
   136   69  190 1    
   137   70   71 1    
   138   70   72 1    
   139   70  191 1    
   140   71  192 1    
   141   71  193 1    
   142   71  194 1    
   143   72   73 2    
   144   72   74 am   BACKBONE|DICT|INTERRES
   145   74   75 1    
   146   74  195 1    
   147   75   76 1    
   148   75   77 1    
   149   75  196 1    
   150   76  197 1    
   151   76  198 1    
   152   76  199 1    
   153   77   78 2    
   154   77   79 am   BACKBONE|DICT|INTERRES
   155   79   80 1    
   156   79  200 1    
   157   80   81 1    
   158   80   82 1    
   159   80  201 1    
   160   81  202 1    
   161   81  203 1    
   162   81  204 1    
   163   82   83 2    
   164   82   84 am   BACKBONE|DICT|INTERRES
   165   84   85 1    
   166   84  205 1    
   167   85   86 1    
   168   85   87 1    
   169   85  206 1    
   170   86  207 1    
   171   86  208 1    
   172   86  209 1    
   173   87   88 2    
   174   87   89 am   BACKBONE|DICT|INTERRES
   175   89   90 1    
   176   89  210 1    
   177   90   91 1    
   178   90   92 1    
   179   90  211 1    
   180   91  212 1    
   181   91  213 1    
   182   91  214 1    
   183   92   93 2    
   184   92   94 am   BACKBONE|DICT|INTERRES
   185   94   95 1    
   186   94  215 1    
   187   95   96 1    
   188   95   97 1    
   189   95  216 1    
   190   96  217 1    
   191   96  218 1    
   192   96  219 1    
   193   97   98 2    
   194   97   99 am   BACKBONE|DICT|INTERRES
   195   99  100 1    
   196   99  220 1    
   197  100  101 1    
   198  100  102 1    
   199  100  221 1    
   200  101  222 1    
   201  101  223 1    
   202  101  224 1    
   203  102  103 2    
   204  102  104 am   BACKBONE|DICT|INTERRES
   205  104  105 1    
   206  104  225 1    
   207  105  106 1    
   208  105  107 1    
   209  105  226 1    
   210  106  227 1    
   211  106  228 1    
   212  106  229 1    
   213  107  108 2    
   214  107  109 am   BACKBONE|DICT|INTERRES
   215  109  110 1    
   216  109  230 1    
   217  110  111 1    
   218  110  112 1    
   219  110  231 1    
   220  111  232 1    
   221  111  233 1    
   222  111  234 1    
   223  112  113 2    
   224  112  114 am   BACKBONE|DICT|INTERRES
   225  114  115 1    
   226  114  235 1    
   227  115  116 1    
   228  115  117 1    
   229  115  236 1    
   230  116  237 1    
   231  116  238 1    
   232  116  239 1    
   233  117  118 2    
   234  117  119 am   BACKBONE|DICT|INTERRES
   235  119  120 1    
   236  119  240 1    
   237  120  121 1    
   238  120  124 1    
   239  120  241 1    
   240  121  122 am   BACKBONE|DICT|INTERRES
   241  121  123 2    
   242  122  242 1    
   243  122  243 1    
   244  124  125 1    
   245  124  244 1    
   246  124  245 1    
   247  125  126 1    
   248  126  246 1    
   249  126  247 1    
@<TRIPOS>SUBSTRUCTURE
     1 UNK         1 GROUP             0       ****    0 ROOT    
