@<TRIPOS>MOLECULE
3R540
247   249    1
SMALL
USER_CHARGES


@<TRIPOS>ATOM
      1 CA         -1.0335  -13.9501  -47.9571 C.3       0 UNK        -0.1800 
      2 C           0.1983  -13.0705  -48.1135 C.2       0 UNK         0.5000 
      3 O           0.2901  -12.0172  -47.4842 O.2       0 UNK        -0.5000 
      4 N           1.1417  -13.5019  -48.9594 N.am      1 UNK        -0.5000 
      5 CA          2.3931  -12.7928  -49.2608 C.3       1 UNK         0.1400 
      6 C6          3.0656  -13.3160  -50.5550 C.3       23 UNK        -0.0398 
      7 S7          2.0282  -13.1106  -52.0438 S.3       23 UNK        -0.2404 
      8 C8          1.7742  -14.8332  -52.5785 C.3       23 UNK        -0.0205 
      9 C9          0.6552  -15.5054  -51.7995 C.ar      23 UNK        -0.0193 
     10 C10        -0.6654  -15.4009  -52.2448 C.ar      23 UNK        -0.1150 
     11 C11        -1.7045  -16.0135  -51.5390 C.ar      23 UNK        -0.0193 
     12 C12        -1.4158  -16.7316  -50.3751 C.ar      23 UNK        -0.1150 
     13 C13        -0.0987  -16.8397  -49.9187 C.ar      23 UNK        -0.0193 
     14 C14         0.9338  -16.2327  -50.6393 C.ar      23 UNK        -0.1150 
     15 C15         0.2067  -17.5781  -48.6279 C.3       23 UNK        -0.0205 
     16 S16         1.0872  -19.1413  -48.9263 S.3       23 UNK        -0.2404 
     17 C17         1.1821  -19.7634  -47.2099 C.3       23 UNK        -0.0398 
     18 CA          0.3044  -20.9931  -46.8449 C.3       11 UNK         0.1400 
     19 N           0.1679  -21.1137  -45.3922 N.am      11 UNK        -0.5000 
     20 C          -0.3770  -22.1477  -44.7385 C.2       10 UNK         0.5000 
     21 O          -0.7804  -23.1726  -45.2875 O.2       10 UNK        -0.5000 
     22 CA         -0.5446  -21.9812  -43.2172 C.3       10 UNK         0.1400 
     23 CB          0.7789  -22.2540  -42.4876 C.3       10 UNK        -0.1800 
     24 N          -1.0480  -20.6549  -42.8501 N.am      10 UNK        -0.5000 
     25 C          -2.2511  -20.1807  -43.2063 C.2       9 UNK         0.5000 
     26 O          -3.0767  -20.8293  -43.8476 O.2       9 UNK        -0.5000 
     27 CA         -2.5773  -18.7277  -42.8202 C.3       9 UNK         0.1400 
     28 CB         -2.9948  -18.6365  -41.3450 C.3       9 UNK        -0.1800 
     29 N          -1.4704  -17.8078  -43.0807 N.am      9 UNK        -0.5000 
     30 C          -0.9672  -17.5421  -44.2947 C.2       8 UNK         0.5000 
     31 O          -1.4015  -18.0247  -45.3396 O.2       8 UNK        -0.5000 
     32 CA          0.2697  -16.6292  -44.3486 C.3       8 UNK         0.1400 
     33 CB         -0.1257  -15.1526  -44.1963 C.3       8 UNK        -0.1800 
     34 N           1.2689  -16.9853  -43.3411 N.am      8 UNK        -0.5000 
     35 C           1.8960  -18.1694  -43.2748 C.2       7 UNK         0.5000 
     36 O           1.7344  -19.0798  -44.0862 O.2       7 UNK        -0.5000 
     37 CA          2.8182  -18.3958  -42.0678 C.3       7 UNK         0.1400 
     38 CB          4.1873  -17.7384  -42.2925 C.3       7 UNK        -0.1800 
     39 N           2.2188  -17.8980  -40.8302 N.am      7 UNK        -0.5000 
     40 C           1.1478  -18.4481  -40.2396 C.2       6 UNK         0.5000 
     41 O           0.5774  -19.4563  -40.6565 O.2       6 UNK        -0.5000 
     42 CA          0.5973  -17.7215  -38.9995 C.3       6 UNK         0.1400 
     43 CB          1.3919  -18.1110  -37.7441 C.3       6 UNK        -0.1800 
     44 N           0.6115  -16.2659  -39.1528 N.am      6 UNK        -0.5000 
     45 C          -0.1417  -15.5918  -40.0334 C.2       5 UNK         0.5000 
     46 O          -0.9533  -16.1253  -40.7880 O.2       5 UNK        -0.5000 
     47 CA          0.0829  -14.0715  -40.1164 C.3       5 UNK         0.1400 
     48 CB         -0.7837  -13.3402  -39.0806 C.3       5 UNK        -0.1800 
     49 N           1.4848  -13.6822  -39.9414 N.am      5 UNK        -0.5000 
     50 C           2.4790  -14.0347  -40.7661 C.2       4 UNK         0.5000 
     51 O           2.3328  -14.7720  -41.7441 O.2       4 UNK        -0.5000 
     52 CA          3.8790  -13.5114  -40.4161 C.3       4 UNK         0.1400 
     53 CB          4.7549  -14.6375  -39.8457 C.3       4 UNK        -0.1800 
     54 N           4.5119  -12.9628  -41.6117 N.am      4 UNK        -0.5000 
     55 C           4.3671  -11.6978  -42.0264 C.2       3 UNK         0.5000 
     56 O           3.7462  -10.8382  -41.3992 O.2       3 UNK        -0.5000 
     57 CA          5.0283  -11.3262  -43.3665 C.3       3 UNK         0.1400 
     58 CB          6.4749  -10.8593  -43.1415 C.3       3 UNK        -0.1800 
     59 N           5.0220  -12.4196  -44.3415 N.am      3 UNK        -0.5000 
     60 C           3.9282  -12.8499  -44.9834 C.2       2 UNK         0.5000 
     61 O           2.7958  -12.4049  -44.7851 O.2       2 UNK        -0.5000 
     62 CA          4.1421  -13.9736  -46.0159 C.3       2 UNK         0.1400 
     63 CB          3.8793  -15.3481  -45.3840 C.3       2 UNK        -0.1800 
     64 N           3.2812  -13.8096  -47.1885 N.am      2 UNK        -0.5000 
     65 C           3.4084  -12.8294  -48.0954 C.2       1 UNK         0.5000 
     66 O           4.3031  -11.9829  -48.0559 O.2       1 UNK        -0.5000 
     67 C          -1.0764  -21.0264  -47.5381 C.2       11 UNK         0.5000 
     68 O          -1.2625  -21.8063  -48.4721 O.2       11 UNK        -0.5000 
     69 N          -2.0293  -20.2231  -47.0436 N.am      12 UNK        -0.5000 
     70 CA         -3.4034  -20.1695  -47.5425 C.3       12 UNK         0.1400 
     71 CB         -4.1596  -19.0215  -46.8586 C.3       12 UNK        -0.1800 
     72 C          -4.1546  -21.5032  -47.3778 C.2       12 UNK         0.5000 
     73 O          -4.8465  -21.9206  -48.3050 O.2       12 UNK        -0.5000 
     74 N          -3.9747  -22.1696  -46.2286 N.am      13 UNK        -0.5000 
     75 CA         -4.5210  -23.4980  -45.9475 C.3       13 UNK         0.1400 
     76 CB         -4.2855  -23.8571  -44.4729 C.3       13 UNK        -0.1800 
     77 C          -3.9468  -24.5831  -46.8759 C.2       13 UNK         0.5000 
     78 O          -4.7081  -25.4013  -47.3920 O.2       13 UNK        -0.5000 
     79 N          -2.6268  -24.5488  -47.1076 N.am      14 UNK        -0.5000 
     80 CA         -1.9323  -25.4316  -48.0457 C.3       14 UNK         0.1400 
     81 CB         -0.4134  -25.2533  -47.9039 C.3       14 UNK        -0.1800 
     82 C          -2.3820  -25.2112  -49.5010 C.2       14 UNK         0.5000 
     83 O          -2.6308  -26.1846  -50.2112 O.2       14 UNK        -0.5000 
     84 N          -2.5266  -23.9419  -49.9044 N.am      15 UNK        -0.5000 
     85 CA         -3.0383  -23.5389  -51.2142 C.3       15 UNK         0.1400 
     86 CB         -2.8607  -22.0228  -51.3866 C.3       15 UNK        -0.1800 
     87 C          -4.5043  -23.9593  -51.4339 C.2       15 UNK         0.5000 
     88 O          -4.8468  -24.4040  -52.5268 O.2       15 UNK        -0.5000 
     89 N          -5.3386  -23.8524  -50.3909 N.am      16 UNK        -0.5000 
     90 CA         -6.7272  -24.3156  -50.4001 C.3       16 UNK         0.1400 
     91 CB         -7.4544  -23.7941  -49.1515 C.3       16 UNK        -0.1800 
     92 C          -6.8484  -25.8486  -50.5039 C.2       16 UNK         0.5000 
     93 O          -7.7542  -26.3369  -51.1807 O.2       16 UNK        -0.5000 
     94 N          -5.9391  -26.5771  -49.8407 N.am      17 UNK        -0.5000 
     95 CA         -5.8562  -28.0375  -49.8837 C.3       17 UNK         0.1400 
     96 CB         -4.9601  -28.5336  -48.7382 C.3       17 UNK        -0.1800 
     97 C          -5.3554  -28.5672  -51.2414 C.2       17 UNK         0.5000 
     98 O          -5.8900  -29.5608  -51.7361 O.2       17 UNK        -0.5000 
     99 N          -4.3428  -27.9003  -51.8097 N.am      18 UNK        -0.5000 
    100 CA        -3.7689  -28.1856  -53.1226 C.3       18 UNK         0.1400 
    101 CB        -2.2525  -27.9067  -53.0673 C.3       18 UNK        -0.1800 
    102 C         -4.5174  -27.3846  -54.2094 C.2       18 UNK         0.5000 
    103 O         -5.7050  -27.6272  -54.4327 O.2       18 UNK        -0.5000 
    104 N         -3.8206  -26.4545  -54.8700 N.am      19 UNK        -0.5000 
    105 CA        -4.3677  -25.4819  -55.8085 C.3       19 UNK         0.1400 
    106 CB        -4.0697  -25.9290  -57.2485 C.3       19 UNK        -0.1800 
    107 C         -3.7218  -24.1240  -55.5019 C.2       19 UNK         0.5000 
    108 O         -2.5628  -24.0856  -55.0762 O.2       19 UNK        -0.5000 
    109 N         -4.4801  -23.0442  -55.7129 N.am      20 UNK        -0.5000 
    110 CA        -4.0888  -21.6768  -55.3860 C.3       20 UNK         0.1400 
    111 CB        -5.1077  -21.1017  -54.3855 C.3       20 UNK        -0.1800 
    112 C         -4.0689  -20.8139  -56.6537 C.2       20 UNK         0.5000 
    113 O         -4.9219  -20.9841  -57.5280 O.2       20 UNK        -0.5000 
    114 N         -3.1374  -19.8549  -56.6888 N.am      21 UNK        -0.5000 
    115 CA        -3.0780  -18.7756  -57.6809 C.3       21 UNK         0.1400 
    116 CB        -1.6003  -18.4591  -57.9666 C.3       21 UNK        -0.1800 
    117 C         -3.8252  -17.5100  -57.2020 C.2       21 UNK         0.5000 
    118 O         -3.8568  -16.5116  -57.9221 O.2       21 UNK        -0.5000 
    119 N         -4.3852  -17.5662  -55.9867 N.am      22 UNK        -0.5000 
    120 CA        -5.0307  -16.4625  -55.2581 C.3       22 UNK         0.1400 
    121 C         -6.3897  -15.9771  -55.8446 C.2       22 UNK         0.5000 
    122 N         -7.0035  -16.6839  -56.7856 N.am      22 UNK        -0.7600 
    123 O         -6.8957  -14.9349  -55.4376 O.2       22 UNK        -0.5000 
    124 C124       -5.1806  -16.8022  -53.7499 C.3       23 UNK        -0.0398 
    125 S125       -3.6195  -17.3657  -52.9829 S.3       23 UNK        -0.2404 
    126 C126       -3.1366  -15.8936  -52.0336 C.3       23 UNK        -0.0205 
    127 H127       -1.4995  -14.1302  -48.9259 H         1 UNK         0.0600 
    128 H128       -1.7706  -13.4736  -47.3106 H         1 UNK         0.0600 
    129 H129       -0.7657  -14.9097  -47.5159 H         1 UNK         0.0600 
    130 H130        0.9777  -14.3453  -49.4922 H         1 UNK         0.3000 
    131 H131        2.1436  -11.7415  -49.4207 H         1 UNK         0.0600 
    132 H132        3.9928  -12.7716  -50.7443 H         1 UNK         0.0800 
    133 H133        3.3556  -14.3613  -50.4407 H         1 UNK         0.0800 
    134 H134        2.7028  -15.3989  -52.4884 H         1 UNK         0.0800 
    135 H135        1.5275  -14.8335  -53.6414 H         1 UNK         0.0800 
    136 H136       -0.8841  -14.8415  -53.1437 H         1 UNK         0.1150 
    137 H137       -2.2187  -17.2017  -49.8245 H         1 UNK         0.1150 
    138 H138        1.9532  -16.3271  -50.2917 H         1 UNK         0.1150 
    139 H139        0.8141  -16.9394  -47.9852 H         1 UNK         0.0800 
    140 H140       -0.7149  -17.7813  -48.0796 H         1 UNK         0.0800 
    141 H141        0.9339  -18.9344  -46.5483 H         1 UNK         0.0800 
    142 H142        2.2263  -19.9927  -46.9936 H         1 UNK         0.0800 
    143 H143        0.8388  -21.8814  -47.1882 H         1 UNK         0.0600 
    144 H144        0.5160  -20.3299  -44.8461 H         1 UNK         0.3000 
    145 H145       -1.2753  -22.7200  -42.8816 H         1 UNK         0.0600 
    146 H146        1.5439  -21.5236  -42.7520 H         1 UNK         0.0600 
    147 H147        0.6458  -22.2206  -41.4061 H         1 UNK         0.0600 
    148 H148        1.1665  -23.2424  -42.7375 H         1 UNK         0.0600 
    149 H149       -0.4375  -20.0761  -42.2818 H         1 UNK         0.3000 
    150 H150       -3.4237  -18.4064  -43.4305 H         1 UNK         0.0600 
    151 H151       -3.8240  -19.3118  -41.1305 H         1 UNK         0.0600 
    152 H152       -3.3227  -17.6284  -41.0910 H         1 UNK         0.0600 
    153 H153       -2.1744  -18.8991  -40.6766 H         1 UNK         0.0600 
    154 H154       -1.0834  -17.3267  -42.2732 H         1 UNK         0.3000 
    155 H155        0.7310  -16.7542  -45.3299 H         1 UNK         0.0600 
    156 H156        0.7391  -14.4957  -44.2909 H         1 UNK         0.0600 
    157 H157       -0.8424  -14.8593  -44.9639 H         1 UNK         0.0600 
    158 H158       -0.5866  -14.9567  -43.2288 H         1 UNK         0.0600 
    159 H159        1.4993  -16.2728  -42.6540 H         1 UNK         0.3000 
    160 H160        2.9734  -19.4716  -41.9613 H         1 UNK         0.0600 
    161 H161        4.6684  -18.1405  -43.1850 H         1 UNK         0.0600 
    162 H162        4.8567  -17.9209  -41.4519 H         1 UNK         0.0600 
    163 H163        4.1006  -16.6610  -42.4282 H         1 UNK         0.0600 
    164 H164        2.5935  -17.0400  -40.4552 H         1 UNK         0.3000 
    165 H165       -0.4385  -18.0385  -38.8604 H         1 UNK         0.0600 
    166 H166        0.9606  -17.6611  -36.8497 H         1 UNK         0.0600 
    167 H167        1.3848  -19.1921  -37.5985 H         1 UNK         0.0600 
    168 H168        2.4338  -17.7953  -37.8103 H         1 UNK         0.0600 
    169 H169        1.2516  -15.7482  -38.5692 H         1 UNK         0.3000 
    170 H170       -0.2297  -13.7463  -41.1106 H         1 UNK         0.0600 
    171 H171       -1.8368  -13.5977  -39.2017 H         1 UNK         0.0600 
    172 H172       -0.4978  -13.5982  -38.0601 H         1 UNK         0.0600 
    173 H173       -0.7010  -12.2587  -39.1900 H         1 UNK         0.0600 
    174 H174        1.6882  -13.0784  -39.1578 H         1 UNK         0.3000 
    175 H175        3.7933  -12.7334  -39.6544 H         1 UNK         0.0600 
    176 H176        4.9191  -15.4335  -40.5711 H         1 UNK         0.0600 
    177 H177        5.7313  -14.2580  -39.5439 H         1 UNK         0.0600 
    178 H178        4.2944  -15.0846  -38.9638 H         1 UNK         0.0600 
    179 H179        4.9860  -13.6178  -42.2148 H         1 UNK         0.3000 
    180 H180        4.4665  -10.4903  -43.7894 H         1 UNK         0.0600 
    181 H181        7.0991  -11.6581  -42.7391 H         1 UNK         0.0600 
    182 H182        6.5114  -10.0277  -42.4364 H         1 UNK         0.0600 
    183 H183        6.9275  -10.5144  -44.0715 H         1 UNK         0.0600 
    184 H184        5.9169  -12.8342  -44.5587 H         1 UNK         0.3000 
    185 H185        5.1795  -13.9462  -46.3561 H         1 UNK         0.0600 
    186 H186        4.0292  -16.1543  -46.1023 H         1 UNK         0.0600 
    187 H187        4.5560  -15.5271  -44.5482 H         1 UNK         0.0600 
    188 H188        2.8627  -15.4211  -45.0021 H         1 UNK         0.0600 
    189 H189        2.4938  -14.4340  -47.2676 H         1 UNK         0.3000 
    190 H190       -1.7959  -19.5803  -46.2904 H         1 UNK         0.3000 
    191 H191       -3.3548  -19.9494  -48.6109 H         1 UNK         0.0600 
    192 H192       -4.2086  -19.1591  -45.7783 H         1 UNK         0.0600 
    193 H193       -5.1830  -18.9523  -47.2292 H         1 UNK         0.0600 
    194 H194       -3.6776  -18.0630  -47.0521 H         1 UNK         0.0600 
    195 H195       -3.4355  -21.7316  -45.4862 H         1 UNK         0.3000 
    196 H196       -5.5990  -23.4557  -46.1160 H         1 UNK         0.0600 
    197 H197       -3.2236  -23.8798  -44.2275 H         1 UNK         0.0600 
    198 H198       -4.6987  -24.8390  -44.2391 H         1 UNK         0.0600 
    199 H199       -4.7654  -23.1359  -43.8111 H         1 UNK         0.0600 
    200 H200       -2.0564  -23.8694  -46.6121 H         1 UNK         0.3000 
    201 H201       -2.1771  -26.4612  -47.7766 H         1 UNK         0.0600 
    202 H202       -0.0832  -25.4866  -46.8916 H         1 UNK         0.0600 
    203 H203       -0.1028  -24.2329  -48.1286 H         1 UNK         0.0600 
    204 H204        0.1225  -25.9176  -48.5830 H         1 UNK         0.0600 
    205 H205       -2.2495  -23.1932  -49.2735 H         1 UNK         0.3000 
    206 H206       -2.4334  -24.0385  -51.9741 H         1 UNK         0.0600 
    207 H207       -1.8233  -21.7264  -51.2307 H         1 UNK         0.0600 
    208 H208       -3.1339  -21.7101  -52.3930 H         1 UNK         0.0600 
    209 H209       -3.4777  -21.4606  -50.6854 H         1 UNK         0.0600 
    210 H210       -5.0104  -23.4048  -49.5398 H         1 UNK         0.3000 
    211 H211       -7.2161  -23.8864  -51.2773 H         1 UNK         0.0600 
    212 H212       -6.9946  -24.1615  -48.2340 H         1 UNK         0.0600 
    213 H213       -8.4980  -24.1109  -49.1461 H         1 UNK         0.0600 
    214 H214       -7.4451  -22.7046  -49.1170 H         1 UNK         0.0600 
    215 H215       -5.2681  -26.0978  -49.2497 H         1 UNK         0.3000 
    216 H216       -6.8590  -28.4379  -49.7208 H         1 UNK         0.0600 
    217 H217       -4.9021  -29.6227  -48.7315 H         1 UNK         0.0600 
    218 H218       -5.3511  -28.2221  -47.7694 H         1 UNK         0.0600 
    219 H219       -3.9430  -28.1511  -48.8256 H         1 UNK         0.0600 
    220 H220       -3.9370  -27.1168  -51.3057 H         1 UNK         0.3000 
    221 H221       -3.8998  -29.2436  -53.3584 H         1 UNK         0.0600 
    222 H222       -2.0353  -26.8659  -52.8229 H         1 UNK         0.0600 
    223 H223       -1.7727  -28.5257  -52.3089 H         1 UNK         0.0600 
    224 H224       -1.7722  -28.1380  -54.0189 H         1 UNK         0.0600 
    225 H225       -2.8683  -26.2612  -54.5882 H         1 UNK         0.3000 
    226 H226       -5.4473  -25.3903  -55.6703 H         1 UNK         0.0600 
    227 H227       -4.5289  -26.8941  -57.4631 H         1 UNK         0.0600 
    228 H228       -4.4645  -25.2123  -57.9696 H         1 UNK         0.0600 
    229 H229       -2.9976  -26.0207  -57.4272 H         1 UNK         0.0600 
    230 H230       -5.3916  -23.1478  -56.1365 H         1 UNK         0.3000 
    231 H231       -3.0984  -21.6557  -54.9264 H         1 UNK         0.0600 
    232 H232       -4.7920  -20.1242  -54.0206 H         1 UNK         0.0600 
    233 H233       -5.2223  -21.7494  -53.5169 H         1 UNK         0.0600 
    234 H234       -6.0945  -20.9830  -54.8353 H         1 UNK         0.0600 
    235 H235       -2.4671  -19.7951  -55.9347 H         1 UNK         0.3000 
    236 H236       -3.5442  -19.0986  -58.6140 H         1 UNK         0.0600 
    237 H237       -1.5042  -17.6915  -58.7356 H         1 UNK         0.0600 
    238 H238       -1.0707  -19.3421  -58.3249 H         1 UNK         0.0600 
    239 H239       -1.0860  -18.0973  -57.0753 H         1 UNK         0.0600 
    240 H240       -4.2977  -18.4273  -55.4716 H         1 UNK         0.3000 
    241 H241       -4.3573  -15.6065  -55.3325 H         1 UNK         0.0600 
    242 H242       -7.8807  -16.3575  -57.1603 H         1 UNK         0.3800 
    243 H243       -6.5944  -17.5356  -57.1352 H         1 UNK         0.3800 
    244 H244       -5.9191  -17.5945  -53.6156 H         1 UNK         0.0800 
    245 H245       -5.5619  -15.9413  -53.1977 H         1 UNK         0.0800 
    246 H246       -3.8150  -15.7652  -51.1887 H         1 UNK         0.0800 
    247 H247       -3.2445  -15.0049  -52.6576 H         1 UNK         0.0800 
@<TRIPOS>BOND
     1    1    2 1    
     2    1  127 1    
     3    1  128 1    
     4    1  129 1    
     5    2    3 2    
     6    2    4 am   BACKBONE|DICT|INTERRES
     7    4    5 1    
     8    4  130 1    
     9    5    6 1    
    10    5   65 1    
    11    5  131 1    
    12    6    7 1    
    13    6  132 1    
    14    6  133 1    
    15    7    8 1    
    16    8    9 1    
    17    8  134 1    
    18    8  135 1    
    19    9   10 ar   
    20    9   14 ar   
    21   10   11 ar   
    22   10  136 1    
    23   11   12 ar   
    24   11  126 1    
    25   12   13 ar   
    26   12  137 1    
    27   13   14 ar   
    28   13   15 1    
    29   14  138 1    
    30   15   16 1    
    31   15  139 1    
    32   15  140 1    
    33   16   17 1    
    34   17   18 1    
    35   17  141 1    
    36   17  142 1    
    37   18   19 1    
    38   18   67 1    
    39   18  143 1    
    40   19   20 am   BACKBONE|DICT|INTERRES
    41   19  144 1    
    42   20   21 2    
    43   20   22 1    
    44   22   23 1    
    45   22   24 1    
    46   22  145 1    
    47   23  146 1    
    48   23  147 1    
    49   23  148 1    
    50   24   25 am   BACKBONE|DICT|INTERRES
    51   24  149 1    
    52   25   26 2    
    53   25   27 1    
    54   27   28 1    
    55   27   29 1    
    56   27  150 1    
    57   28  151 1    
    58   28  152 1    
    59   28  153 1    
    60   29   30 am   BACKBONE|DICT|INTERRES
    61   29  154 1    
    62   30   31 2    
    63   30   32 1    
    64   32   33 1    
    65   32   34 1    
    66   32  155 1    
    67   33  156 1    
    68   33  157 1    
    69   33  158 1    
    70   34   35 am   BACKBONE|DICT|INTERRES
    71   34  159 1    
    72   35   36 2    
    73   35   37 1    
    74   37   38 1    
    75   37   39 1    
    76   37  160 1    
    77   38  161 1    
    78   38  162 1    
    79   38  163 1    
    80   39   40 am   BACKBONE|DICT|INTERRES
    81   39  164 1    
    82   40   41 2    
    83   40   42 1    
    84   42   43 1    
    85   42   44 1    
    86   42  165 1    
    87   43  166 1    
    88   43  167 1    
    89   43  168 1    
    90   44   45 am   BACKBONE|DICT|INTERRES
    91   44  169 1    
    92   45   46 2    
    93   45   47 1    
    94   47   48 1    
    95   47   49 1    
    96   47  170 1    
    97   48  171 1    
    98   48  172 1    
    99   48  173 1    
   100   49   50 am   BACKBONE|DICT|INTERRES
   101   49  174 1    
   102   50   51 2    
   103   50   52 1    
   104   52   53 1    
   105   52   54 1    
   106   52  175 1    
   107   53  176 1    
   108   53  177 1    
   109   53  178 1    
   110   54   55 am   BACKBONE|DICT|INTERRES
   111   54  179 1    
   112   55   56 2    
   113   55   57 1    
   114   57   58 1    
   115   57   59 1    
   116   57  180 1    
   117   58  181 1    
   118   58  182 1    
   119   58  183 1    
   120   59   60 am   BACKBONE|DICT|INTERRES
   121   59  184 1    
   122   60   61 2    
   123   60   62 1    
   124   62   63 1    
   125   62   64 1    
   126   62  185 1    
   127   63  186 1    
   128   63  187 1    
   129   63  188 1    
   130   64   65 am   BACKBONE|DICT|INTERRES
   131   64  189 1    
   132   65   66 2    
   133   67   68 2    
   134   67   69 am   BACKBONE|DICT|INTERRES
   135   69   70 1    
   136   69  190 1    
   137   70   71 1    
   138   70   72 1    
   139   70  191 1    
   140   71  192 1    
   141   71  193 1    
   142   71  194 1    
   143   72   73 2    
   144   72   74 am   BACKBONE|DICT|INTERRES
   145   74   75 1    
   146   74  195 1    
   147   75   76 1    
   148   75   77 1    
   149   75  196 1    
   150   76  197 1    
   151   76  198 1    
   152   76  199 1    
   153   77   78 2    
   154   77   79 am   BACKBONE|DICT|INTERRES
   155   79   80 1    
   156   79  200 1    
   157   80   81 1    
   158   80   82 1    
   159   80  201 1    
   160   81  202 1    
   161   81  203 1    
   162   81  204 1    
   163   82   83 2    
   164   82   84 am   BACKBONE|DICT|INTERRES
   165   84   85 1    
   166   84  205 1    
   167   85   86 1    
   168   85   87 1    
   169   85  206 1    
   170   86  207 1    
   171   86  208 1    
   172   86  209 1    
   173   87   88 2    
   174   87   89 am   BACKBONE|DICT|INTERRES
   175   89   90 1    
   176   89  210 1    
   177   90   91 1    
   178   90   92 1    
   179   90  211 1    
   180   91  212 1    
   181   91  213 1    
   182   91  214 1    
   183   92   93 2    
   184   92   94 am   BACKBONE|DICT|INTERRES
   185   94   95 1    
   186   94  215 1    
   187   95   96 1    
   188   95   97 1    
   189   95  216 1    
   190   96  217 1    
   191   96  218 1    
   192   96  219 1    
   193   97   98 2    
   194   97   99 am   BACKBONE|DICT|INTERRES
   195   99  100 1    
   196   99  220 1    
   197  100  101 1    
   198  100  102 1    
   199  100  221 1    
   200  101  222 1    
   201  101  223 1    
   202  101  224 1    
   203  102  103 2    
   204  102  104 am   BACKBONE|DICT|INTERRES
   205  104  105 1    
   206  104  225 1    
   207  105  106 1    
   208  105  107 1    
   209  105  226 1    
   210  106  227 1    
   211  106  228 1    
   212  106  229 1    
   213  107  108 2    
   214  107  109 am   BACKBONE|DICT|INTERRES
   215  109  110 1    
   216  109  230 1    
   217  110  111 1    
   218  110  112 1    
   219  110  231 1    
   220  111  232 1    
   221  111  233 1    
   222  111  234 1    
   223  112  113 2    
   224  112  114 am   BACKBONE|DICT|INTERRES
   225  114  115 1    
   226  114  235 1    
   227  115  116 1    
   228  115  117 1    
   229  115  236 1    
   230  116  237 1    
   231  116  238 1    
   232  116  239 1    
   233  117  118 2    
   234  117  119 am   BACKBONE|DICT|INTERRES
   235  119  120 1    
   236  119  240 1    
   237  120  121 1    
   238  120  124 1    
   239  120  241 1    
   240  121  122 am   BACKBONE|DICT|INTERRES
   241  121  123 2    
   242  122  242 1    
   243  122  243 1    
   244  124  125 1    
   245  124  244 1    
   246  124  245 1    
   247  125  126 1    
   248  126  246 1    
   249  126  247 1    
@<TRIPOS>SUBSTRUCTURE
     1 UNK         1 GROUP             0       ****    0 ROOT    
