@<TRIPOS>MOLECULE
3R540
247   249    1
SMALL
USER_CHARGES


@<TRIPOS>ATOM
      1 CA          2.3464  -15.0403  -49.9596 C.3       0 UNK        -0.1800 
      2 C           2.5019  -14.6075  -48.5097 C.2       0 UNK         0.5000 
      3 O           3.5240  -14.8993  -47.8889 O.2       0 UNK        -0.5000 
      4 N           1.5068  -13.8875  -47.9731 N.am      1 UNK        -0.5000 
      5 CA          1.4427  -13.4150  -46.5796 C.3       1 UNK         0.1400 
      6 C6          0.0389  -12.8426  -46.2276 C.3       23 UNK        -0.0398 
      7 S7         -0.8355  -13.8673  -44.9956 S.3       23 UNK        -0.2404 
      8 C8         -2.4956  -13.9991  -45.7477 C.3       23 UNK        -0.0205 
      9 C9         -2.6579  -15.0153  -46.8813 C.ar      23 UNK        -0.0193 
     10 C10        -3.9457  -15.2308  -47.3803 C.ar      23 UNK        -0.1150 
     11 C11        -4.1719  -16.1390  -48.4165 C.ar      23 UNK        -0.0193 
     12 C12        -3.0977  -16.8535  -48.9496 C.ar      23 UNK        -0.1150 
     13 C13        -1.8017  -16.6629  -48.4644 C.ar      23 UNK        -0.0193 
     14 C14        -1.5888  -15.7303  -47.4401 C.ar      23 UNK        -0.1150 
     15 C15        -0.6622  -17.4691  -49.0885 C.3       23 UNK        -0.0205 
     16 S16         0.7585  -17.8167  -47.9935 S.3       23 UNK        -0.2404 
     17 C17        -0.0239  -18.6234  -46.5587 C.3       23 UNK        -0.0398 
     18 CA         -0.0064  -20.1658  -46.6501 C.3       11 UNK         0.1400 
     19 N          -0.0045  -20.7817  -45.3231 N.am      11 UNK        -0.5000 
     20 C           0.1122  -22.0940  -45.0796 C.2       10 UNK         0.5000 
     21 O           0.3071  -22.9407  -45.9505 O.2       10 UNK        -0.5000 
     22 CA         -0.0791  -22.5361  -43.6195 C.3       10 UNK         0.1400 
     23 CB          1.2279  -22.3884  -42.8277 C.3       10 UNK        -0.1800 
     24 N          -1.1468  -21.7791  -42.9636 N.am      10 UNK        -0.5000 
     25 C          -2.4477  -21.9014  -43.2654 C.2       9 UNK         0.5000 
     26 O          -2.8848  -22.7026  -44.0911 O.2       9 UNK        -0.5000 
     27 CA         -3.4154  -20.9348  -42.5590 C.3       9 UNK         0.1400 
     28 CB         -3.7658  -21.4460  -41.1538 C.3       9 UNK        -0.1800 
     29 N          -2.8826  -19.5746  -42.4640 N.am      9 UNK        -0.5000 
     30 C          -2.6591  -18.7738  -43.5160 C.2       8 UNK         0.5000 
     31 O          -2.9011  -19.0924  -44.6782 O.2       8 UNK        -0.5000 
     32 CA         -2.0159  -17.4063  -43.2256 C.3       8 UNK         0.1400 
     33 CB         -3.0947  -16.3680  -42.8885 C.3       8 UNK        -0.1800 
     34 N          -1.0341  -17.4470  -42.1409 N.am      8 UNK        -0.5000 
     35 C           0.0937  -18.1685  -42.1348 C.2       7 UNK         0.5000 
     36 O           0.4058  -18.9341  -43.0494 O.2       7 UNK        -0.5000 
     37 CA          1.0027  -18.0261  -40.8926 C.3       7 UNK         0.1400 
     38 CB          2.3889  -18.6604  -41.1037 C.3       7 UNK        -0.1800 
     39 N           1.1970  -16.6363  -40.4772 N.am      7 UNK        -0.5000 
     40 C           0.3332  -15.8532  -39.8219 C.2       6 UNK         0.5000 
     41 O          -0.7914  -16.2297  -39.4904 O.2       6 UNK        -0.5000 
     42 CA          0.7602  -14.3989  -39.5204 C.3       6 UNK         0.1400 
     43 CB          1.2699  -14.2582  -38.0732 C.3       6 UNK        -0.1800 
     44 N           1.7070  -13.8182  -40.4866 N.am      6 UNK        -0.5000 
     45 C           2.9842  -14.1518  -40.7169 C.2       5 UNK         0.5000 
     46 O           3.6029  -15.0093  -40.0835 O.2       5 UNK        -0.5000 
     47 CA          3.6650  -13.4577  -41.9087 C.3       5 UNK         0.1400 
     48 CB          4.8141  -12.5512  -41.4428 C.3       5 UNK        -0.1800 
     49 N           4.1819  -14.4351  -42.8660 N.am      5 UNK        -0.5000 
     50 C           3.4458  -15.3300  -43.5381 C.2       4 UNK         0.5000 
     51 O           2.2218  -15.4209  -43.4360 O.2       4 UNK        -0.5000 
     52 CA          4.2139  -16.2553  -44.5015 C.3       4 UNK         0.1400 
     53 CB          3.2890  -17.2445  -45.2315 C.3       4 UNK        -0.1800 
     54 N           4.9490  -15.4786  -45.4986 N.am      4 UNK        -0.5000 
     55 C           6.1576  -14.9285  -45.3232 C.2       3 UNK         0.5000 
     56 O           6.8024  -15.0213  -44.2780 O.2       3 UNK        -0.5000 
     57 CA          6.7116  -14.1009  -46.4923 C.3       3 UNK         0.1400 
     58 CB          7.1097  -15.0060  -47.6695 C.3       3 UNK        -0.1800 
     59 N           5.7111  -13.1341  -46.9377 N.am      3 UNK        -0.5000 
     60 C           5.6603  -11.8519  -46.5494 C.2       2 UNK         0.5000 
     61 O           6.5111  -11.3161  -45.8380 O.2       2 UNK        -0.5000 
     62 CA          4.4478  -11.0257  -47.0264 C.3       2 UNK         0.1400 
     63 CB          4.7685  -10.3114  -48.3480 C.3       2 UNK        -0.1800 
     64 N           3.2439  -11.8392  -47.2028 N.am      2 UNK        -0.5000 
     65 C           2.5652  -12.4184  -46.2020 C.2       1 UNK         0.5000 
     66 O           2.8068  -12.2030  -45.0152 O.2       1 UNK        -0.5000 
     67 C          -1.1664  -20.6945  -47.5190 C.2       11 UNK         0.5000 
     68 O          -0.9306  -21.1345  -48.6432 O.2       11 UNK        -0.5000 
     69 N          -2.3868  -20.6928  -46.9635 N.am      12 UNK        -0.5000 
     70 CA         -3.5943  -21.2226  -47.5960 C.3       12 UNK         0.1400 
     71 CB         -4.8131  -20.9167  -46.7142 C.3       12 UNK        -0.1800 
     72 C          -3.5023  -22.7299  -47.8921 C.2       12 UNK         0.5000 
     73 O          -3.9322  -23.1573  -48.9614 O.2       12 UNK        -0.5000 
     74 N          -2.9154  -23.5006  -46.9647 N.am      13 UNK        -0.5000 
     75 CA         -2.6551  -24.9317  -47.1256 C.3       13 UNK         0.1400 
     76 CB         -2.2166  -25.5346  -45.7829 C.3       13 UNK        -0.1800 
     77 C          -1.6208  -25.2335  -48.2264 C.2       13 UNK         0.5000 
     78 O          -1.8071  -26.1858  -48.9822 O.2       13 UNK        -0.5000 
     79 N          -0.5666  -24.4118  -48.3218 N.am      14 UNK        -0.5000 
     80 CA          0.4489  -24.4929  -49.3743 C.3       14 UNK         0.1400 
     81 CB          1.6547  -23.6218  -48.9900 C.3       14 UNK        -0.1800 
     82 C          -0.1000  -24.0896  -50.7567 C.2       14 UNK         0.5000 
     83 O           0.2569  -24.7067  -51.7603 O.2       14 UNK        -0.5000 
     84 N          -0.9708  -23.0732  -50.7780 N.am      15 UNK        -0.5000 
     85 CA         -1.6445  -22.5566  -51.9685 C.3       15 UNK         0.1400 
     86 CB         -2.1072  -21.1191  -51.6801 C.3       15 UNK        -0.1800 
     87 C          -2.8242  -23.4248  -52.4507 C.2       15 UNK         0.5000 
     88 O          -3.3661  -23.1481  -53.5234 O.2       15 UNK        -0.5000 
     89 N          -3.2391  -24.4294  -51.6659 N.am      16 UNK        -0.5000 
     90 CA         -4.3313  -25.3500  -51.9871 C.3       16 UNK         0.1400 
     91 CB         -4.5685  -26.3074  -50.8120 C.3       16 UNK        -0.1800 
     92 C          -4.0519  -26.1288  -53.2839 C.2       16 UNK         0.5000 
     93 O          -2.9436  -26.6382  -53.4623 O.2       16 UNK        -0.5000 
     94 N          -5.0456  -26.1530  -54.1827 N.am      17 UNK        -0.5000 
     95 CA         -5.0344  -26.6897  -55.5530 C.3       17 UNK         0.1400 
     96 CB         -4.7373  -28.2012  -55.5686 C.3       17 UNK        -0.1800 
     97 C          -4.1152  -25.9303  -56.5356 C.2       17 UNK         0.5000 
     98 O          -4.5059  -25.7306  -57.6855 O.2       17 UNK        -0.5000 
     99 N          -2.9338  -25.5025  -56.0733 N.am      18 UNK        -0.5000 
    100 CA        -1.9326  -24.7505  -56.8306 C.3       18 UNK         0.1400 
    101 CB        -0.6412  -24.6629  -56.0020 C.3       18 UNK        -0.1800 
    102 C         -2.4120  -23.3448  -57.2358 C.2       18 UNK         0.5000 
    103 O         -2.1962  -22.9338  -58.3766 O.2       18 UNK        -0.5000 
    104 N         -3.0631  -22.6468  -56.2985 N.am      19 UNK        -0.5000 
    105 CA        -3.6303  -21.3091  -56.4745 C.3       19 UNK         0.1400 
    106 CB        -2.6660  -20.2715  -55.8728 C.3       19 UNK        -0.1800 
    107 C         -5.0463  -21.2162  -55.8711 C.2       19 UNK         0.5000 
    108 O         -5.5413  -20.1107  -55.6500 O.2       19 UNK        -0.5000 
    109 N         -5.6720  -22.3785  -55.6230 N.am      20 UNK        -0.5000 
    110 CA        -7.0088  -22.5710  -55.0481 C.3       20 UNK         0.1400 
    111 CB        -8.0985  -22.0435  -56.0048 C.3       20 UNK        -0.1800 
    112 C         -7.1493  -22.0207  -53.6117 C.2       20 UNK         0.5000 
    113 O         -8.2191  -21.5304  -53.2424 O.2       20 UNK        -0.5000 
    114 N         -6.0683  -22.1281  -52.8232 N.am      21 UNK        -0.5000 
    115 CA        -5.9365  -21.6613  -51.4392 C.3       21 UNK         0.1400 
    116 CB        -6.8248  -22.4932  -50.4852 C.3       21 UNK        -0.1800 
    117 C         -6.1580  -20.1395  -51.3456 C.2       21 UNK         0.5000 
    118 O         -5.2927  -19.3808  -51.7836 O.2       21 UNK        -0.5000 
    119 N         -7.3123  -19.7337  -50.8087 N.am      22 UNK        -0.5000 
    120 CA        -7.7920  -18.3452  -50.7596 C.3       22 UNK         0.1400 
    121 C         -9.1124  -18.1454  -51.5618 C.2       22 UNK         0.5000 
    122 N         -9.5485  -19.0916  -52.3865 N.am      22 UNK        -0.7600 
    123 O         -9.7533  -17.1037  -51.4509 O.2       22 UNK        -0.5000 
    124 C124       -7.9099  -17.8229  -49.3016 C.3       23 UNK        -0.0398 
    125 S125       -6.3300  -17.8704  -48.3887 S.3       23 UNK        -0.2404 
    126 C126       -5.5693  -16.3299  -48.9819 C.3       23 UNK        -0.0205 
    127 H127        3.1106  -14.5687  -50.5748 H         1 UNK         0.0600 
    128 H128        1.3696  -14.7722  -50.3596 H         1 UNK         0.0600 
    129 H129        2.4612  -16.1203  -50.0419 H         1 UNK         0.0600 
    130 H130        0.7044  -13.6683  -48.5455 H         1 UNK         0.3000 
    131 H131        1.6320  -14.2952  -45.9617 H         1 UNK         0.0600 
    132 H132        0.0891  -11.8302  -45.8192 H         1 UNK         0.0800 
    133 H133       -0.5792  -12.7489  -47.1225 H         1 UNK         0.0800 
    134 H134       -3.1961  -14.2582  -44.9539 H         1 UNK         0.0800 
    135 H135       -2.8016  -13.0150  -46.1056 H         1 UNK         0.0800 
    136 H136       -4.7781  -14.6806  -46.9639 H         1 UNK         0.1150 
    137 H137       -3.2765  -17.5602  -49.7486 H         1 UNK         0.1150 
    138 H138       -0.5862  -15.5777  -47.0741 H         1 UNK         0.1150 
    139 H139       -1.0425  -18.4205  -49.4634 H         1 UNK         0.0800 
    140 H140       -0.2968  -16.9246  -49.9596 H         1 UNK         0.0800 
    141 H141       -1.0308  -18.2405  -46.3940 H         1 UNK         0.0800 
    142 H142        0.5473  -18.2991  -45.6886 H         1 UNK         0.0800 
    143 H143        0.9271  -20.4732  -47.1266 H         1 UNK         0.0600 
    144 H144       -0.1052  -20.1545  -44.5311 H         1 UNK         0.3000 
    145 H145       -0.3590  -23.5916  -43.6191 H         1 UNK         0.0600 
    146 H146        1.1000  -22.6934  -41.7890 H         1 UNK         0.0600 
    147 H147        2.0122  -23.0132  -43.2566 H         1 UNK         0.0600 
    148 H148        1.5903  -21.3610  -42.8367 H         1 UNK         0.0600 
    149 H149       -0.8630  -21.0630  -42.3119 H         1 UNK         0.3000 
    150 H150       -4.3347  -20.8972  -43.1473 H         1 UNK         0.0600 
    151 H151       -4.1799  -22.4543  -41.1981 H         1 UNK         0.0600 
    152 H152       -4.5126  -20.8102  -40.6781 H         1 UNK         0.0600 
    153 H153       -2.8899  -21.4790  -40.5048 H         1 UNK         0.0600 
    154 H154       -2.6538  -19.2335  -41.5420 H         1 UNK         0.3000 
    155 H155       -1.4980  -17.0817  -44.1305 H         1 UNK         0.0600 
    156 H156       -3.6285  -16.6236  -41.9725 H         1 UNK         0.0600 
    157 H157       -2.6594  -15.3773  -42.7567 H         1 UNK         0.0600 
    158 H158       -3.8312  -16.2980  -43.6900 H         1 UNK         0.0600 
    159 H159       -1.2196  -16.8688  -41.3286 H         1 UNK         0.3000 
    160 H160        0.5118  -18.5609  -40.0774 H         1 UNK         0.0600 
    161 H161        2.9156  -18.2021  -41.9414 H         1 UNK         0.0600 
    162 H162        2.3074  -19.7278  -41.3069 H         1 UNK         0.0600 
    163 H163        3.0127  -18.5507  -40.2164 H         1 UNK         0.0600 
    164 H164        2.0967  -16.2287  -40.7015 H         1 UNK         0.3000 
    165 H165       -0.1447  -13.7951  -39.6046 H         1 UNK         0.0600 
    166 H166        1.5272  -13.2242  -37.8438 H         1 UNK         0.0600 
    167 H167        0.5036  -14.5677  -37.3614 H         1 UNK         0.0600 
    168 H168        2.1502  -14.8736  -37.8867 H         1 UNK         0.0600 
    169 H169        1.2938  -13.1364  -41.1081 H         1 UNK         0.3000 
    170 H170        2.9297  -12.8392  -42.4266 H         1 UNK         0.0600 
    171 H171        4.4570  -11.8002  -40.7371 H         1 UNK         0.0600 
    172 H172        5.6013  -13.1211  -40.9474 H         1 UNK         0.0600 
    173 H173        5.2616  -12.0207  -42.2839 H         1 UNK         0.0600 
    174 H174        5.1831  -14.4407  -43.0171 H         1 UNK         0.3000 
    175 H175        4.9183  -16.8381  -43.9044 H         1 UNK         0.0600 
    176 H176        2.5492  -16.7210  -45.8373 H         1 UNK         0.0600 
    177 H177        3.8532  -17.9043  -45.8903 H         1 UNK         0.0600 
    178 H178        2.7496  -17.8748  -44.5234 H         1 UNK         0.0600 
    179 H179        4.4654  -15.3214  -46.3803 H         1 UNK         0.3000 
    180 H180        7.6106  -13.5856  -46.1474 H         1 UNK         0.0600 
    181 H181        6.2549  -15.5476  -48.0762 H         1 UNK         0.0600 
    182 H182        7.8500  -15.7447  -47.3600 H         1 UNK         0.0600 
    183 H183        7.5502  -14.4238  -48.4789 H         1 UNK         0.0600 
    184 H184        4.9400  -13.5109  -47.4776 H         1 UNK         0.3000 
    185 H185        4.2419  -10.2674  -46.2677 H         1 UNK         0.0600 
    186 H186        5.6493   -9.6762  -48.2443 H         1 UNK         0.0600 
    187 H187        4.9686  -11.0214  -49.1518 H         1 UNK         0.0600 
    188 H188        3.9433   -9.6719  -48.6613 H         1 UNK         0.0600 
    189 H189        2.9737  -12.0554  -48.1510 H         1 UNK         0.3000 
    190 H190       -2.5108  -20.2645  -46.0485 H         1 UNK         0.3000 
    191 H191       -3.7250  -20.7008  -48.5461 H         1 UNK         0.0600 
    192 H192       -4.7452  -21.4130  -45.7458 H         1 UNK         0.0600 
    193 H193       -5.7350  -21.2485  -47.1929 H         1 UNK         0.0600 
    194 H194       -4.9079  -19.8462  -46.5327 H         1 UNK         0.0600 
    195 H195       -2.6425  -23.0832  -46.0812 H         1 UNK         0.3000 
    196 H196       -3.5935  -25.4083  -47.4169 H         1 UNK         0.0600 
    197 H197       -2.0496  -26.6085  -45.8737 H         1 UNK         0.0600 
    198 H198       -2.9783  -25.3875  -45.0172 H         1 UNK         0.0600 
    199 H199       -1.2899  -25.0880  -45.4233 H         1 UNK         0.0600 
    200 H200       -0.4442  -23.6850  -47.6229 H         1 UNK         0.3000 
    201 H201        0.7879  -25.5288  -49.4404 H         1 UNK         0.0600 
    202 H202        2.0901  -23.9478  -48.0453 H         1 UNK         0.0600 
    203 H203        1.3779  -22.5725  -48.8844 H         1 UNK         0.0600 
    204 H204        2.4370  -23.6812  -49.7475 H         1 UNK         0.0600 
    205 H205       -1.1478  -22.5732  -49.9106 H         1 UNK         0.3000 
    206 H206       -0.9253  -22.5206  -52.7892 H         1 UNK         0.0600 
    207 H207       -1.2548  -20.4586  -51.5207 H         1 UNK         0.0600 
    208 H208       -2.6879  -20.7068  -52.5051 H         1 UNK         0.0600 
    209 H209       -2.7310  -21.0699  -50.7881 H         1 UNK         0.0600 
    210 H210       -2.7611  -24.5825  -50.7892 H         1 UNK         0.3000 
    211 H211       -5.2327  -24.7515  -52.1222 H         1 UNK         0.0600 
    212 H212       -3.7159  -26.9686  -50.6558 H         1 UNK         0.0600 
    213 H213       -5.4407  -26.9366  -50.9925 H         1 UNK         0.0600 
    214 H214       -4.7463  -25.7608  -49.8855 H         1 UNK         0.0600 
    215 H215       -5.9137  -25.7084  -53.9216 H         1 UNK         0.3000 
    216 H216       -6.0526  -26.5586  -55.9232 H         1 UNK         0.0600 
    217 H217       -4.8572  -28.6088  -56.5731 H         1 UNK         0.0600 
    218 H218       -5.4195  -28.7440  -54.9145 H         1 UNK         0.0600 
    219 H219       -3.7186  -28.4229  -55.2501 H         1 UNK         0.0600 
    220 H220       -2.6969  -25.7506  -55.1167 H         1 UNK         0.3000 
    221 H221       -1.7163  -25.3062  -57.7452 H         1 UNK         0.0600 
    222 H222       -0.8055  -24.1558  -55.0502 H         1 UNK         0.0600 
    223 H223       -0.2441  -25.6549  -55.7862 H         1 UNK         0.0600 
    224 H224        0.1326  -24.1129  -56.5392 H         1 UNK         0.0600 
    225 H225       -3.1537  -23.0357  -55.3620 H         1 UNK         0.3000 
    226 H226       -3.7465  -21.0915  -57.5379 H         1 UNK         0.0600 
    227 H227       -1.6860  -20.3245  -56.3471 H         1 UNK         0.0600 
    228 H228       -3.0375  -19.2557  -56.0123 H         1 UNK         0.0600 
    229 H229       -2.5284  -20.4297  -54.8040 H         1 UNK         0.0600 
    230 H230       -5.1719  -23.2215  -55.8630 H         1 UNK         0.3000 
    231 H231       -7.1477  -23.6496  -54.9654 H         1 UNK         0.0600 
    232 H232       -9.0939  -22.3194  -55.6546 H         1 UNK         0.0600 
    233 H233       -7.9813  -22.4608  -57.0048 H         1 UNK         0.0600 
    234 H234       -8.0730  -20.9567  -56.0890 H         1 UNK         0.0600 
    235 H235       -5.2125  -22.4788  -53.2411 H         1 UNK         0.3000 
    236 H236       -4.9036  -21.8352  -51.1447 H         1 UNK         0.0600 
    237 H237       -7.8824  -22.4472  -50.7445 H         1 UNK         0.0600 
    238 H238       -6.5295  -23.5418  -50.4964 H         1 UNK         0.0600 
    239 H239       -6.7182  -22.1493  -49.4557 H         1 UNK         0.0600 
    240 H240       -7.9741  -20.4338  -50.5068 H         1 UNK         0.3000 
    241 H241       -7.0780  -17.7024  -51.2757 H         1 UNK         0.0600 
    242 H242      -10.4029  -18.9383  -52.8978 H         1 UNK         0.3800 
    243 H243       -9.0157  -19.9411  -52.5575 H         1 UNK         0.3800 
    244 H244       -8.2833  -16.7977  -49.2827 H         1 UNK         0.0800 
    245 H245       -8.6378  -18.4182  -48.7487 H         1 UNK         0.0800 
    246 H246       -5.5135  -16.3460  -50.0709 H         1 UNK         0.0800 
    247 H247       -6.2071  -15.4854  -48.7169 H         1 UNK         0.0800 
@<TRIPOS>BOND
     1    1    2 1    
     2    1  127 1    
     3    1  128 1    
     4    1  129 1    
     5    2    3 2    
     6    2    4 am   BACKBONE|DICT|INTERRES
     7    4    5 1    
     8    4  130 1    
     9    5    6 1    
    10    5   65 1    
    11    5  131 1    
    12    6    7 1    
    13    6  132 1    
    14    6  133 1    
    15    7    8 1    
    16    8    9 1    
    17    8  134 1    
    18    8  135 1    
    19    9   10 ar   
    20    9   14 ar   
    21   10   11 ar   
    22   10  136 1    
    23   11   12 ar   
    24   11  126 1    
    25   12   13 ar   
    26   12  137 1    
    27   13   14 ar   
    28   13   15 1    
    29   14  138 1    
    30   15   16 1    
    31   15  139 1    
    32   15  140 1    
    33   16   17 1    
    34   17   18 1    
    35   17  141 1    
    36   17  142 1    
    37   18   19 1    
    38   18   67 1    
    39   18  143 1    
    40   19   20 am   BACKBONE|DICT|INTERRES
    41   19  144 1    
    42   20   21 2    
    43   20   22 1    
    44   22   23 1    
    45   22   24 1    
    46   22  145 1    
    47   23  146 1    
    48   23  147 1    
    49   23  148 1    
    50   24   25 am   BACKBONE|DICT|INTERRES
    51   24  149 1    
    52   25   26 2    
    53   25   27 1    
    54   27   28 1    
    55   27   29 1    
    56   27  150 1    
    57   28  151 1    
    58   28  152 1    
    59   28  153 1    
    60   29   30 am   BACKBONE|DICT|INTERRES
    61   29  154 1    
    62   30   31 2    
    63   30   32 1    
    64   32   33 1    
    65   32   34 1    
    66   32  155 1    
    67   33  156 1    
    68   33  157 1    
    69   33  158 1    
    70   34   35 am   BACKBONE|DICT|INTERRES
    71   34  159 1    
    72   35   36 2    
    73   35   37 1    
    74   37   38 1    
    75   37   39 1    
    76   37  160 1    
    77   38  161 1    
    78   38  162 1    
    79   38  163 1    
    80   39   40 am   BACKBONE|DICT|INTERRES
    81   39  164 1    
    82   40   41 2    
    83   40   42 1    
    84   42   43 1    
    85   42   44 1    
    86   42  165 1    
    87   43  166 1    
    88   43  167 1    
    89   43  168 1    
    90   44   45 am   BACKBONE|DICT|INTERRES
    91   44  169 1    
    92   45   46 2    
    93   45   47 1    
    94   47   48 1    
    95   47   49 1    
    96   47  170 1    
    97   48  171 1    
    98   48  172 1    
    99   48  173 1    
   100   49   50 am   BACKBONE|DICT|INTERRES
   101   49  174 1    
   102   50   51 2    
   103   50   52 1    
   104   52   53 1    
   105   52   54 1    
   106   52  175 1    
   107   53  176 1    
   108   53  177 1    
   109   53  178 1    
   110   54   55 am   BACKBONE|DICT|INTERRES
   111   54  179 1    
   112   55   56 2    
   113   55   57 1    
   114   57   58 1    
   115   57   59 1    
   116   57  180 1    
   117   58  181 1    
   118   58  182 1    
   119   58  183 1    
   120   59   60 am   BACKBONE|DICT|INTERRES
   121   59  184 1    
   122   60   61 2    
   123   60   62 1    
   124   62   63 1    
   125   62   64 1    
   126   62  185 1    
   127   63  186 1    
   128   63  187 1    
   129   63  188 1    
   130   64   65 am   BACKBONE|DICT|INTERRES
   131   64  189 1    
   132   65   66 2    
   133   67   68 2    
   134   67   69 am   BACKBONE|DICT|INTERRES
   135   69   70 1    
   136   69  190 1    
   137   70   71 1    
   138   70   72 1    
   139   70  191 1    
   140   71  192 1    
   141   71  193 1    
   142   71  194 1    
   143   72   73 2    
   144   72   74 am   BACKBONE|DICT|INTERRES
   145   74   75 1    
   146   74  195 1    
   147   75   76 1    
   148   75   77 1    
   149   75  196 1    
   150   76  197 1    
   151   76  198 1    
   152   76  199 1    
   153   77   78 2    
   154   77   79 am   BACKBONE|DICT|INTERRES
   155   79   80 1    
   156   79  200 1    
   157   80   81 1    
   158   80   82 1    
   159   80  201 1    
   160   81  202 1    
   161   81  203 1    
   162   81  204 1    
   163   82   83 2    
   164   82   84 am   BACKBONE|DICT|INTERRES
   165   84   85 1    
   166   84  205 1    
   167   85   86 1    
   168   85   87 1    
   169   85  206 1    
   170   86  207 1    
   171   86  208 1    
   172   86  209 1    
   173   87   88 2    
   174   87   89 am   BACKBONE|DICT|INTERRES
   175   89   90 1    
   176   89  210 1    
   177   90   91 1    
   178   90   92 1    
   179   90  211 1    
   180   91  212 1    
   181   91  213 1    
   182   91  214 1    
   183   92   93 2    
   184   92   94 am   BACKBONE|DICT|INTERRES
   185   94   95 1    
   186   94  215 1    
   187   95   96 1    
   188   95   97 1    
   189   95  216 1    
   190   96  217 1    
   191   96  218 1    
   192   96  219 1    
   193   97   98 2    
   194   97   99 am   BACKBONE|DICT|INTERRES
   195   99  100 1    
   196   99  220 1    
   197  100  101 1    
   198  100  102 1    
   199  100  221 1    
   200  101  222 1    
   201  101  223 1    
   202  101  224 1    
   203  102  103 2    
   204  102  104 am   BACKBONE|DICT|INTERRES
   205  104  105 1    
   206  104  225 1    
   207  105  106 1    
   208  105  107 1    
   209  105  226 1    
   210  106  227 1    
   211  106  228 1    
   212  106  229 1    
   213  107  108 2    
   214  107  109 am   BACKBONE|DICT|INTERRES
   215  109  110 1    
   216  109  230 1    
   217  110  111 1    
   218  110  112 1    
   219  110  231 1    
   220  111  232 1    
   221  111  233 1    
   222  111  234 1    
   223  112  113 2    
   224  112  114 am   BACKBONE|DICT|INTERRES
   225  114  115 1    
   226  114  235 1    
   227  115  116 1    
   228  115  117 1    
   229  115  236 1    
   230  116  237 1    
   231  116  238 1    
   232  116  239 1    
   233  117  118 2    
   234  117  119 am   BACKBONE|DICT|INTERRES
   235  119  120 1    
   236  119  240 1    
   237  120  121 1    
   238  120  124 1    
   239  120  241 1    
   240  121  122 am   BACKBONE|DICT|INTERRES
   241  121  123 2    
   242  122  242 1    
   243  122  243 1    
   244  124  125 1    
   245  124  244 1    
   246  124  245 1    
   247  125  126 1    
   248  126  246 1    
   249  126  247 1    
@<TRIPOS>SUBSTRUCTURE
     1 UNK         1 GROUP             0       ****    0 ROOT    
