@<TRIPOS>MOLECULE
3R540
247   249    1
SMALL
USER_CHARGES


@<TRIPOS>ATOM
      1 CA         -0.0575  -11.0477  -45.7437 C.3       0 UNK        -0.1800 
      2 C          -0.5266  -12.4820  -45.9384 C.2       0 UNK         0.5000 
      3 O          -0.5464  -13.2599  -44.9829 O.2       0 UNK        -0.5000 
      4 N          -0.9143  -12.8245  -47.1753 N.am      1 UNK        -0.5000 
      5 CA         -1.3399  -14.1637  -47.6080 C.3       1 UNK         0.1400 
      6 C6         -1.5352  -14.2268  -49.1451 C.3       23 UNK        -0.0398 
      7 S7         -1.0210  -15.8321  -49.8401 S.3       23 UNK        -0.2404 
      8 C8          0.5654  -15.3714  -50.6012 C.3       23 UNK        -0.0205 
      9 C9          1.2464  -16.5712  -51.2379 C.ar      23 UNK        -0.0193 
     10 C10         0.7377  -17.1152  -52.4200 C.ar      23 UNK        -0.1150 
     11 C11         1.3510  -18.2197  -53.0170 C.ar      23 UNK        -0.0193 
     12 C12         2.4940  -18.7698  -52.4293 C.ar      23 UNK        -0.1150 
     13 C13         3.0207  -18.2264  -51.2529 C.ar      23 UNK        -0.0193 
     14 C14         2.3876  -17.1315  -50.6569 C.ar      23 UNK        -0.1150 
     15 C15         4.2904  -18.8044  -50.6456 C.3       23 UNK        -0.0205 
     16 S16         4.0336  -20.4601  -49.9377 S.3       23 UNK        -0.2404 
     17 C17         3.1469  -20.0824  -48.3883 C.3       23 UNK        -0.0398 
     18 CA          2.1944  -21.2336  -47.9777 C.3       11 UNK         0.1400 
     19 N           2.0650  -21.3563  -46.5230 N.am      11 UNK        -0.5000 
     20 C           1.5965  -22.4471  -45.8990 C.2       10 UNK         0.5000 
     21 O           1.2521  -23.4755  -46.4817 O.2       10 UNK        -0.5000 
     22 CA          1.4719  -22.3759  -44.3665 C.3       10 UNK         0.1400 
     23 CB          2.8182  -22.6876  -43.6959 C.3       10 UNK        -0.1800 
     24 N           0.9750  -21.0843  -43.8934 N.am      10 UNK        -0.5000 
     25 C          -0.2454  -20.5964  -44.1574 C.2       9 UNK         0.5000 
     26 O          -1.0974  -21.1996  -44.8088 O.2       9 UNK        -0.5000 
     27 CA         -0.5482  -19.1781  -43.6422 C.3       9 UNK         0.1400 
     28 CB         -0.8494  -19.2095  -42.1350 C.3       9 UNK        -0.1800 
     29 N           0.5458  -18.2422  -43.9055 N.am      9 UNK        -0.5000 
     30 C           1.0203  -17.9331  -45.1217 C.2       8 UNK         0.5000 
     31 O           0.5606  -18.3748  -46.1730 O.2       8 UNK        -0.5000 
     32 CA          2.2668  -17.0346  -45.1665 C.3       8 UNK         0.1400 
     33 CB          1.8956  -15.5558  -44.9858 C.3       8 UNK        -0.1800 
     34 N           3.2518  -17.4268  -44.1593 N.am      8 UNK        -0.5000 
     35 C           3.9444  -18.5744  -44.1896 C.2       7 UNK         0.5000 
     36 O           3.8483  -19.4081  -45.0898 O.2       7 UNK        -0.5000 
     37 CA          4.8638  -18.8544  -42.9877 C.3       7 UNK         0.1400 
     38 CB          6.2042  -18.1214  -43.1459 C.3       7 UNK        -0.1800 
     39 N           4.2468  -18.4736  -41.7163 N.am      7 UNK        -0.5000 
     40 C           3.1731  -19.0782  -41.1888 C.2       6 UNK         0.5000 
     41 O           2.6146  -20.0476  -41.7008 O.2       6 UNK        -0.5000 
     42 CA          2.5985  -18.4646  -39.8989 C.3       6 UNK         0.1400 
     43 CB          3.3187  -19.0277  -38.6648 C.3       6 UNK        -0.1800 
     44 N           2.6607  -16.9996  -39.8748 N.am      6 UNK        -0.5000 
     45 C           2.0207  -16.2016  -40.7383 C.2       5 UNK         0.5000 
     46 O           1.3372  -16.6168  -41.6790 O.2       5 UNK        -0.5000 
     47 CA          2.2009  -14.6913  -40.5458 C.3       5 UNK         0.1400 
     48 CB          3.4764  -14.1998  -41.2490 C.3       5 UNK        -0.1800 
     49 N           1.0436  -14.0304  -41.1313 N.am      5 UNK        -0.5000 
     50 C           0.3849  -12.9844  -40.6237 C.2       4 UNK         0.5000 
     51 O           0.7509  -12.3620  -39.6258 O.2       4 UNK        -0.5000 
     52 CA         -0.9114  -12.5683  -41.3486 C.3       4 UNK         0.1400 
     53 CB         -0.6589  -11.3348  -42.2249 C.3       4 UNK        -0.1800 
     54 N          -1.4773  -13.6455  -42.1706 N.am      4 UNK        -0.5000 
     55 C          -2.1217  -14.7063  -41.6603 C.2       3 UNK         0.5000 
     56 O          -2.3288  -14.8509  -40.4538 O.2       3 UNK        -0.5000 
     57 CA         -2.5972  -15.7840  -42.6578 C.3       3 UNK         0.1400 
     58 CB         -3.5747  -16.8005  -42.0309 C.3       3 UNK        -0.1800 
     59 N          -3.1614  -15.2435  -43.8955 N.am      3 UNK        -0.5000 
     60 C          -4.1948  -14.4029  -44.0433 C.2       2 UNK         0.5000 
     61 O          -4.8242  -13.9215  -43.0996 O.2       2 UNK        -0.5000 
     62 CA         -4.5855  -14.0451  -45.4987 C.3       2 UNK         0.1400 
     63 CB         -5.5382  -12.8382  -45.5755 C.3       2 UNK        -0.1800 
     64 N          -3.4254  -13.7761  -46.3533 N.am      2 UNK        -0.5000 
     65 C          -2.5845  -14.6901  -46.8584 C.2       1 UNK         0.5000 
     66 O          -2.7321  -15.9005  -46.6939 O.2       1 UNK        -0.5000 
     67 C           0.8235  -21.1312  -48.6808 C.2       11 UNK         0.5000 
     68 O           0.6599  -21.6948  -49.7621 O.2       11 UNK        -0.5000 
     69 N          -0.1389  -20.4395  -48.0529 N.am      12 UNK        -0.5000 
     70 CA         -1.5112  -20.3138  -48.5423 C.3       12 UNK         0.1400 
     71 CB         -2.2038  -19.1362  -47.8421 C.3       12 UNK        -0.1800 
     72 C          -2.3351  -21.6014  -48.3729 C.2       12 UNK         0.5000 
     73 O          -3.1357  -21.9227  -49.2534 O.2       12 UNK        -0.5000 
     74 N          -2.1027  -22.3131  -47.2616 N.am      13 UNK        -0.5000 
     75 CA         -2.7446  -23.5577  -46.8335 C.3       13 UNK         0.1400 
     76 CB         -2.4957  -24.6863  -47.8573 C.3       13 UNK        -0.1800 
     77 C          -4.2410  -23.3926  -46.4911 C.2       13 UNK         0.5000 
     78 O          -4.7806  -22.2819  -46.5098 O.2       13 UNK        -0.5000 
     79 N          -4.8826  -24.5171  -46.1439 N.am      14 UNK        -0.5000 
     80 CA         -6.3004  -24.6118  -45.7952 C.3       14 UNK         0.1400 
     81 CB         -6.6299  -26.0615  -45.4091 C.3       14 UNK        -0.1800 
     82 C          -7.2048  -24.1385  -46.9462 C.2       14 UNK         0.5000 
     83 O          -6.9882  -24.5354  -48.0934 O.2       14 UNK        -0.5000 
     84 N          -8.1698  -23.2678  -46.6181 N.am      15 UNK        -0.5000 
     85 CA         -9.1275  -22.6231  -47.5284 C.3       15 UNK         0.1400 
     86 CB        -10.1164  -23.6668  -48.0892 C.3       15 UNK        -0.1800 
     87 C          -8.4727  -21.7787  -48.6477 C.2       15 UNK         0.5000 
     88 O          -9.1227  -21.5070  -49.6583 O.2       15 UNK        -0.5000 
     89 N          -7.1998  -21.3929  -48.4554 N.am      16 UNK        -0.5000 
     90 CA         -6.3222  -20.7130  -49.4135 C.3       16 UNK         0.1400 
     91 CB         -6.8371  -19.2891  -49.7147 C.3       16 UNK        -0.1800 
     92 C          -6.0588  -21.5415  -50.6930 C.2       16 UNK         0.5000 
     93 O          -5.8039  -20.9658  -51.7516 O.2       16 UNK        -0.5000 
     94 N          -6.1275  -22.8779  -50.5884 N.am      17 UNK        -0.5000 
     95 CA         -6.0196  -23.8046  -51.7167 C.3       17 UNK         0.1400 
     96 CB         -6.3469  -25.2272  -51.2409 C.3       17 UNK        -0.1800 
     97 C          -4.6540  -23.7740  -52.4252 C.2       17 UNK         0.5000 
     98 O          -4.6091  -23.8387  -53.6546 O.2       17 UNK        -0.5000 
     99 N          -3.5667  -23.6520  -51.6523 N.am      18 UNK        -0.5000 
    100 CA        -2.2115  -23.5549  -52.1932 C.3       18 UNK         0.1400 
    101 CB        -1.1878  -24.0438  -51.1619 C.3       18 UNK        -0.1800 
    102 C         -1.8957  -22.1360  -52.6957 C.2       18 UNK         0.5000 
    103 O         -1.1514  -22.0078  -53.6666 O.2       18 UNK        -0.5000 
    104 N         -2.5134  -21.1096  -52.0887 N.am      19 UNK        -0.5000 
    105 CA        -2.4885  -19.7246  -52.5710 C.3       19 UNK         0.1400 
    106 CB        -3.0992  -18.7666  -51.5335 C.3       19 UNK        -0.1800 
    107 C         -3.1775  -19.5639  -53.9386 C.2       19 UNK         0.5000 
    108 O         -2.6724  -18.8369  -54.7934 O.2       19 UNK        -0.5000 
    109 N         -4.3063  -20.2593  -54.1278 N.am      20 UNK        -0.5000 
    110 CA        -5.0452  -20.3068  -55.3884 C.3       20 UNK         0.1400 
    111 CB        -6.4102  -20.9712  -55.1519 C.3       20 UNK        -0.1800 
    112 C         -4.2712  -21.0279  -56.5092 C.2       20 UNK         0.5000 
    113 O         -4.3369  -20.5975  -57.6613 O.2       20 UNK        -0.5000 
    114 N         -3.5581  -22.1057  -56.1548 N.am      21 UNK        -0.5000 
    115 CA        -2.7502  -22.9023  -57.0761 C.3       21 UNK         0.1400 
    116 CB        -2.5100  -24.2947  -56.4684 C.3       21 UNK        -0.1800 
    117 C         -1.4224  -22.2103  -57.4375 C.2       21 UNK         0.5000 
    118 O         -1.1826  -21.9225  -58.6105 O.2       21 UNK        -0.5000 
    119 N         -0.5839  -21.9716  -56.4209 N.am      22 UNK        -0.5000 
    120 CA         0.7678  -21.3915  -56.5040 C.3       22 UNK         0.1400 
    121 C          1.8050  -22.1967  -57.3487 C.2       22 UNK         0.5000 
    122 N          1.5980  -23.4865  -57.5854 N.am      22 UNK        -0.7600 
    123 O          2.8258  -21.6624  -57.7738 O.2       22 UNK        -0.5000 
    124 C124        0.7409  -19.8653  -56.8185 C.3       23 UNK        -0.0398 
    125 S125        1.8253  -18.9111  -55.6978 S.3       23 UNK        -0.2404 
    126 C126        0.7277  -18.8555  -54.2496 C.3       23 UNK        -0.0205 
    127 H127        0.9142  -11.0346  -45.2501 H         1 UNK         0.0600 
    128 H128       -0.7673  -10.5004  -45.1243 H         1 UNK         0.0600 
    129 H129        0.0404  -10.5213  -46.6933 H         1 UNK         0.0600 
    130 H130       -0.8849  -12.1221  -47.9005 H         1 UNK         0.3000 
    131 H131       -0.5172  -14.8290  -47.3385 H         1 UNK         0.0600 
    132 H132       -0.9546  -13.4460  -49.6381 H         1 UNK         0.0800 
    133 H133       -2.5707  -14.0317  -49.4309 H         1 UNK         0.0800 
    134 H134        0.3969  -14.6082  -51.3625 H         1 UNK         0.0800 
    135 H135        1.2102  -14.9209  -49.8448 H         1 UNK         0.0800 
    136 H136       -0.1530  -16.6882  -52.8598 H         1 UNK         0.1150 
    137 H137        2.9704  -19.6271  -52.8841 H         1 UNK         0.1150 
    138 H138        2.7882  -16.7091  -49.7461 H         1 UNK         0.1150 
    139 H139        5.0517  -18.8726  -51.4239 H         1 UNK         0.0800 
    140 H140        4.6979  -18.1417  -49.8804 H         1 UNK         0.0800 
    141 H141        2.6174  -19.1306  -48.4607 H         1 UNK         0.0800 
    142 H142        3.9163  -19.9387  -47.6299 H         1 UNK         0.0800 
    143 H143        2.6451  -22.1709  -48.3126 H         1 UNK         0.0600 
    144 H144        2.3761  -20.5671  -45.9668 H         1 UNK         0.3000 
    145 H145        0.7555  -23.1402  -44.0578 H         1 UNK         0.0600 
    146 H146        2.7170  -22.7306  -42.6114 H         1 UNK         0.0600 
    147 H147        3.2052  -23.6529  -44.0248 H         1 UNK         0.0600 
    148 H148        3.5700  -21.9338  -43.9315 H         1 UNK         0.0600 
    149 H149        1.6009  -20.5471  -43.3003 H         1 UNK         0.3000 
    150 H150       -1.4318  -18.8059  -44.1649 H         1 UNK         0.0600 
    151 H151       -1.7662  -19.7651  -41.9353 H         1 UNK         0.0600 
    152 H152       -0.9767  -18.2084  -41.7271 H         1 UNK         0.0600 
    153 H153       -0.0493  -19.6889  -41.5715 H         1 UNK         0.0600 
    154 H154        0.9702  -17.8004  -43.0940 H         1 UNK         0.3000 
    155 H155        2.7261  -17.1491  -46.1509 H         1 UNK         0.0600 
    156 H156        2.7778  -14.9169  -45.0260 H         1 UNK         0.0600 
    157 H157        1.3899  -15.3707  -44.0384 H         1 UNK         0.0600 
    158 H158        1.2253  -15.2301  -45.7804 H         1 UNK         0.0600 
    159 H159        3.3496  -16.8225  -43.3580 H         1 UNK         0.3000 
    160 H160        5.0620  -19.9282  -42.9626 H         1 UNK         0.0600 
    161 H161        6.0755  -17.0383  -43.1508 H         1 UNK         0.0600 
    162 H162        6.6917  -18.3986  -44.0816 H         1 UNK         0.0600 
    163 H163        6.8893  -18.3745  -42.3366 H         1 UNK         0.0600 
    164 H164        4.6451  -17.6847  -41.2291 H         1 UNK         0.3000 
    165 H165        1.5470  -18.7530  -39.8392 H         1 UNK         0.0600 
    166 H166        2.8594  -18.6705  -37.7429 H         1 UNK         0.0600 
    167 H167        3.2710  -20.1174  -38.6488 H         1 UNK         0.0600 
    168 H168        4.3719  -18.7448  -38.6477 H         1 UNK         0.0600 
    169 H169        3.2099  -16.5848  -39.1356 H         1 UNK         0.3000 
    170 H170        2.2596  -14.4792  -39.4761 H         1 UNK         0.0600 
    171 H171        4.3638  -14.6824  -40.8379 H         1 UNK         0.0600 
    172 H172        3.4523  -14.4076  -42.3195 H         1 UNK         0.0600 
    173 H173        3.6038  -13.1246  -41.1218 H         1 UNK         0.0600 
    174 H174        0.6364  -14.5224  -41.9155 H         1 UNK         0.3000 
    175 H175       -1.6446  -12.2944  -40.5870 H         1 UNK         0.0600 
    176 H176        0.1436  -11.5155  -42.9395 H         1 UNK         0.0600 
    177 H177       -1.5538  -11.0499  -42.7783 H         1 UNK         0.0600 
    178 H178       -0.3647  -10.4790  -41.6162 H         1 UNK         0.0600 
    179 H179       -1.3184  -13.5873  -43.1731 H         1 UNK         0.3000 
    180 H180       -1.6985  -16.3254  -42.9545 H         1 UNK         0.0600 
    181 H181       -3.8260  -17.5912  -42.7379 H         1 UNK         0.0600 
    182 H182       -4.5036  -16.3246  -41.7152 H         1 UNK         0.0600 
    183 H183       -3.1409  -17.2796  -41.1528 H         1 UNK         0.0600 
    184 H184       -2.7371  -15.5805  -44.7539 H         1 UNK         0.3000 
    185 H185       -5.1152  -14.9103  -45.9025 H         1 UNK         0.0600 
    186 H186       -6.4563  -13.0249  -45.0170 H         1 UNK         0.0600 
    187 H187       -5.0793  -11.9380  -45.1648 H         1 UNK         0.0600 
    188 H188       -5.8270  -12.6283  -46.6056 H         1 UNK         0.0600 
    189 H189       -3.1967  -12.8032  -46.4957 H         1 UNK         0.3000 
    190 H190        0.0892  -19.9322  -47.2023 H         1 UNK         0.3000 
    191 H191       -1.4555  -20.1021  -49.6089 H         1 UNK         0.0600 
    192 H192       -3.2187  -18.9977  -48.2166 H         1 UNK         0.0600 
    193 H193       -1.6644  -18.2048  -48.0129 H         1 UNK         0.0600 
    194 H194       -2.2676  -19.2892  -46.7641 H         1 UNK         0.0600 
    195 H195       -1.4950  -21.8970  -46.5618 H         1 UNK         0.3000 
    196 H196       -2.2446  -23.8340  -45.9042 H         1 UNK         0.0600 
    197 H197       -3.0802  -24.5468  -48.7668 H         1 UNK         0.0600 
    198 H198       -1.4429  -24.7363  -48.1358 H         1 UNK         0.0600 
    199 H199       -2.7602  -25.6616  -47.4486 H         1 UNK         0.0600 
    200 H200       -4.3759  -25.3893  -46.1698 H         1 UNK         0.3000 
    201 H201       -6.4691  -23.9757  -44.9239 H         1 UNK         0.0600 
    202 H202       -6.4493  -26.7489  -46.2367 H         1 UNK         0.0600 
    203 H203       -7.6780  -26.1606  -45.1236 H         1 UNK         0.0600 
    204 H204       -6.0303  -26.3914  -44.5605 H         1 UNK         0.0600 
    205 H205       -8.2467  -22.9868  -45.6501 H         1 UNK         0.3000 
    206 H206       -9.6991  -21.9206  -46.9204 H         1 UNK         0.0600 
    207 H207      -10.5733  -24.2480  -47.2883 H         1 UNK         0.0600 
    208 H208      -10.9259  -23.1862  -48.6397 H         1 UNK         0.0600 
    209 H209       -9.6264  -24.3625  -48.7712 H         1 UNK         0.0600 
    210 H210       -6.7430  -21.6870  -47.6004 H         1 UNK         0.3000 
    211 H211       -5.3598  -20.6085  -48.9133 H         1 UNK         0.0600 
    212 H212       -6.1129  -18.7208  -50.2977 H         1 UNK         0.0600 
    213 H213       -7.0161  -18.7324  -48.7949 H         1 UNK         0.0600 
    214 H214       -7.7663  -19.3051  -50.2844 H         1 UNK         0.0600 
    215 H215       -6.3470  -23.2884  -49.6873 H         1 UNK         0.3000 
    216 H216       -6.7731  -23.5134  -52.4515 H         1 UNK         0.0600 
    217 H217       -5.6550  -25.5607  -50.4663 H         1 UNK         0.0600 
    218 H218       -6.2890  -25.9399  -52.0647 H         1 UNK         0.0600 
    219 H219       -7.3565  -25.2831  -50.8332 H         1 UNK         0.0600 
    220 H220       -3.6770  -23.4972  -50.6574 H         1 UNK         0.3000 
    221 H221       -2.1328  -24.2237  -53.0528 H         1 UNK         0.0600 
    222 H222       -0.1739  -23.9801  -51.5588 H         1 UNK         0.0600 
    223 H223       -1.3678  -25.0838  -50.8902 H         1 UNK         0.0600 
    224 H224       -1.2157  -23.4515  -50.2510 H         1 UNK         0.0600 
    225 H225       -3.0941  -21.3123  -51.2838 H         1 UNK         0.3000 
    226 H226       -1.4462  -19.4367  -52.6962 H         1 UNK         0.0600 
    227 H227       -2.3678  -18.4848  -50.7790 H         1 UNK         0.0600 
    228 H228       -3.4313  -17.8347  -51.9935 H         1 UNK         0.0600 
    229 H229       -3.9554  -19.2049  -51.0255 H         1 UNK         0.0600 
    230 H230       -4.7101  -20.7572  -53.3391 H         1 UNK         0.3000 
    231 H231       -5.2209  -19.2794  -55.7140 H         1 UNK         0.0600 
    232 H232       -6.3036  -21.9983  -54.8019 H         1 UNK         0.0600 
    233 H233       -6.9975  -20.9956  -56.0706 H         1 UNK         0.0600 
    234 H234       -6.9905  -20.4246  -54.4082 H         1 UNK         0.0600 
    235 H235       -3.5917  -22.4113  -55.1912 H         1 UNK         0.3000 
    236 H236       -3.3152  -23.0404  -58.0006 H         1 UNK         0.0600 
    237 H237       -3.4531  -24.8136  -56.2948 H         1 UNK         0.0600 
    238 H238       -1.9159  -24.9167  -57.1389 H         1 UNK         0.0600 
    239 H239       -1.9835  -24.2398  -55.5155 H         1 UNK         0.0600 
    240 H240       -0.8887  -22.1853  -55.4736 H         1 UNK         0.3000 
    241 H241        1.1413  -21.5179  -55.4879 H         1 UNK         0.0600 
    242 H242        2.2734  -24.0064  -58.1238 H         1 UNK         0.3800 
    243 H243        0.7747  -23.9477  -57.2337 H         1 UNK         0.3800 
    244 H244       -0.2705  -19.4672  -56.7192 H         1 UNK         0.0800 
    245 H245        1.0239  -19.6635  -57.8528 H         1 UNK         0.0800 
    246 H246       -0.1754  -18.3165  -54.5343 H         1 UNK         0.0800 
    247 H247        0.4223  -19.8688  -53.9913 H         1 UNK         0.0800 
@<TRIPOS>BOND
     1    1    2 1    
     2    1  127 1    
     3    1  128 1    
     4    1  129 1    
     5    2    3 2    
     6    2    4 am   BACKBONE|DICT|INTERRES
     7    4    5 1    
     8    4  130 1    
     9    5    6 1    
    10    5   65 1    
    11    5  131 1    
    12    6    7 1    
    13    6  132 1    
    14    6  133 1    
    15    7    8 1    
    16    8    9 1    
    17    8  134 1    
    18    8  135 1    
    19    9   10 ar   
    20    9   14 ar   
    21   10   11 ar   
    22   10  136 1    
    23   11   12 ar   
    24   11  126 1    
    25   12   13 ar   
    26   12  137 1    
    27   13   14 ar   
    28   13   15 1    
    29   14  138 1    
    30   15   16 1    
    31   15  139 1    
    32   15  140 1    
    33   16   17 1    
    34   17   18 1    
    35   17  141 1    
    36   17  142 1    
    37   18   19 1    
    38   18   67 1    
    39   18  143 1    
    40   19   20 am   BACKBONE|DICT|INTERRES
    41   19  144 1    
    42   20   21 2    
    43   20   22 1    
    44   22   23 1    
    45   22   24 1    
    46   22  145 1    
    47   23  146 1    
    48   23  147 1    
    49   23  148 1    
    50   24   25 am   BACKBONE|DICT|INTERRES
    51   24  149 1    
    52   25   26 2    
    53   25   27 1    
    54   27   28 1    
    55   27   29 1    
    56   27  150 1    
    57   28  151 1    
    58   28  152 1    
    59   28  153 1    
    60   29   30 am   BACKBONE|DICT|INTERRES
    61   29  154 1    
    62   30   31 2    
    63   30   32 1    
    64   32   33 1    
    65   32   34 1    
    66   32  155 1    
    67   33  156 1    
    68   33  157 1    
    69   33  158 1    
    70   34   35 am   BACKBONE|DICT|INTERRES
    71   34  159 1    
    72   35   36 2    
    73   35   37 1    
    74   37   38 1    
    75   37   39 1    
    76   37  160 1    
    77   38  161 1    
    78   38  162 1    
    79   38  163 1    
    80   39   40 am   BACKBONE|DICT|INTERRES
    81   39  164 1    
    82   40   41 2    
    83   40   42 1    
    84   42   43 1    
    85   42   44 1    
    86   42  165 1    
    87   43  166 1    
    88   43  167 1    
    89   43  168 1    
    90   44   45 am   BACKBONE|DICT|INTERRES
    91   44  169 1    
    92   45   46 2    
    93   45   47 1    
    94   47   48 1    
    95   47   49 1    
    96   47  170 1    
    97   48  171 1    
    98   48  172 1    
    99   48  173 1    
   100   49   50 am   BACKBONE|DICT|INTERRES
   101   49  174 1    
   102   50   51 2    
   103   50   52 1    
   104   52   53 1    
   105   52   54 1    
   106   52  175 1    
   107   53  176 1    
   108   53  177 1    
   109   53  178 1    
   110   54   55 am   BACKBONE|DICT|INTERRES
   111   54  179 1    
   112   55   56 2    
   113   55   57 1    
   114   57   58 1    
   115   57   59 1    
   116   57  180 1    
   117   58  181 1    
   118   58  182 1    
   119   58  183 1    
   120   59   60 am   BACKBONE|DICT|INTERRES
   121   59  184 1    
   122   60   61 2    
   123   60   62 1    
   124   62   63 1    
   125   62   64 1    
   126   62  185 1    
   127   63  186 1    
   128   63  187 1    
   129   63  188 1    
   130   64   65 am   BACKBONE|DICT|INTERRES
   131   64  189 1    
   132   65   66 2    
   133   67   68 2    
   134   67   69 am   BACKBONE|DICT|INTERRES
   135   69   70 1    
   136   69  190 1    
   137   70   71 1    
   138   70   72 1    
   139   70  191 1    
   140   71  192 1    
   141   71  193 1    
   142   71  194 1    
   143   72   73 2    
   144   72   74 am   BACKBONE|DICT|INTERRES
   145   74   75 1    
   146   74  195 1    
   147   75   76 1    
   148   75   77 1    
   149   75  196 1    
   150   76  197 1    
   151   76  198 1    
   152   76  199 1    
   153   77   78 2    
   154   77   79 am   BACKBONE|DICT|INTERRES
   155   79   80 1    
   156   79  200 1    
   157   80   81 1    
   158   80   82 1    
   159   80  201 1    
   160   81  202 1    
   161   81  203 1    
   162   81  204 1    
   163   82   83 2    
   164   82   84 am   BACKBONE|DICT|INTERRES
   165   84   85 1    
   166   84  205 1    
   167   85   86 1    
   168   85   87 1    
   169   85  206 1    
   170   86  207 1    
   171   86  208 1    
   172   86  209 1    
   173   87   88 2    
   174   87   89 am   BACKBONE|DICT|INTERRES
   175   89   90 1    
   176   89  210 1    
   177   90   91 1    
   178   90   92 1    
   179   90  211 1    
   180   91  212 1    
   181   91  213 1    
   182   91  214 1    
   183   92   93 2    
   184   92   94 am   BACKBONE|DICT|INTERRES
   185   94   95 1    
   186   94  215 1    
   187   95   96 1    
   188   95   97 1    
   189   95  216 1    
   190   96  217 1    
   191   96  218 1    
   192   96  219 1    
   193   97   98 2    
   194   97   99 am   BACKBONE|DICT|INTERRES
   195   99  100 1    
   196   99  220 1    
   197  100  101 1    
   198  100  102 1    
   199  100  221 1    
   200  101  222 1    
   201  101  223 1    
   202  101  224 1    
   203  102  103 2    
   204  102  104 am   BACKBONE|DICT|INTERRES
   205  104  105 1    
   206  104  225 1    
   207  105  106 1    
   208  105  107 1    
   209  105  226 1    
   210  106  227 1    
   211  106  228 1    
   212  106  229 1    
   213  107  108 2    
   214  107  109 am   BACKBONE|DICT|INTERRES
   215  109  110 1    
   216  109  230 1    
   217  110  111 1    
   218  110  112 1    
   219  110  231 1    
   220  111  232 1    
   221  111  233 1    
   222  111  234 1    
   223  112  113 2    
   224  112  114 am   BACKBONE|DICT|INTERRES
   225  114  115 1    
   226  114  235 1    
   227  115  116 1    
   228  115  117 1    
   229  115  236 1    
   230  116  237 1    
   231  116  238 1    
   232  116  239 1    
   233  117  118 2    
   234  117  119 am   BACKBONE|DICT|INTERRES
   235  119  120 1    
   236  119  240 1    
   237  120  121 1    
   238  120  124 1    
   239  120  241 1    
   240  121  122 am   BACKBONE|DICT|INTERRES
   241  121  123 2    
   242  122  242 1    
   243  122  243 1    
   244  124  125 1    
   245  124  244 1    
   246  124  245 1    
   247  125  126 1    
   248  126  246 1    
   249  126  247 1    
@<TRIPOS>SUBSTRUCTURE
     1 UNK         1 GROUP             0       ****    0 ROOT    
