@<TRIPOS>MOLECULE
3R540
247   249    1
SMALL
USER_CHARGES


@<TRIPOS>ATOM
      1 CA          0.1689  -14.1300  -50.3735 C.3       0 UNK        -0.1800 
      2 C           0.0129  -14.7735  -49.0039 C.2       0 UNK         0.5000 
      3 O          -1.1087  -14.9090  -48.5190 O.2       0 UNK        -0.5000 
      4 N           1.1316  -15.1685  -48.3793 N.am      1 UNK        -0.5000 
      5 CA          1.2133  -15.8648  -47.0831 C.3       1 UNK         0.1400 
      6 C6          0.5496  -17.2692  -47.0825 C.3       23 UNK        -0.0398 
      7 S7          1.1618  -18.3685  -48.3982 S.3       23 UNK        -0.2404 
      8 C8         -0.2870  -18.4225  -49.4919 C.3       23 UNK        -0.0205 
      9 C9         -0.0859  -19.4358  -50.6014 C.ar      23 UNK        -0.0193 
     10 C10         0.3215  -19.0356  -51.8761 C.ar      23 UNK        -0.1150 
     11 C11         0.4796  -19.9781  -52.8964 C.ar      23 UNK        -0.0193 
     12 C12         0.2620  -21.3328  -52.6238 C.ar      23 UNK        -0.1150 
     13 C13        -0.1396  -21.7417  -51.3494 C.ar      23 UNK        -0.0193 
     14 C14        -0.3179  -20.7862  -50.3472 C.ar      23 UNK        -0.1150 
     15 C15        -0.4228  -23.2058  -51.0574 C.3       23 UNK        -0.0205 
     16 S16         1.0672  -24.1542  -50.5979 S.3       23 UNK        -0.2404 
     17 C17         1.7082  -23.2967  -49.1163 C.3       23 UNK        -0.0398 
     18 CA          1.2093  -23.8776  -47.7684 C.3       11 UNK         0.1400 
     19 N           2.1894  -23.6229  -46.7036 N.am      11 UNK        -0.5000 
     20 C           2.0875  -23.9895  -45.4181 C.2       10 UNK         0.5000 
     21 O           1.1392  -24.6275  -44.9623 O.2       10 UNK        -0.5000 
     22 CA          3.2040  -23.5261  -44.4654 C.3       10 UNK         0.1400 
     23 CB          4.2258  -24.6539  -44.2593 C.3       10 UNK        -0.1800 
     24 N           3.9081  -22.3084  -44.8847 N.am      10 UNK        -0.5000 
     25 C           3.3446  -21.1055  -45.0605 C.2       9 UNK         0.5000 
     26 O           2.1282  -20.8974  -45.0175 O.2       9 UNK        -0.5000 
     27 CA          4.3025  -19.9435  -45.3524 C.3       9 UNK         0.1400 
     28 CB          4.4998  -19.7555  -46.8637 C.3       9 UNK        -0.1800 
     29 N           3.7233  -18.7377  -44.7732 N.am      9 UNK        -0.5000 
     30 C           4.3797  -17.8489  -44.0193 C.2       8 UNK         0.5000 
     31 O           5.6036  -17.8480  -43.8798 O.2       8 UNK        -0.5000 
     32 CA          3.5406  -16.7886  -43.2727 C.3       8 UNK         0.1400 
     33 CB          3.7531  -15.3941  -43.8813 C.3       8 UNK        -0.1800 
     34 N           2.1020  -17.0733  -43.2045 N.am      8 UNK        -0.5000 
     35 C           1.5525  -18.0846  -42.5173 C.2       7 UNK         0.5000 
     36 O           2.2042  -18.9387  -41.9141 O.2       7 UNK        -0.5000 
     37 CA          0.0127  -18.0964  -42.4798 C.3       7 UNK         0.1400 
     38 CB         -0.5740  -19.3684  -41.8320 C.3       7 UNK        -0.1800 
     39 N          -0.5183  -16.8901  -41.8357 N.am      7 UNK        -0.5000 
     40 C          -0.2887  -16.4598  -40.5823 C.2       6 UNK         0.5000 
     41 O           0.4200  -17.0484  -39.7657 O.2       6 UNK        -0.5000 
     42 CA         -0.9751  -15.1467  -40.1571 C.3       6 UNK         0.1400 
     43 CB          0.0339  -13.9895  -40.1090 C.3       6 UNK        -0.1800 
     44 N          -2.0865  -14.7935  -41.0437 N.am      6 UNK        -0.5000 
     45 C          -3.3329  -15.2643  -40.8930 C.2       5 UNK         0.5000 
     46 O          -3.6953  -15.9685  -39.9499 O.2       5 UNK        -0.5000 
     47 CA         -4.3258  -14.9223  -42.0105 C.3       5 UNK         0.1400 
     48 CB         -4.7195  -13.4368  -41.9741 C.3       5 UNK        -0.1800 
     49 N          -3.7593  -15.2452  -43.3171 N.am      5 UNK        -0.5000 
     50 C          -3.7807  -16.4620  -43.8830 C.2       4 UNK         0.5000 
     51 O          -4.2488  -17.4556  -43.3267 O.2       4 UNK        -0.5000 
     52 CA         -3.1669  -16.6017  -45.2965 C.3       4 UNK         0.1400 
     53 CB         -3.9564  -17.5687  -46.2006 C.3       4 UNK        -0.1800 
     54 N          -2.9480  -15.3190  -45.9716 N.am      4 UNK        -0.5000 
     55 C          -3.8574  -14.3894  -46.3053 C.2       3 UNK         0.5000 
     56 O          -5.0744  -14.5618  -46.2274 O.2       3 UNK        -0.5000 
     57 CA         -3.3070  -13.0141  -46.7468 C.3       3 UNK         0.1400 
     58 CB         -4.1781  -11.8489  -46.2331 C.3       3 UNK        -0.1800 
     59 N          -1.8974  -12.7933  -46.3897 N.am      3 UNK        -0.5000 
     60 C          -1.3408  -12.7716  -45.1676 C.2       2 UNK         0.5000 
     61 O          -1.9676  -12.9308  -44.1172 O.2       2 UNK        -0.5000 
     62 CA          0.1980  -12.6556  -45.1605 C.3       2 UNK         0.1400 
     63 CB          0.8098  -12.6976  -43.7470 C.3       2 UNK        -0.1800 
     64 N           0.8046  -13.6720  -46.0315 N.am      2 UNK        -0.5000 
     65 C           0.6914  -15.0048  -45.9074 C.2       1 UNK         0.5000 
     66 O           0.1776  -15.5586  -44.9314 O.2       1 UNK        -0.5000 
     67 C          -0.2065  -23.3617  -47.4165 C.2       11 UNK         0.5000 
     68 O          -1.1991  -23.9945  -47.7848 O.2       11 UNK        -0.5000 
     69 N          -0.2779  -22.2558  -46.6580 N.am      12 UNK        -0.5000 
     70 CA         -1.5198  -21.6741  -46.1474 C.3       12 UNK         0.1400 
     71 CB         -1.2155  -20.3305  -45.4726 C.3       12 UNK        -0.1800 
     72 C          -2.3058  -22.6009  -45.1996 C.2       12 UNK         0.5000 
     73 O          -3.5315  -22.5045  -45.1488 O.2       12 UNK        -0.5000 
     74 N          -1.5973  -23.4900  -44.4930 N.am      13 UNK        -0.5000 
     75 CA         -2.1799  -24.5069  -43.6229 C.3       13 UNK         0.1400 
     76 CB         -1.3506  -24.6003  -42.3319 C.3       13 UNK        -0.1800 
     77 C          -2.2361  -25.8687  -44.3334 C.2       13 UNK         0.5000 
     78 O          -3.2791  -26.5216  -44.3113 O.2       13 UNK        -0.5000 
     79 N          -1.1154  -26.2732  -44.9475 N.am      14 UNK        -0.5000 
     80 CA         -0.9013  -27.6032  -45.5197 C.3       14 UNK         0.1400 
     81 CB          0.5888  -27.7737  -45.8536 C.3       14 UNK        -0.1800 
     82 C          -1.7661  -27.9072  -46.7546 C.2       14 UNK         0.5000 
     83 O          -2.2223  -29.0418  -46.9015 O.2       14 UNK        -0.5000 
     84 N          -1.9757  -26.9001  -47.6112 N.am      15 UNK        -0.5000 
     85 CA         -2.7710  -27.0052  -48.8378 C.3       15 UNK         0.1400 
     86 CB         -1.8859  -26.6137  -50.0314 C.3       15 UNK        -0.1800 
     87 C          -4.0433  -26.1390  -48.7753 C.2       15 UNK         0.5000 
     88 O          -4.7539  -26.0452  -49.7761 O.2       15 UNK        -0.5000 
     89 N          -4.3069  -25.5246  -47.6111 N.am      16 UNK        -0.5000 
     90 CA         -5.4226  -24.6179  -47.3136 C.3       16 UNK         0.1400 
     91 CB         -6.7741  -25.3591  -47.3925 C.3       16 UNK        -0.1800 
     92 C          -5.3975  -23.3118  -48.1404 C.2       16 UNK         0.5000 
     93 O          -6.4527  -22.7258  -48.3908 O.2       16 UNK        -0.5000 
     94 N          -4.1855  -22.8708  -48.5098 N.am      17 UNK        -0.5000 
     95 CA         -3.8576  -21.6467  -49.2459 C.3       17 UNK         0.1400 
     96 CB         -4.3672  -20.3935  -48.4972 C.3       17 UNK        -0.1800 
     97 C          -4.2911  -21.6466  -50.7262 C.2       17 UNK         0.5000 
     98 O          -4.8923  -22.6023  -51.2196 O.2       17 UNK        -0.5000 
     99 N          -3.9443  -20.5500  -51.4073 N.am      18 UNK        -0.5000 
    100 CA        -4.2764  -20.2443  -52.7963 C.3       18 UNK         0.1400 
    101 CB        -3.4565  -21.1074  -53.7705 C.3       18 UNK        -0.1800 
    102 C         -4.0564  -18.7431  -53.0305 C.2       18 UNK         0.5000 
    103 O         -4.9495  -18.0740  -53.5506 O.2       18 UNK        -0.5000 
    104 N         -2.8994  -18.2353  -52.5720 N.am      19 UNK        -0.5000 
    105 CA        -2.5171  -16.8208  -52.4902 C.3       19 UNK         0.1400 
    106 CB        -3.2706  -16.1376  -51.3272 C.3       19 UNK        -0.1800 
    107 C         -2.6473  -16.0867  -53.8398 C.2       19 UNK         0.5000 
    108 O         -1.8166  -16.2970  -54.7227 O.2       19 UNK        -0.5000 
    109 N         -3.6924  -15.2620  -53.9883 N.am      20 UNK        -0.5000 
    110 CA        -4.0057  -14.4921  -55.1944 C.3       20 UNK         0.1400 
    111 CB        -5.1731  -13.5426  -54.8831 C.3       20 UNK        -0.1800 
    112 C         -4.3247  -15.3510  -56.4362 C.2       20 UNK         0.5000 
    113 O         -4.2300  -14.8427  -57.5540 O.2       20 UNK        -0.5000 
    114 N         -4.6886  -16.6258  -56.2335 N.am      21 UNK        -0.5000 
    115 CA        -4.9327  -17.5928  -57.3051 C.3       21 UNK         0.1400 
    116 CB        -5.7351  -18.7751  -56.7398 C.3       21 UNK        -0.1800 
    117 C         -3.6432  -18.0946  -57.9888 C.2       21 UNK         0.5000 
    118 O         -3.7273  -18.6312  -59.0947 O.2       21 UNK        -0.5000 
    119 N         -2.4866  -17.9404  -57.3302 N.am      22 UNK        -0.5000 
    120 CA        -1.1719  -18.3593  -57.8404 C.3       22 UNK         0.1400 
    121 C         -0.6701  -17.4571  -59.0011 C.2       22 UNK         0.5000 
    122 N         -0.0140  -18.0305  -60.0010 N.am      22 UNK        -0.7600 
    123 O         -0.8299  -16.2386  -58.9844 O.2       22 UNK        -0.5000 
    124 C124       -0.1118  -18.4299  -56.7129 C.3       23 UNK        -0.0398 
    125 S125       -0.6184  -19.5530  -55.3714 S.3       23 UNK        -0.2404 
    126 C126        0.8485  -19.5271  -54.2999 C.3       23 UNK        -0.0205 
    127 H127        1.2165  -14.0306  -50.6581 H         1 UNK         0.0600 
    128 H128       -0.2807  -13.1372  -50.3747 H         1 UNK         0.0600 
    129 H129       -0.3332  -14.7334  -51.1291 H         1 UNK         0.0600 
    130 H130        2.0189  -15.0291  -48.8428 H         1 UNK         0.3000 
    131 H131        2.2771  -16.0115  -46.8936 H         1 UNK         0.0600 
    132 H132        0.7505  -17.7775  -46.1381 H         1 UNK         0.0800 
    133 H133       -0.5359  -17.1829  -47.1518 H         1 UNK         0.0800 
    134 H134       -1.1746  -18.6847  -48.9139 H         1 UNK         0.0800 
    135 H135       -0.4706  -17.4341  -49.9114 H         1 UNK         0.0800 
    136 H136        0.5073  -17.9904  -52.0778 H         1 UNK         0.1150 
    137 H137        0.3811  -22.0643  -53.4108 H         1 UNK         0.1150 
    138 H138       -0.6163  -21.0914  -49.3557 H         1 UNK         0.1150 
    139 H139       -1.1734  -23.2897  -50.2732 H         1 UNK         0.0800 
    140 H140       -0.8688  -23.6694  -51.9386 H         1 UNK         0.0800 
    141 H141        2.7905  -23.4194  -49.1769 H         1 UNK         0.0800 
    142 H142        1.5552  -22.2203  -49.1749 H         1 UNK         0.0800 
    143 H143        1.1390  -24.9625  -47.8651 H         1 UNK         0.0600 
    144 H144        3.0060  -23.0917  -46.9666 H         1 UNK         0.3000 
    145 H145        2.7323  -23.3143  -43.5036 H         1 UNK         0.0600 
    146 H146        4.9628  -24.3860  -43.5019 H         1 UNK         0.0600 
    147 H147        3.7363  -25.5693  -43.9232 H         1 UNK         0.0600 
    148 H148        4.7595  -24.8869  -45.1815 H         1 UNK         0.0600 
    149 H149        4.9122  -22.3865  -44.9614 H         1 UNK         0.3000 
    150 H150        5.2662  -20.1634  -44.8879 H         1 UNK         0.0600 
    151 H151        4.9835  -20.6271  -47.3058 H         1 UNK         0.0600 
    152 H152        5.1292  -18.8909  -47.0749 H         1 UNK         0.0600 
    153 H153        3.5508  -19.6126  -47.3785 H         1 UNK         0.0600 
    154 H154        2.7128  -18.7236  -44.7714 H         1 UNK         0.3000 
    155 H155        3.9118  -16.7612  -42.2461 H         1 UNK         0.0600 
    156 H156        3.1839  -14.6362  -43.3434 H         1 UNK         0.0600 
    157 H157        3.4600  -15.3601  -44.9291 H         1 UNK         0.0600 
    158 H158        4.8035  -15.1044  -43.8304 H         1 UNK         0.0600 
    159 H159        1.4817  -16.4147  -43.6640 H         1 UNK         0.3000 
    160 H160       -0.3240  -18.0728  -43.5172 H         1 UNK         0.0600 
    161 H161       -0.3111  -19.4487  -40.7770 H         1 UNK         0.0600 
    162 H162       -0.2026  -20.2673  -42.3250 H         1 UNK         0.0600 
    163 H163       -1.6614  -19.3805  -41.9083 H         1 UNK         0.0600 
    164 H164       -1.0914  -16.3018  -42.4217 H         1 UNK         0.3000 
    165 H165       -1.3559  -15.2903  -39.1436 H         1 UNK         0.0600 
    166 H166        0.5365  -13.8472  -41.0629 H         1 UNK         0.0600 
    167 H167       -0.4505  -13.0512  -39.8382 H         1 UNK         0.0600 
    168 H168        0.8067  -14.1823  -39.3639 H         1 UNK         0.0600 
    169 H169       -1.8775  -14.2034  -41.8381 H         1 UNK         0.3000 
    170 H170       -5.2313  -15.5133  -41.8560 H         1 UNK         0.0600 
    171 H171       -5.1656  -13.1758  -41.0137 H         1 UNK         0.0600 
    172 H172       -3.8611  -12.7818  -42.1264 H         1 UNK         0.0600 
    173 H173       -5.4532  -13.2073  -42.7472 H         1 UNK         0.0600 
    174 H174       -3.3134  -14.4824  -43.8150 H         1 UNK         0.3000 
    175 H175       -2.1771  -17.0334  -45.1449 H         1 UNK         0.0600 
    176 H176       -4.0177  -18.5626  -45.7570 H         1 UNK         0.0600 
    177 H177       -4.9778  -17.2269  -46.3684 H         1 UNK         0.0600 
    178 H178       -3.4739  -17.6751  -47.1720 H         1 UNK         0.0600 
    179 H179       -1.9793  -15.0642  -46.1050 H         1 UNK         0.3000 
    180 H180       -3.3496  -13.0093  -47.8369 H         1 UNK         0.0600 
    181 H181       -4.2422  -11.8409  -45.1445 H         1 UNK         0.0600 
    182 H182       -5.1957  -11.9190  -46.6190 H         1 UNK         0.0600 
    183 H183       -3.7784  -10.8866  -46.5530 H         1 UNK         0.0600 
    184 H184       -1.2743  -12.7341  -47.1827 H         1 UNK         0.3000 
    185 H185        0.4355  -11.6822  -45.5921 H         1 UNK         0.0600 
    186 H186        1.8855  -12.5267  -43.7805 H         1 UNK         0.0600 
    187 H187        0.3775  -11.9268  -43.1080 H         1 UNK         0.0600 
    188 H188        0.6385  -13.6581  -43.2654 H         1 UNK         0.0600 
    189 H189        1.2538  -13.3207  -46.8657 H         1 UNK         0.3000 
    190 H190        0.5819  -21.8181  -46.3469 H         1 UNK         0.3000 
    191 H191       -2.1589  -21.4760  -47.0038 H         1 UNK         0.0600 
    192 H192       -0.8232  -19.6164  -46.1939 H         1 UNK         0.0600 
    193 H193       -2.1135  -19.8935  -45.0347 H         1 UNK         0.0600 
    194 H194       -0.4825  -20.4431  -44.6750 H         1 UNK         0.0600 
    195 H195       -0.5953  -23.5387  -44.6335 H         1 UNK         0.3000 
    196 H196       -3.1992  -24.2315  -43.3436 H         1 UNK         0.0600 
    197 H197       -1.7577  -25.3572  -41.6603 H         1 UNK         0.0600 
    198 H198       -1.3558  -23.6520  -41.7942 H         1 UNK         0.0600 
    199 H199       -0.3113  -24.8633  -42.5327 H         1 UNK         0.0600 
    200 H200       -0.2981  -25.6661  -44.9216 H         1 UNK         0.3000 
    201 H201       -1.1592  -28.3362  -44.7523 H         1 UNK         0.0600 
    202 H202        1.2095  -27.6395  -44.9674 H         1 UNK         0.0600 
    203 H203        0.9182  -27.0542  -46.6036 H         1 UNK         0.0600 
    204 H204        0.7912  -28.7718  -46.2443 H         1 UNK         0.0600 
    205 H205       -1.5682  -25.9897  -47.4250 H         1 UNK         0.3000 
    206 H206       -3.1061  -28.0320  -48.9959 H         1 UNK         0.0600 
    207 H207       -0.9931  -27.2369  -50.0833 H         1 UNK         0.0600 
    208 H208       -2.4188  -26.7295  -50.9758 H         1 UNK         0.0600 
    209 H209       -1.5653  -25.5768  -49.9604 H         1 UNK         0.0600 
    210 H210       -3.6711  -25.6975  -46.8456 H         1 UNK         0.3000 
    211 H211       -5.2853  -24.3123  -46.2756 H         1 UNK         0.0600 
    212 H212       -7.0287  -25.6317  -48.4170 H         1 UNK         0.0600 
    213 H213       -7.5840  -24.7364  -47.0109 H         1 UNK         0.0600 
    214 H214       -6.7595  -26.2706  -46.7951 H         1 UNK         0.0600 
    215 H215       -3.3943  -23.4586  -48.2789 H         1 UNK         0.3000 
    216 H216       -2.7714  -21.6128  -49.2518 H         1 UNK         0.0600 
    217 H217       -4.1868  -20.4619  -47.4250 H         1 UNK         0.0600 
    218 H218       -5.4390  -20.2486  -48.6373 H         1 UNK         0.0600 
    219 H219       -3.8693  -19.4902  -48.8497 H         1 UNK         0.0600 
    220 H220       -3.4990  -19.7948  -50.9065 H         1 UNK         0.3000 
    221 H221       -5.3373  -20.4490  -52.9546 H         1 UNK         0.0600 
    222 H222       -2.3922  -21.0584  -53.5468 H         1 UNK         0.0600 
    223 H223       -3.7555  -22.1541  -53.7196 H         1 UNK         0.0600 
    224 H224       -3.5935  -20.7813  -54.8019 H         1 UNK         0.0600 
    225 H225       -2.1831  -18.8869  -52.2835 H         1 UNK         0.3000 
    226 H226       -1.4567  -16.7931  -52.2436 H         1 UNK         0.0600 
    227 H227       -3.0216  -16.6070  -50.3751 H         1 UNK         0.0600 
    228 H228       -2.9954  -15.0855  -51.2413 H         1 UNK         0.0600 
    229 H229       -4.3532  -16.1925  -51.4456 H         1 UNK         0.0600 
    230 H230       -4.3486  -15.1850  -53.2250 H         1 UNK         0.3000 
    231 H231       -3.1291  -13.8884  -55.4378 H         1 UNK         0.0600 
    232 H232       -5.4167  -12.9244  -55.7482 H         1 UNK         0.0600 
    233 H233       -4.9262  -12.8677  -54.0634 H         1 UNK         0.0600 
    234 H234       -6.0744  -14.0920  -54.6080 H         1 UNK         0.0600 
    235 H235       -4.7568  -16.9728  -55.2819 H         1 UNK         0.3000 
    236 H236       -5.5422  -17.1092  -58.0714 H         1 UNK         0.0600 
    237 H237       -6.6607  -18.4387  -56.2722 H         1 UNK         0.0600 
    238 H238       -6.0059  -19.4765  -57.5299 H         1 UNK         0.0600 
    239 H239       -5.1641  -19.3281  -55.9944 H         1 UNK         0.0600 
    240 H240       -2.4801  -17.4574  -56.4400 H         1 UNK         0.3000 
    241 H241       -1.2916  -19.3697  -58.2372 H         1 UNK         0.0600 
    242 H242        0.3310  -17.4550  -60.7540 H         1 UNK         0.3800 
    243 H243        0.1357  -19.0275  -60.0345 H         1 UNK         0.3800 
    244 H244        0.0692  -17.4392  -56.2924 H         1 UNK         0.0800 
    245 H245        0.8434  -18.7800  -57.1080 H         1 UNK         0.0800 
    246 H246        1.6180  -20.1795  -54.7149 H         1 UNK         0.0800 
    247 H247        1.2690  -18.5205  -54.2763 H         1 UNK         0.0800 
@<TRIPOS>BOND
     1    1    2 1    
     2    1  127 1    
     3    1  128 1    
     4    1  129 1    
     5    2    3 2    
     6    2    4 am   BACKBONE|DICT|INTERRES
     7    4    5 1    
     8    4  130 1    
     9    5    6 1    
    10    5   65 1    
    11    5  131 1    
    12    6    7 1    
    13    6  132 1    
    14    6  133 1    
    15    7    8 1    
    16    8    9 1    
    17    8  134 1    
    18    8  135 1    
    19    9   10 ar   
    20    9   14 ar   
    21   10   11 ar   
    22   10  136 1    
    23   11   12 ar   
    24   11  126 1    
    25   12   13 ar   
    26   12  137 1    
    27   13   14 ar   
    28   13   15 1    
    29   14  138 1    
    30   15   16 1    
    31   15  139 1    
    32   15  140 1    
    33   16   17 1    
    34   17   18 1    
    35   17  141 1    
    36   17  142 1    
    37   18   19 1    
    38   18   67 1    
    39   18  143 1    
    40   19   20 am   BACKBONE|DICT|INTERRES
    41   19  144 1    
    42   20   21 2    
    43   20   22 1    
    44   22   23 1    
    45   22   24 1    
    46   22  145 1    
    47   23  146 1    
    48   23  147 1    
    49   23  148 1    
    50   24   25 am   BACKBONE|DICT|INTERRES
    51   24  149 1    
    52   25   26 2    
    53   25   27 1    
    54   27   28 1    
    55   27   29 1    
    56   27  150 1    
    57   28  151 1    
    58   28  152 1    
    59   28  153 1    
    60   29   30 am   BACKBONE|DICT|INTERRES
    61   29  154 1    
    62   30   31 2    
    63   30   32 1    
    64   32   33 1    
    65   32   34 1    
    66   32  155 1    
    67   33  156 1    
    68   33  157 1    
    69   33  158 1    
    70   34   35 am   BACKBONE|DICT|INTERRES
    71   34  159 1    
    72   35   36 2    
    73   35   37 1    
    74   37   38 1    
    75   37   39 1    
    76   37  160 1    
    77   38  161 1    
    78   38  162 1    
    79   38  163 1    
    80   39   40 am   BACKBONE|DICT|INTERRES
    81   39  164 1    
    82   40   41 2    
    83   40   42 1    
    84   42   43 1    
    85   42   44 1    
    86   42  165 1    
    87   43  166 1    
    88   43  167 1    
    89   43  168 1    
    90   44   45 am   BACKBONE|DICT|INTERRES
    91   44  169 1    
    92   45   46 2    
    93   45   47 1    
    94   47   48 1    
    95   47   49 1    
    96   47  170 1    
    97   48  171 1    
    98   48  172 1    
    99   48  173 1    
   100   49   50 am   BACKBONE|DICT|INTERRES
   101   49  174 1    
   102   50   51 2    
   103   50   52 1    
   104   52   53 1    
   105   52   54 1    
   106   52  175 1    
   107   53  176 1    
   108   53  177 1    
   109   53  178 1    
   110   54   55 am   BACKBONE|DICT|INTERRES
   111   54  179 1    
   112   55   56 2    
   113   55   57 1    
   114   57   58 1    
   115   57   59 1    
   116   57  180 1    
   117   58  181 1    
   118   58  182 1    
   119   58  183 1    
   120   59   60 am   BACKBONE|DICT|INTERRES
   121   59  184 1    
   122   60   61 2    
   123   60   62 1    
   124   62   63 1    
   125   62   64 1    
   126   62  185 1    
   127   63  186 1    
   128   63  187 1    
   129   63  188 1    
   130   64   65 am   BACKBONE|DICT|INTERRES
   131   64  189 1    
   132   65   66 2    
   133   67   68 2    
   134   67   69 am   BACKBONE|DICT|INTERRES
   135   69   70 1    
   136   69  190 1    
   137   70   71 1    
   138   70   72 1    
   139   70  191 1    
   140   71  192 1    
   141   71  193 1    
   142   71  194 1    
   143   72   73 2    
   144   72   74 am   BACKBONE|DICT|INTERRES
   145   74   75 1    
   146   74  195 1    
   147   75   76 1    
   148   75   77 1    
   149   75  196 1    
   150   76  197 1    
   151   76  198 1    
   152   76  199 1    
   153   77   78 2    
   154   77   79 am   BACKBONE|DICT|INTERRES
   155   79   80 1    
   156   79  200 1    
   157   80   81 1    
   158   80   82 1    
   159   80  201 1    
   160   81  202 1    
   161   81  203 1    
   162   81  204 1    
   163   82   83 2    
   164   82   84 am   BACKBONE|DICT|INTERRES
   165   84   85 1    
   166   84  205 1    
   167   85   86 1    
   168   85   87 1    
   169   85  206 1    
   170   86  207 1    
   171   86  208 1    
   172   86  209 1    
   173   87   88 2    
   174   87   89 am   BACKBONE|DICT|INTERRES
   175   89   90 1    
   176   89  210 1    
   177   90   91 1    
   178   90   92 1    
   179   90  211 1    
   180   91  212 1    
   181   91  213 1    
   182   91  214 1    
   183   92   93 2    
   184   92   94 am   BACKBONE|DICT|INTERRES
   185   94   95 1    
   186   94  215 1    
   187   95   96 1    
   188   95   97 1    
   189   95  216 1    
   190   96  217 1    
   191   96  218 1    
   192   96  219 1    
   193   97   98 2    
   194   97   99 am   BACKBONE|DICT|INTERRES
   195   99  100 1    
   196   99  220 1    
   197  100  101 1    
   198  100  102 1    
   199  100  221 1    
   200  101  222 1    
   201  101  223 1    
   202  101  224 1    
   203  102  103 2    
   204  102  104 am   BACKBONE|DICT|INTERRES
   205  104  105 1    
   206  104  225 1    
   207  105  106 1    
   208  105  107 1    
   209  105  226 1    
   210  106  227 1    
   211  106  228 1    
   212  106  229 1    
   213  107  108 2    
   214  107  109 am   BACKBONE|DICT|INTERRES
   215  109  110 1    
   216  109  230 1    
   217  110  111 1    
   218  110  112 1    
   219  110  231 1    
   220  111  232 1    
   221  111  233 1    
   222  111  234 1    
   223  112  113 2    
   224  112  114 am   BACKBONE|DICT|INTERRES
   225  114  115 1    
   226  114  235 1    
   227  115  116 1    
   228  115  117 1    
   229  115  236 1    
   230  116  237 1    
   231  116  238 1    
   232  116  239 1    
   233  117  118 2    
   234  117  119 am   BACKBONE|DICT|INTERRES
   235  119  120 1    
   236  119  240 1    
   237  120  121 1    
   238  120  124 1    
   239  120  241 1    
   240  121  122 am   BACKBONE|DICT|INTERRES
   241  121  123 2    
   242  122  242 1    
   243  122  243 1    
   244  124  125 1    
   245  124  244 1    
   246  124  245 1    
   247  125  126 1    
   248  126  246 1    
   249  126  247 1    
@<TRIPOS>SUBSTRUCTURE
     1 UNK         1 GROUP             0       ****    0 ROOT    
