@<TRIPOS>MOLECULE
3R540
247   249    1
SMALL
USER_CHARGES


@<TRIPOS>ATOM
      1 CA          5.8251  -14.8169  -52.0760 C.3       0 UNK        -0.1800 
      2 C           5.3615  -14.8655  -50.6269 C.2       0 UNK         0.5000 
      3 O           5.8354  -15.7039  -49.8598 O.2       0 UNK        -0.5000 
      4 N           4.4326  -13.9777  -50.2523 N.am      1 UNK        -0.5000 
      5 CA          3.9161  -13.8378  -48.8890 C.3       1 UNK         0.1400 
      6 C6          2.5832  -13.0447  -48.8692 C.3       23 UNK        -0.0398 
      7 S7          1.5330  -13.4759  -47.4351 S.3       23 UNK        -0.2404 
      8 C8         -0.0950  -13.7290  -48.2296 C.3       23 UNK        -0.0205 
      9 C9         -0.3456  -15.1386  -48.7691 C.ar      23 UNK        -0.0193 
     10 C10        -1.6386  -15.6686  -48.7058 C.ar      23 UNK        -0.1150 
     11 C11        -1.9123  -16.9466  -49.1992 C.ar      23 UNK        -0.0193 
     12 C12        -0.8900  -17.6918  -49.7873 C.ar      23 UNK        -0.1150 
     13 C13         0.4161  -17.1951  -49.8320 C.ar      23 UNK        -0.0193 
     14 C14         0.6730  -15.9141  -49.3371 C.ar      23 UNK        -0.1150 
     15 C15         1.5710  -18.0258  -50.3881 C.3       23 UNK        -0.0205 
     16 S16         1.4688  -19.8150  -50.0284 S.3       23 UNK        -0.2404 
     17 C17         1.2155  -19.8433  -48.2163 C.3       23 UNK        -0.0398 
     18 CA          0.7693  -21.2238  -47.6813 C.3       11 UNK         0.1400 
     19 N           0.7645  -21.2540  -46.2195 N.am      11 UNK        -0.5000 
     20 C           0.6457  -22.3642  -45.4794 C.2       10 UNK         0.5000 
     21 O           0.5767  -23.4989  -45.9514 O.2       10 UNK        -0.5000 
     22 CA          0.5343  -22.1676  -43.9578 C.3       10 UNK         0.1400 
     23 CB          1.9167  -21.9227  -43.3355 C.3       10 UNK        -0.1800 
     24 N          -0.3733  -21.0751  -43.6022 N.am      10 UNK        -0.5000 
     25 C          -1.6860  -21.0687  -43.8767 C.2       9 UNK         0.5000 
     26 O          -2.2735  -22.0062  -44.4159 O.2       9 UNK        -0.5000 
     27 CA         -2.4706  -19.7928  -43.5252 C.3       9 UNK         0.1400 
     28 CB         -2.8188  -19.7651  -42.0297 C.3       9 UNK        -0.1800 
     29 N          -1.7622  -18.5661  -43.8924 N.am      9 UNK        -0.5000 
     30 C          -1.4535  -18.2098  -45.1481 C.2       8 UNK         0.5000 
     31 O          -1.7533  -18.8720  -46.1397 O.2       8 UNK        -0.5000 
     32 CA         -0.6219  -16.9268  -45.3233 C.3       8 UNK         0.1400 
     33 CB         -1.4934  -15.6750  -45.1459 C.3       8 UNK        -0.1800 
     34 N           0.5092  -16.8685  -44.3998 N.am      8 UNK        -0.5000 
     35 C           1.5098  -17.7597  -44.3646 C.2       7 UNK         0.5000 
     36 O           1.6209  -18.7037  -45.1467 O.2       7 UNK        -0.5000 
     37 CA          2.5293  -17.5963  -43.2270 C.3       7 UNK         0.1400 
     38 CB          3.5550  -16.5060  -43.5653 C.3       7 UNK        -0.1800 
     39 N           1.8788  -17.2855  -41.9542 N.am      7 UNK        -0.5000 
     40 C           1.1130  -18.1461  -41.2682 C.2       6 UNK         0.5000 
     41 O           0.8959  -19.3039  -41.6235 O.2       6 UNK        -0.5000 
     42 CA          0.4449  -17.6065  -39.9913 C.3       6 UNK         0.1400 
     43 CB          1.4248  -17.6401  -38.8090 C.3       6 UNK        -0.1800 
     44 N          -0.0681  -16.2466  -40.1603 N.am      6 UNK        -0.5000 
     45 C          -1.0771  -15.9165  -40.9786 C.2       5 UNK         0.5000 
     46 O          -1.7001  -16.7295  -41.6593 O.2       5 UNK        -0.5000 
     47 CA         -1.4179  -14.4201  -41.0879 C.3       5 UNK         0.1400 
     48 CB         -2.4032  -14.0086  -39.9838 C.3       5 UNK        -0.1800 
     49 N          -0.2394  -13.5507  -41.0387 N.am      5 UNK        -0.5000 
     50 C           0.7466  -13.5565  -41.9444 C.2       4 UNK         0.5000 
     51 O           0.8042  -14.3399  -42.8966 O.2       4 UNK        -0.5000 
     52 CA          1.8724  -12.5382  -41.7371 C.3       4 UNK         0.1400 
     53 CB          3.0674  -13.1871  -41.0202 C.3       4 UNK        -0.1800 
     54 N           2.2958  -12.0630  -43.0475 N.am      4 UNK        -0.5000 
     55 C           2.5348  -10.7891  -43.3782 C.2       3 UNK         0.5000 
     56 O           2.4810   -9.8514  -42.5800 O.2       3 UNK        -0.5000 
     57 CA          2.8909  -10.5395  -44.8585 C.3       3 UNK         0.1400 
     58 CB          3.4040   -9.1110  -45.1380 C.3       3 UNK        -0.1800 
     59 N           3.8153  -11.5510  -45.3822 N.am      3 UNK        -0.5000 
     60 C           5.0807  -11.7857  -44.9958 C.2       2 UNK         0.5000 
     61 O           5.6772  -11.1171  -44.1511 O.2       2 UNK        -0.5000 
     62 CA          5.8020  -12.9875  -45.6444 C.3       2 UNK         0.1400 
     63 CB          6.1346  -14.0481  -44.5833 C.3       2 UNK        -0.1800 
     64 N           5.0109  -13.6135  -46.7087 N.am      2 UNK        -0.5000 
     65 C           4.9611  -13.1711  -47.9713 C.2       1 UNK         0.5000 
     66 O           5.6498  -12.2418  -48.4000 O.2       1 UNK        -0.5000 
     67 C          -0.5821  -21.7001  -48.2623 C.2       11 UNK         0.5000 
     68 O          -0.5762  -22.5305  -49.1697 O.2       11 UNK        -0.5000 
     69 N          -1.7093  -21.2336  -47.6998 N.am      12 UNK        -0.5000 
     70 CA         -3.0618  -21.6714  -48.0634 C.3       12 UNK         0.1400 
     71 CB         -4.1138  -20.8879  -47.2607 C.3       12 UNK        -0.1800 
     72 C          -3.2748  -23.1823  -47.8649 C.2       12 UNK         0.5000 
     73 O          -3.8378  -23.8325  -48.7458 O.2       12 UNK        -0.5000 
     74 N          -2.7951  -23.7100  -46.7294 N.am      13 UNK        -0.5000 
     75 CA         -2.8258  -25.1313  -46.3897 C.3       13 UNK         0.1400 
     76 CB         -2.4094  -25.3236  -44.9238 C.3       13 UNK        -0.1800 
     77 C          -1.9527  -25.9826  -47.3275 C.2       13 UNK         0.5000 
     78 O          -2.4149  -27.0212  -47.7996 O.2       13 UNK        -0.5000 
     79 N          -0.7305  -25.5136  -47.6198 N.am      14 UNK        -0.5000 
     80 CA          0.1997  -26.1431  -48.5630 C.3       14 UNK         0.1400 
     81 CB          1.5598  -25.4327  -48.4946 C.3       14 UNK        -0.1800 
     82 C          -0.3344  -26.1601  -50.0085 C.2       14 UNK         0.5000 
     83 O          -0.1527  -27.1500  -50.7177 O.2       14 UNK        -0.5000 
     84 N          -1.0216  -25.0797  -50.3984 N.am      15 UNK        -0.5000 
     85 CA         -1.7237  -24.9275  -51.6719 C.3       15 UNK         0.1400 
     86 CB         -1.9384  -23.4273  -51.9234 C.3       15 UNK        -0.1800 
     87 C          -3.0743  -25.6711  -51.7315 C.2       15 UNK         0.5000 
     88 O          -3.7176  -25.6538  -52.7842 O.2       15 UNK        -0.5000 
     89 N          -3.5101  -26.2523  -50.6021 N.am      16 UNK        -0.5000 
     90 CA         -4.7734  -26.9657  -50.3741 C.3       16 UNK         0.1400 
     91 CB         -4.7731  -28.2974  -51.1521 C.3       16 UNK        -0.1800 
     92 C          -6.0321  -26.1175  -50.6640 C.2       16 UNK         0.5000 
     93 O          -7.0876  -26.6757  -50.9680 O.2       16 UNK        -0.5000 
     94 N          -5.8827  -24.7838  -50.6085 N.am      17 UNK        -0.5000 
     95 CA         -6.8309  -23.7550  -51.0547 C.3       17 UNK         0.1400 
     96 CB         -8.0284  -23.6772  -50.0864 C.3       17 UNK        -0.1800 
     97 C          -7.2631  -23.9087  -52.5352 C.2       17 UNK         0.5000 
     98 O          -8.3615  -23.4841  -52.8985 O.2       17 UNK        -0.5000 
     99 N          -6.4056  -24.5350  -53.3548 N.am      18 UNK        -0.5000 
    100 CA        -6.6693  -24.8763  -54.7515 C.3       18 UNK         0.1400 
    101 CB        -6.6919  -26.4065  -54.8983 C.3       18 UNK        -0.1800 
    102 C         -5.6144  -24.2573  -55.6777 C.2       18 UNK         0.5000 
    103 O         -5.9745  -23.6845  -56.7066 O.2       18 UNK        -0.5000 
    104 N         -4.3332  -24.3574  -55.2936 N.am      19 UNK        -0.5000 
    105 CA        -3.2072  -23.7657  -56.0246 C.3       19 UNK         0.1400 
    106 CB        -1.9330  -24.5700  -55.7222 C.3       19 UNK        -0.1800 
    107 C         -3.0099  -22.2665  -55.7135 C.2       19 UNK         0.5000 
    108 O         -2.2224  -21.6066  -56.3927 O.2       19 UNK        -0.5000 
    109 N         -3.7279  -21.7590  -54.7055 N.am      20 UNK        -0.5000 
    110 CA        -3.8114  -20.3558  -54.3221 C.3       20 UNK         0.1400 
    111 CB        -3.2328  -20.1824  -52.9064 C.3       20 UNK        -0.1800 
    112 C         -5.2900  -19.9460  -54.3512 C.2       20 UNK         0.5000 
    113 O         -6.1624  -20.7861  -54.1179 O.2       20 UNK        -0.5000 
    114 N         -5.5435  -18.6579  -54.6095 N.am      21 UNK        -0.5000 
    115 CA        -6.8857  -18.0674  -54.6682 C.3       21 UNK         0.1400 
    116 CB        -6.8032  -16.7453  -55.4486 C.3       21 UNK        -0.1800 
    117 C         -7.5277  -17.8391  -53.2826 C.2       21 UNK         0.5000 
    118 O         -8.7162  -17.5221  -53.2150 O.2       21 UNK        -0.5000 
    119 N         -6.7286  -17.9718  -52.2171 N.am      22 UNK        -0.5000 
    120 CA        -7.1057  -17.8113  -50.8064 C.3       22 UNK         0.1400 
    121 C         -8.2634  -18.7515  -50.3664 C.2       22 UNK         0.5000 
    122 N         -9.2514  -18.2388  -49.6456 N.am      22 UNK        -0.7600 
    123 O         -8.2445  -19.9511  -50.6303 O.2       22 UNK        -0.5000 
    124 C124       -5.8829  -18.0241  -49.8801 C.3       23 UNK        -0.0398 
    125 S125       -4.4650  -16.9496  -50.2869 S.3       23 UNK        -0.2404 
    126 C126       -3.2930  -17.5555  -49.0422 C.3       23 UNK        -0.0205 
    127 H127        5.6285  -15.7710  -52.5650 H         1 UNK         0.0600 
    128 H128        6.8970  -14.6240  -52.1205 H         1 UNK         0.0600 
    129 H129        5.3153  -14.0348  -52.6392 H         1 UNK         0.0600 
    130 H130        4.1136  -13.2884  -50.9180 H         1 UNK         0.3000 
    131 H131        3.7285  -14.8471  -48.5153 H         1 UNK         0.0600 
    132 H132        2.7522  -11.9659  -48.8789 H         1 UNK         0.0800 
    133 H133        2.0187  -13.2511  -49.7795 H         1 UNK         0.0800 
    134 H134       -0.2307  -13.0080  -49.0365 H         1 UNK         0.0800 
    135 H135       -0.8544  -13.4879  -47.4845 H         1 UNK         0.0800 
    136 H136       -2.4371  -15.0915  -48.2611 H         1 UNK         0.1150 
    137 H137       -1.1048  -18.6802  -50.1682 H         1 UNK         0.1150 
    138 H138        1.6791  -15.5339  -49.3922 H         1 UNK         0.1150 
    139 H139        1.6098  -17.8877  -51.4691 H         1 UNK         0.0800 
    140 H140        2.5209  -17.6590  -49.9954 H         1 UNK         0.0800 
    141 H141        0.4942  -19.0839  -47.9150 H         1 UNK         0.0800 
    142 H142        2.1596  -19.5563  -47.7513 H         1 UNK         0.0800 
    143 H143        1.5214  -21.9481  -48.0017 H         1 UNK         0.0600 
    144 H144        0.8528  -20.3571  -45.7490 H         1 UNK         0.3000 
    145 H145        0.1300  -23.0889  -43.5335 H         1 UNK         0.0600 
    146 H146        1.8555  -21.8756  -42.2482 H         1 UNK         0.0600 
    147 H147        2.6073  -22.7285  -43.5876 H         1 UNK         0.0600 
    148 H148        2.3576  -20.9892  -43.6861 H         1 UNK         0.0600 
    149 H149        0.0337  -20.2867  -43.1083 H         1 UNK         0.3000 
    150 H150       -3.4055  -19.8150  -44.0887 H         1 UNK         0.0600 
    151 H151       -3.3512  -20.6702  -41.7348 H         1 UNK         0.0600 
    152 H152       -3.4619  -18.9178  -41.7913 H         1 UNK         0.0600 
    153 H153       -1.9250  -19.6913  -41.4094 H         1 UNK         0.0600 
    154 H154       -1.5175  -17.9408  -43.1293 H         1 UNK         0.3000 
    155 H155       -0.2212  -16.9252  -46.3390 H         1 UNK         0.0600 
    156 H156       -2.3352  -15.6834  -45.8385 H         1 UNK         0.0600 
    157 H157       -0.9197  -14.7678  -45.3353 H         1 UNK         0.0600 
    158 H158       -1.9016  -15.6064  -44.1382 H         1 UNK         0.0600 
    159 H159        0.5216  -16.0944  -43.7425 H         1 UNK         0.3000 
    160 H160        3.0631  -18.5425  -43.1153 H         1 UNK         0.0600 
    161 H161        3.0822  -15.5328  -43.6985 H         1 UNK         0.0600 
    162 H162        4.0825  -16.7431  -44.4900 H         1 UNK         0.0600 
    163 H163        4.3040  -16.4122  -42.7788 H         1 UNK         0.0600 
    164 H164        1.9605  -16.3372  -41.6204 H         1 UNK         0.3000 
    165 H165       -0.3976  -18.2601  -39.7551 H         1 UNK         0.0600 
    166 H166        0.9365  -17.3339  -37.8838 H         1 UNK         0.0600 
    167 H167        1.8122  -18.6478  -38.6526 H         1 UNK         0.0600 
    168 H168        2.2789  -16.9816  -38.9722 H         1 UNK         0.0600 
    169 H169        0.3885  -15.5141  -39.6374 H         1 UNK         0.3000 
    170 H170       -1.9052  -14.2640  -42.0524 H         1 UNK         0.0600 
    171 H171       -3.3000  -14.6293  -40.0101 H         1 UNK         0.0600 
    172 H172       -1.9629  -14.1098  -38.9911 H         1 UNK         0.0600 
    173 H173       -2.7231  -12.9736  -40.1061 H         1 UNK         0.0600 
    174 H174       -0.2061  -12.8834  -40.2813 H         1 UNK         0.3000 
    175 H175        1.4922  -11.7113  -41.1335 H         1 UNK         0.0600 
    176 H176        2.7793  -13.5633  -40.0379 H         1 UNK         0.0600 
    177 H177        3.4744  -14.0239  -41.5890 H         1 UNK         0.0600 
    178 H178        3.8714  -12.4662  -40.8698 H         1 UNK         0.0600 
    179 H179        2.2935  -12.7694  -43.7708 H         1 UNK         0.3000 
    180 H180        1.9609  -10.6632  -45.4155 H         1 UNK         0.0600 
    181 H181        4.2991   -8.8777  -44.5609 H         1 UNK         0.0600 
    182 H182        2.6481   -8.3689  -44.8788 H         1 UNK         0.0600 
    183 H183        3.6406   -8.9772  -46.1935 H         1 UNK         0.0600 
    184 H184        3.4240  -12.1718  -46.0758 H         1 UNK         0.3000 
    185 H185        6.7421  -12.6221  -46.0633 H         1 UNK         0.0600 
    186 H186        6.8356  -13.6541  -43.8464 H         1 UNK         0.0600 
    187 H187        5.2437  -14.3649  -44.0433 H         1 UNK         0.0600 
    188 H188        6.5951  -14.9299  -45.0293 H         1 UNK         0.0600 
    189 H189        4.4186  -14.3840  -46.4333 H         1 UNK         0.3000 
    190 H190       -1.6448  -20.5134  -46.9835 H         1 UNK         0.3000 
    191 H191       -3.2031  -21.4476  -49.1226 H         1 UNK         0.0600 
    192 H192       -4.0617  -21.1157  -46.1964 H         1 UNK         0.0600 
    193 H193       -5.1212  -21.1361  -47.5974 H         1 UNK         0.0600 
    194 H194       -3.9934  -19.8125  -47.3676 H         1 UNK         0.0600 
    195 H195       -2.3932  -23.0860  -46.0352 H         1 UNK         0.3000 
    196 H196       -3.8570  -25.4748  -46.4952 H         1 UNK         0.0600 
    197 H197       -2.4414  -26.3770  -44.6431 H         1 UNK         0.0600 
    198 H198       -3.0790  -24.7868  -44.2515 H         1 UNK         0.0600 
    199 H199       -1.3964  -24.9647  -44.7407 H         1 UNK         0.0600 
    200 H200       -0.4056  -24.6684  -47.1577 H         1 UNK         0.3000 
    201 H201        0.3409  -27.1795  -48.2498 H         1 UNK         0.0600 
    202 H202        1.9792  -25.4805  -47.4895 H         1 UNK         0.0600 
    203 H203        1.4789  -24.3817  -48.7732 H         1 UNK         0.0600 
    204 H204        2.2786  -25.8979  -49.1701 H         1 UNK         0.0600 
    205 H205       -1.0518  -24.2758  -49.7757 H         1 UNK         0.3000 
    206 H206       -1.0942  -25.3285  -52.4681 H         1 UNK         0.0600 
    207 H207       -0.9889  -22.8939  -51.9717 H         1 UNK         0.0600 
    208 H208       -2.4545  -23.2538  -52.8644 H         1 UNK         0.0600 
    209 H209       -2.5390  -22.9701  -51.1367 H         1 UNK         0.0600 
    210 H210       -2.9196  -26.1729  -49.7838 H         1 UNK         0.3000 
    211 H211       -4.8043  -27.1995  -49.3092 H         1 UNK         0.0600 
    212 H212       -4.8090  -28.1345  -52.2299 H         1 UNK         0.0600 
    213 H213       -5.6344  -28.9103  -50.8845 H         1 UNK         0.0600 
    214 H214       -3.8802  -28.8821  -50.9305 H         1 UNK         0.0600 
    215 H215       -4.9993  -24.4372  -50.2450 H         1 UNK         0.3000 
    216 H216       -6.2978  -22.8049  -50.9958 H         1 UNK         0.0600 
    217 H217       -8.6675  -22.8254  -50.3220 H         1 UNK         0.0600 
    218 H218       -7.6937  -23.5530  -49.0566 H         1 UNK         0.0600 
    219 H219       -8.6460  -24.5744  -50.1342 H         1 UNK         0.0600 
    220 H220       -5.5290  -24.8725  -52.9710 H         1 UNK         0.3000 
    221 H221       -7.6418  -24.4919  -55.0655 H         1 UNK         0.0600 
    222 H222       -5.7465  -26.8566  -54.5921 H         1 UNK         0.0600 
    223 H223       -7.4809  -26.8459  -54.2876 H         1 UNK         0.0600 
    224 H224       -6.8780  -26.6985  -55.9325 H         1 UNK         0.0600 
    225 H225       -4.1050  -24.8651  -54.4426 H         1 UNK         0.3000 
    226 H226       -3.4007  -23.8471  -57.0962 H         1 UNK         0.0600 
    227 H227       -2.0600  -25.6209  -55.9826 H         1 UNK         0.0600 
    228 H228       -1.0872  -24.1934  -56.2987 H         1 UNK         0.0600 
    229 H229       -1.6590  -24.5180  -54.6704 H         1 UNK         0.0600 
    230 H230       -4.4195  -22.3558  -54.2736 H         1 UNK         0.3000 
    231 H231       -3.2553  -19.7279  -55.0214 H         1 UNK         0.0600 
    232 H232       -2.1874  -20.4893  -52.8692 H         1 UNK         0.0600 
    233 H233       -3.7801  -20.7729  -52.1703 H         1 UNK         0.0600 
    234 H234       -3.2745  -19.1399  -52.5882 H         1 UNK         0.0600 
    235 H235       -4.7721  -18.0289  -54.7823 H         1 UNK         0.3000 
    236 H236       -7.5398  -18.7468  -55.2190 H         1 UNK         0.0600 
    237 H237       -7.7889  -16.2901  -55.5548 H         1 UNK         0.0600 
    238 H238       -6.1602  -16.0214  -54.9463 H         1 UNK         0.0600 
    239 H239       -6.4118  -16.9035  -56.4537 H         1 UNK         0.0600 
    240 H240       -5.7666  -18.2227  -52.3829 H         1 UNK         0.3000 
    241 H241       -7.4421  -16.7794  -50.6901 H         1 UNK         0.0600 
    242 H242       -9.9983  -18.8439  -49.3416 H         1 UNK         0.3800 
    243 H243       -9.2847  -17.2583  -49.4119 H         1 UNK         0.3800 
    244 H244       -6.1607  -17.8372  -48.8409 H         1 UNK         0.0800 
    245 H245       -5.5502  -19.0632  -49.9272 H         1 UNK         0.0800 
    246 H246       -3.2205  -18.6398  -49.1289 H         1 UNK         0.0800 
    247 H247       -3.6744  -17.3466  -48.0414 H         1 UNK         0.0800 
@<TRIPOS>BOND
     1    1    2 1    
     2    1  127 1    
     3    1  128 1    
     4    1  129 1    
     5    2    3 2    
     6    2    4 am   BACKBONE|DICT|INTERRES
     7    4    5 1    
     8    4  130 1    
     9    5    6 1    
    10    5   65 1    
    11    5  131 1    
    12    6    7 1    
    13    6  132 1    
    14    6  133 1    
    15    7    8 1    
    16    8    9 1    
    17    8  134 1    
    18    8  135 1    
    19    9   10 ar   
    20    9   14 ar   
    21   10   11 ar   
    22   10  136 1    
    23   11   12 ar   
    24   11  126 1    
    25   12   13 ar   
    26   12  137 1    
    27   13   14 ar   
    28   13   15 1    
    29   14  138 1    
    30   15   16 1    
    31   15  139 1    
    32   15  140 1    
    33   16   17 1    
    34   17   18 1    
    35   17  141 1    
    36   17  142 1    
    37   18   19 1    
    38   18   67 1    
    39   18  143 1    
    40   19   20 am   BACKBONE|DICT|INTERRES
    41   19  144 1    
    42   20   21 2    
    43   20   22 1    
    44   22   23 1    
    45   22   24 1    
    46   22  145 1    
    47   23  146 1    
    48   23  147 1    
    49   23  148 1    
    50   24   25 am   BACKBONE|DICT|INTERRES
    51   24  149 1    
    52   25   26 2    
    53   25   27 1    
    54   27   28 1    
    55   27   29 1    
    56   27  150 1    
    57   28  151 1    
    58   28  152 1    
    59   28  153 1    
    60   29   30 am   BACKBONE|DICT|INTERRES
    61   29  154 1    
    62   30   31 2    
    63   30   32 1    
    64   32   33 1    
    65   32   34 1    
    66   32  155 1    
    67   33  156 1    
    68   33  157 1    
    69   33  158 1    
    70   34   35 am   BACKBONE|DICT|INTERRES
    71   34  159 1    
    72   35   36 2    
    73   35   37 1    
    74   37   38 1    
    75   37   39 1    
    76   37  160 1    
    77   38  161 1    
    78   38  162 1    
    79   38  163 1    
    80   39   40 am   BACKBONE|DICT|INTERRES
    81   39  164 1    
    82   40   41 2    
    83   40   42 1    
    84   42   43 1    
    85   42   44 1    
    86   42  165 1    
    87   43  166 1    
    88   43  167 1    
    89   43  168 1    
    90   44   45 am   BACKBONE|DICT|INTERRES
    91   44  169 1    
    92   45   46 2    
    93   45   47 1    
    94   47   48 1    
    95   47   49 1    
    96   47  170 1    
    97   48  171 1    
    98   48  172 1    
    99   48  173 1    
   100   49   50 am   BACKBONE|DICT|INTERRES
   101   49  174 1    
   102   50   51 2    
   103   50   52 1    
   104   52   53 1    
   105   52   54 1    
   106   52  175 1    
   107   53  176 1    
   108   53  177 1    
   109   53  178 1    
   110   54   55 am   BACKBONE|DICT|INTERRES
   111   54  179 1    
   112   55   56 2    
   113   55   57 1    
   114   57   58 1    
   115   57   59 1    
   116   57  180 1    
   117   58  181 1    
   118   58  182 1    
   119   58  183 1    
   120   59   60 am   BACKBONE|DICT|INTERRES
   121   59  184 1    
   122   60   61 2    
   123   60   62 1    
   124   62   63 1    
   125   62   64 1    
   126   62  185 1    
   127   63  186 1    
   128   63  187 1    
   129   63  188 1    
   130   64   65 am   BACKBONE|DICT|INTERRES
   131   64  189 1    
   132   65   66 2    
   133   67   68 2    
   134   67   69 am   BACKBONE|DICT|INTERRES
   135   69   70 1    
   136   69  190 1    
   137   70   71 1    
   138   70   72 1    
   139   70  191 1    
   140   71  192 1    
   141   71  193 1    
   142   71  194 1    
   143   72   73 2    
   144   72   74 am   BACKBONE|DICT|INTERRES
   145   74   75 1    
   146   74  195 1    
   147   75   76 1    
   148   75   77 1    
   149   75  196 1    
   150   76  197 1    
   151   76  198 1    
   152   76  199 1    
   153   77   78 2    
   154   77   79 am   BACKBONE|DICT|INTERRES
   155   79   80 1    
   156   79  200 1    
   157   80   81 1    
   158   80   82 1    
   159   80  201 1    
   160   81  202 1    
   161   81  203 1    
   162   81  204 1    
   163   82   83 2    
   164   82   84 am   BACKBONE|DICT|INTERRES
   165   84   85 1    
   166   84  205 1    
   167   85   86 1    
   168   85   87 1    
   169   85  206 1    
   170   86  207 1    
   171   86  208 1    
   172   86  209 1    
   173   87   88 2    
   174   87   89 am   BACKBONE|DICT|INTERRES
   175   89   90 1    
   176   89  210 1    
   177   90   91 1    
   178   90   92 1    
   179   90  211 1    
   180   91  212 1    
   181   91  213 1    
   182   91  214 1    
   183   92   93 2    
   184   92   94 am   BACKBONE|DICT|INTERRES
   185   94   95 1    
   186   94  215 1    
   187   95   96 1    
   188   95   97 1    
   189   95  216 1    
   190   96  217 1    
   191   96  218 1    
   192   96  219 1    
   193   97   98 2    
   194   97   99 am   BACKBONE|DICT|INTERRES
   195   99  100 1    
   196   99  220 1    
   197  100  101 1    
   198  100  102 1    
   199  100  221 1    
   200  101  222 1    
   201  101  223 1    
   202  101  224 1    
   203  102  103 2    
   204  102  104 am   BACKBONE|DICT|INTERRES
   205  104  105 1    
   206  104  225 1    
   207  105  106 1    
   208  105  107 1    
   209  105  226 1    
   210  106  227 1    
   211  106  228 1    
   212  106  229 1    
   213  107  108 2    
   214  107  109 am   BACKBONE|DICT|INTERRES
   215  109  110 1    
   216  109  230 1    
   217  110  111 1    
   218  110  112 1    
   219  110  231 1    
   220  111  232 1    
   221  111  233 1    
   222  111  234 1    
   223  112  113 2    
   224  112  114 am   BACKBONE|DICT|INTERRES
   225  114  115 1    
   226  114  235 1    
   227  115  116 1    
   228  115  117 1    
   229  115  236 1    
   230  116  237 1    
   231  116  238 1    
   232  116  239 1    
   233  117  118 2    
   234  117  119 am   BACKBONE|DICT|INTERRES
   235  119  120 1    
   236  119  240 1    
   237  120  121 1    
   238  120  124 1    
   239  120  241 1    
   240  121  122 am   BACKBONE|DICT|INTERRES
   241  121  123 2    
   242  122  242 1    
   243  122  243 1    
   244  124  125 1    
   245  124  244 1    
   246  124  245 1    
   247  125  126 1    
   248  126  246 1    
   249  126  247 1    
@<TRIPOS>SUBSTRUCTURE
     1 UNK         1 GROUP             0       ****    0 ROOT    
