@<TRIPOS>MOLECULE
3R540
247   249    1
SMALL
USER_CHARGES


@<TRIPOS>ATOM
      1 CA         -0.5815  -12.3418  -42.7418 C.3       0 UNK        -0.1800 
      2 C          -1.1218  -12.4838  -44.1577 C.2       0 UNK         0.5000 
      3 O          -2.1749  -13.0883  -44.3514 O.2       0 UNK        -0.5000 
      4 N          -0.3855  -11.9666  -45.1447 N.am      1 UNK        -0.5000 
      5 CA         -0.7086  -11.9429  -46.5703 C.3       1 UNK         0.1400 
      6 C6         -0.7704  -13.3577  -47.2162 C.3       23 UNK        -0.0398 
      7 S7         -1.8014  -13.3860  -48.7192 S.3       23 UNK        -0.2404 
      8 C8         -0.9785  -14.6843  -49.6978 C.3       23 UNK        -0.0205 
      9 C9         -1.1644  -16.0894  -49.1350 C.ar      23 UNK        -0.0193 
     10 C10        -2.4230  -16.5327  -48.7106 C.ar      23 UNK        -0.1150 
     11 C11        -2.6010  -17.8429  -48.2618 C.ar      23 UNK        -0.0193 
     12 C12        -1.5103  -18.7124  -48.2474 C.ar      23 UNK        -0.1150 
     13 C13        -0.2496  -18.2952  -48.6787 C.ar      23 UNK        -0.0193 
     14 C14        -0.0823  -16.9765  -49.1126 C.ar      23 UNK        -0.1150 
     15 C15         0.8918  -19.2996  -48.7906 C.3       23 UNK        -0.0205 
     16 S16         1.9923  -19.3535  -47.3419 S.3       23 UNK        -0.2404 
     17 C17         0.9664  -20.1180  -46.0458 C.3       23 UNK        -0.0398 
     18 CA          0.7126  -21.6425  -46.2358 C.3       11 UNK         0.1400 
     19 N           0.9995  -22.4036  -45.0168 N.am      11 UNK        -0.5000 
     20 C           0.9403  -23.7386  -44.8964 C.2       10 UNK         0.5000 
     21 O           0.6975  -24.5064  -45.8280 O.2       10 UNK        -0.5000 
     22 CA          1.1193  -24.2970  -43.4720 C.3       10 UNK         0.1400 
     23 CB          2.6063  -24.5156  -43.1586 C.3       10 UNK        -0.1800 
     24 N           0.5317  -23.4295  -42.4471 N.am      10 UNK        -0.5000 
     25 C          -0.7646  -23.1063  -42.3563 C.2       9 UNK         0.5000 
     26 O          -1.6231  -23.5336  -43.1265 O.2       9 UNK        -0.5000 
     27 CA         -1.1710  -22.0944  -41.2720 C.3       9 UNK         0.1400 
     28 CB         -1.3392  -22.7740  -39.9004 C.3       9 UNK        -0.1800 
     29 N          -0.3011  -20.9137  -41.1971 N.am      9 UNK        -0.5000 
     30 C           0.9694  -20.8163  -40.7711 C.2       8 UNK         0.5000 
     31 O           1.6448  -21.7827  -40.4152 O.2       8 UNK        -0.5000 
     32 CA          1.6120  -19.4121  -40.7626 C.3       8 UNK         0.1400 
     33 CB          2.6916  -19.3104  -41.8511 C.3       8 UNK        -0.1800 
     34 N           0.6434  -18.3294  -40.9508 N.am      8 UNK        -0.5000 
     35 C          -0.2599  -17.9462  -40.0351 C.2       7 UNK         0.5000 
     36 O          -0.2944  -18.3968  -38.8897 O.2       7 UNK        -0.5000 
     37 CA         -1.3222  -16.9123  -40.4647 C.3       7 UNK         0.1400 
     38 CB         -1.0232  -15.5438  -39.8323 C.3       7 UNK        -0.1800 
     39 N          -1.4530  -16.7329  -41.9123 N.am      7 UNK        -0.5000 
     40 C          -1.8123  -17.6609  -42.8124 C.2       6 UNK         0.5000 
     41 O          -2.0861  -18.8276  -42.5290 O.2       6 UNK        -0.5000 
     42 CA         -1.7871  -17.2090  -44.2865 C.3       6 UNK         0.1400 
     43 CB         -3.1522  -16.6397  -44.6977 C.3       6 UNK        -0.1800 
     44 N          -0.7522  -16.1999  -44.5384 N.am      6 UNK        -0.5000 
     45 C           0.5640  -16.4322  -44.4368 C.2       5 UNK         0.5000 
     46 O           1.0450  -17.5357  -44.1840 O.2       5 UNK        -0.5000 
     47 CA          1.4970  -15.2284  -44.5752 C.3       5 UNK         0.1400 
     48 CB          2.2977  -14.9931  -43.2820 C.3       5 UNK        -0.1800 
     49 N           2.3954  -15.4315  -45.7050 N.am      5 UNK        -0.5000 
     50 C           2.9182  -14.4339  -46.4274 C.2       4 UNK         0.5000 
     51 O           2.7229  -13.2459  -46.1697 O.2       4 UNK        -0.5000 
     52 CA          3.7601  -14.7838  -47.6647 C.3       4 UNK         0.1400 
     53 CB          3.7943  -16.2874  -48.0105 C.3       4 UNK        -0.1800 
     54 N           3.2293  -14.0042  -48.7799 N.am      4 UNK        -0.5000 
     55 C           3.8487  -13.7515  -49.9366 C.2       3 UNK         0.5000 
     56 O           4.9777  -14.1585  -50.2134 O.2       3 UNK        -0.5000 
     57 CA          3.0741  -12.9113  -50.9697 C.3       3 UNK         0.1400 
     58 CB          2.4088  -13.8292  -52.0082 C.3       3 UNK        -0.1800 
     59 N           2.0495  -12.0440  -50.3769 N.am      3 UNK        -0.5000 
     60 C           2.3009  -10.8406  -49.8410 C.2       2 UNK         0.5000 
     61 O           3.4319  -10.3717  -49.7094 O.2       2 UNK        -0.5000 
     62 CA          1.0784  -10.0188  -49.3935 C.3       2 UNK         0.1400 
     63 CB          0.3197   -9.4631  -50.6096 C.3       2 UNK        -0.1800 
     64 N           0.1624  -10.8094  -48.5714 N.am      2 UNK        -0.5000 
     65 C           0.3164  -11.0135  -47.2581 C.2       1 UNK         0.5000 
     66 O           1.2140  -10.4880  -46.5920 O.2       1 UNK        -0.5000 
     67 C          -0.7309  -21.8959  -46.7100 C.2       11 UNK         0.5000 
     68 O          -0.9461  -22.2145  -47.8792 O.2       11 UNK        -0.5000 
     69 N          -1.6878  -21.7448  -45.7825 N.am      12 UNK        -0.5000 
     70 CA         -3.1217  -21.8918  -46.0251 C.3       12 UNK         0.1400 
     71 CB         -3.9005  -21.2718  -44.8557 C.3       12 UNK        -0.1800 
     72 C          -3.5416  -23.3519  -46.2607 C.2       12 UNK         0.5000 
     73 O          -4.4365  -23.5935  -47.0688 O.2       12 UNK        -0.5000 
     74 N          -2.8657  -24.2969  -45.5919 N.am      13 UNK        -0.5000 
     75 CA         -3.0316  -25.7392  -45.7832 C.3       13 UNK         0.1400 
     76 CB         -2.2535  -26.4952  -44.6960 C.3       13 UNK        -0.1800 
     77 C          -2.5973  -26.1990  -47.1876 C.2       13 UNK         0.5000 
     78 O          -3.2867  -27.0148  -47.8004 O.2       13 UNK        -0.5000 
     79 N          -1.4868  -25.6373  -47.6870 N.am      14 UNK        -0.5000 
     80 CA         -1.0219  -25.8113  -49.0655 C.3       14 UNK         0.1400 
     81 CB          0.4659  -25.4336  -49.1366 C.3       14 UNK        -0.1800 
     82 C          -1.8268  -24.9717  -50.0781 C.2       14 UNK         0.5000 
     83 O          -1.7674  -25.2450  -51.2772 O.2       14 UNK        -0.5000 
     84 N          -2.5170  -23.9345  -49.5853 N.am      15 UNK        -0.5000 
     85 CA         -3.2745  -22.9159  -50.3162 C.3       15 UNK         0.1400 
     86 CB         -4.5331  -23.5374  -50.9492 C.3       15 UNK        -0.1800 
     87 C          -2.4048  -22.1236  -51.3159 C.2       15 UNK         0.5000 
     88 O          -2.8761  -21.7604  -52.3959 O.2       15 UNK        -0.5000 
     89 N          -1.1300  -21.9191  -50.9464 N.am      16 UNK        -0.5000 
     90 CA         -0.0365  -21.3938  -51.7755 C.3       16 UNK         0.1400 
     91 CB         -0.2758  -19.9122  -52.1295 C.3       16 UNK        -0.1800 
     92 C           0.2180  -22.2631  -53.0270 C.2       16 UNK         0.5000 
     93 O           0.3799  -21.7318  -54.1248 O.2       16 UNK        -0.5000 
     94 N           0.1949  -23.5923  -52.8437 N.am      17 UNK        -0.5000 
     95 CA          0.2127  -24.6252  -53.8889 C.3       17 UNK         0.1400 
     96 CB          1.5513  -24.6274  -54.6568 C.3       17 UNK        -0.1800 
     97 C          -1.0252  -24.5203  -54.8061 C.2       17 UNK         0.5000 
     98 O          -0.9081  -24.5845  -56.0306 O.2       17 UNK        -0.5000 
     99 N          -2.1871  -24.3172  -54.1681 N.am      18 UNK        -0.5000 
    100 CA        -3.5206  -24.0906  -54.7386 C.3       18 UNK         0.1400 
    101 CB        -3.9833  -25.3146  -55.5549 C.3       18 UNK        -0.1800 
    102 C         -3.6904  -22.7695  -55.5233 C.2       18 UNK         0.5000 
    103 O         -4.7526  -22.5630  -56.1124 O.2       18 UNK        -0.5000 
    104 N         -2.6808  -21.8876  -55.5184 N.am      19 UNK        -0.5000 
    105 CA        -2.7025  -20.6164  -56.2429 C.3       19 UNK         0.1400 
    106 CB        -1.2632  -20.1371  -56.4816 C.3       19 UNK        -0.1800 
    107 C         -3.5150  -19.5224  -55.5275 C.2       19 UNK         0.5000 
    108 O         -4.1124  -18.6848  -56.2051 O.2       19 UNK        -0.5000 
    109 N         -3.5161  -19.5303  -54.1872 N.am      20 UNK        -0.5000 
    110 CA        -4.1956  -18.5239  -53.3664 C.3       20 UNK         0.1400 
    111 CB        -3.3433  -18.2144  -52.1258 C.3       20 UNK        -0.1800 
    112 C         -5.6108  -18.9594  -52.9531 C.2       20 UNK         0.5000 
    113 O         -6.4251  -18.0980  -52.6173 O.2       20 UNK        -0.5000 
    114 N         -5.8764  -20.2749  -52.9695 N.am      21 UNK        -0.5000 
    115 CA        -7.1120  -20.9745  -52.5820 C.3       21 UNK         0.1400 
    116 CB        -8.3167  -20.5196  -53.4275 C.3       21 UNK        -0.1800 
    117 C         -7.4234  -20.9094  -51.0716 C.2       21 UNK         0.5000 
    118 O         -7.6894  -21.9481  -50.4674 O.2       21 UNK        -0.5000 
    119 N         -7.3508  -19.7059  -50.4917 N.am      22 UNK        -0.5000 
    120 CA        -7.4136  -19.4026  -49.0498 C.3       22 UNK         0.1400 
    121 C         -8.7916  -19.6717  -48.3710 C.2       22 UNK         0.5000 
    122 N         -9.8766  -19.8315  -49.1186 N.am      22 UNK        -0.7600 
    123 O         -8.8913  -19.7024  -47.1473 O.2       22 UNK        -0.5000 
    124 C124       -6.2241  -20.0122  -48.2527 C.3       23 UNK        -0.0398 
    125 S125       -4.6054  -19.5884  -48.9829 S.3       23 UNK        -0.2404 
    126 C126       -3.9710  -18.3399  -47.8245 C.3       23 UNK        -0.0205 
    127 H127       -0.5107  -13.3193  -42.2653 H         1 UNK         0.0600 
    128 H128        0.4093  -11.8867  -42.7305 H         1 UNK         0.0600 
    129 H129       -1.2501  -11.7199  -42.1467 H         1 UNK         0.0600 
    130 H130        0.4793  -11.4750  -44.9434 H         1 UNK         0.3000 
    131 H131       -1.6862  -11.4643  -46.6585 H         1 UNK         0.0600 
    132 H132        0.2281  -13.7368  -47.4327 H         1 UNK         0.0800 
    133 H133       -1.2176  -14.0819  -46.5374 H         1 UNK         0.0800 
    134 H134        0.0805  -14.4422  -49.7847 H         1 UNK         0.0800 
    135 H135       -1.3838  -14.6665  -50.7102 H         1 UNK         0.0800 
    136 H136       -3.2698  -15.8626  -48.7492 H         1 UNK         0.1150 
    137 H137       -1.6705  -19.7331  -47.9492 H         1 UNK         0.1150 
    138 H138        0.8806  -16.6555  -49.4820 H         1 UNK         0.1150 
    139 H139        0.4985  -20.2965  -48.9832 H         1 UNK         0.0800 
    140 H140        1.4977  -19.0522  -49.6633 H         1 UNK         0.0800 
    141 H141        1.5118  -19.9479  -45.1177 H         1 UNK         0.0800 
    142 H142        0.0499  -19.5370  -45.9336 H         1 UNK         0.0800 
    143 H143        1.3828  -22.0279  -47.0072 H         1 UNK         0.0600 
    144 H144        1.2071  -21.8694  -44.1869 H         1 UNK         0.3000 
    145 H145        0.6118  -25.2623  -43.4253 H         1 UNK         0.0600 
    146 H146        2.7380  -24.9834  -42.1827 H         1 UNK         0.0600 
    147 H147        3.0694  -25.1707  -43.8978 H         1 UNK         0.0600 
    148 H148        3.1606  -23.5761  -43.1570 H         1 UNK         0.0600 
    149 H149        1.1609  -23.0231  -41.7596 H         1 UNK         0.3000 
    150 H150       -2.1501  -21.7091  -41.5617 H         1 UNK         0.0600 
    151 H151       -2.0825  -23.5705  -39.9523 H         1 UNK         0.0600 
    152 H152       -1.6777  -22.0618  -39.1477 H         1 UNK         0.0600 
    153 H153       -0.4105  -23.2213  -39.5458 H         1 UNK         0.0600 
    154 H154       -0.7465  -20.0591  -41.5146 H         1 UNK         0.3000 
    155 H155        2.0930  -19.2780  -39.7915 H         1 UNK         0.0600 
    156 H156        3.4824  -20.0435  -41.6873 H         1 UNK         0.0600 
    157 H157        3.1585  -18.3253  -41.8562 H         1 UNK         0.0600 
    158 H158        2.2801  -19.4911  -42.8437 H         1 UNK         0.0600 
    159 H159        0.6078  -17.9174  -41.8738 H         1 UNK         0.3000 
    160 H160       -2.2846  -17.2643  -40.0881 H         1 UNK         0.0600 
    161 H161       -0.0774  -15.1341  -40.1893 H         1 UNK         0.0600 
    162 H162       -1.8091  -14.8227  -40.0585 H         1 UNK         0.0600 
    163 H163       -0.9585  -15.6194  -38.7460 H         1 UNK         0.0600 
    164 H164       -1.2500  -15.8082  -42.2590 H         1 UNK         0.3000 
    165 H165       -1.5769  -18.0825  -44.9066 H         1 UNK         0.0600 
    166 H166       -3.9381  -17.3872  -44.5825 H         1 UNK         0.0600 
    167 H167       -3.4279  -15.7756  -44.0916 H         1 UNK         0.0600 
    168 H168       -3.1507  -16.3240  -45.7407 H         1 UNK         0.0600 
    169 H169       -1.0866  -15.2679  -44.7387 H         1 UNK         0.3000 
    170 H170        0.8847  -14.3495  -44.7649 H         1 UNK         0.0600 
    171 H171        1.6344  -14.8832  -42.4232 H         1 UNK         0.0600 
    172 H172        2.9732  -15.8232  -43.0716 H         1 UNK         0.0600 
    173 H173        2.8956  -14.0840  -43.3479 H         1 UNK         0.0600 
    174 H174        2.5557  -16.3947  -45.9710 H         1 UNK         0.3000 
    175 H175        4.7784  -14.4490  -47.4581 H         1 UNK         0.0600 
    176 H176        2.8000  -16.6659  -48.2399 H         1 UNK         0.0600 
    177 H177        4.4273  -16.4839  -48.8754 H         1 UNK         0.0600 
    178 H178        4.1984  -16.8769  -47.1867 H         1 UNK         0.0600 
    179 H179        2.3480  -13.5461  -48.6011 H         1 UNK         0.3000 
    180 H180        3.8010  -12.2871  -51.4943 H         1 UNK         0.0600 
    181 H181        3.1526  -14.4448  -52.5157 H         1 UNK         0.0600 
    182 H182        1.6858  -14.5048  -51.5512 H         1 UNK         0.0600 
    183 H183        1.8924  -13.2505  -52.7743 H         1 UNK         0.0600 
    184 H184        1.0911  -12.3431  -50.4697 H         1 UNK         0.3000 
    185 H185        1.4407   -9.1676  -48.8126 H         1 UNK         0.0600 
    186 H186        0.9797   -8.8684  -51.2425 H         1 UNK         0.0600 
    187 H187       -0.0998  -10.2578  -51.2276 H         1 UNK         0.0600 
    188 H188       -0.4997   -8.8150  -50.2978 H         1 UNK         0.0600 
    189 H189       -0.6092  -11.2596  -49.0452 H         1 UNK         0.3000 
    190 H190       -1.4171  -21.5390  -44.8326 H         1 UNK         0.3000 
    191 H191       -3.3673  -21.3333  -46.9294 H         1 UNK         0.0600 
    192 H192       -4.9752  -21.3202  -45.0352 H         1 UNK         0.0600 
    193 H193       -3.6408  -20.2218  -44.7191 H         1 UNK         0.0600 
    194 H194       -3.6997  -21.7901  -43.9174 H         1 UNK         0.0600 
    195 H195       -2.2077  -24.0056  -44.8741 H         1 UNK         0.3000 
    196 H196       -4.0922  -25.9720  -45.6677 H         1 UNK         0.0600 
    197 H197       -2.3996  -27.5720  -44.7896 H         1 UNK         0.0600 
    198 H198       -2.5866  -26.2065  -43.6989 H         1 UNK         0.0600 
    199 H199       -1.1826  -26.3028  -44.7602 H         1 UNK         0.0600 
    200 H200       -0.9379  -25.0220  -47.0961 H         1 UNK         0.3000 
    201 H201       -1.1251  -26.8614  -49.3466 H         1 UNK         0.0600 
    202 H202        1.0597  -26.0478  -48.4593 H         1 UNK         0.0600 
    203 H203        0.6295  -24.3892  -48.8672 H         1 UNK         0.0600 
    204 H204        0.8626  -25.5825  -50.1417 H         1 UNK         0.0600 
    205 H205       -2.4393  -23.7706  -48.5909 H         1 UNK         0.3000 
    206 H206       -3.6037  -22.1945  -49.5703 H         1 UNK         0.0600 
    207 H207       -5.1988  -23.9281  -50.1793 H         1 UNK         0.0600 
    208 H208       -5.0969  -22.7984  -51.5143 H         1 UNK         0.0600 
    209 H209       -4.2906  -24.3574  -51.6233 H         1 UNK         0.0600 
    210 H210       -0.8769  -22.2136  -50.0091 H         1 UNK         0.3000 
    211 H211        0.8671  -21.4513  -51.1677 H         1 UNK         0.0600 
    212 H212       -1.0410  -19.8013  -52.8961 H         1 UNK         0.0600 
    213 H213        0.6349  -19.4529  -52.5146 H         1 UNK         0.0600 
    214 H214       -0.5925  -19.3364  -51.2620 H         1 UNK         0.0600 
    215 H215       -0.0140  -23.9347  -51.9162 H         1 UNK         0.3000 
    216 H216        0.1301  -25.5840  -53.3748 H         1 UNK         0.0600 
    217 H217        2.3972  -24.6999  -53.9734 H         1 UNK         0.0600 
    218 H218        1.6810  -23.7270  -55.2576 H         1 UNK         0.0600 
    219 H219        1.6077  -25.4799  -55.3346 H         1 UNK         0.0600 
    220 H220       -2.1501  -24.3087  -53.1549 H         1 UNK         0.3000 
    221 H221       -4.1935  -24.0012  -53.8869 H         1 UNK         0.0600 
    222 H222       -3.4067  -25.4325  -56.4726 H         1 UNK         0.0600 
    223 H223       -3.8873  -26.2335  -54.9765 H         1 UNK         0.0600 
    224 H224       -5.0318  -25.2224  -55.8404 H         1 UNK         0.0600 
    225 H225       -1.8424  -22.1043  -54.9959 H         1 UNK         0.3000 
    226 H226       -3.1602  -20.7858  -57.2200 H         1 UNK         0.0600 
    227 H227       -0.6601  -20.9101  -56.9584 H         1 UNK         0.0600 
    228 H228       -1.2489  -19.2629  -57.1335 H         1 UNK         0.0600 
    229 H229       -0.7731  -19.8541  -55.5498 H         1 UNK         0.0600 
    230 H230       -3.0489  -20.2846  -53.6918 H         1 UNK         0.3000 
    231 H231       -4.2989  -17.5935  -53.9286 H         1 UNK         0.0600 
    232 H232       -3.1407  -19.1110  -51.5407 H         1 UNK         0.0600 
    233 H233       -2.3876  -17.7713  -52.4046 H         1 UNK         0.0600 
    234 H234       -3.8455  -17.5039  -51.4677 H         1 UNK         0.0600 
    235 H235       -5.1079  -20.8789  -53.2265 H         1 UNK         0.3000 
    236 H236       -6.9378  -22.0247  -52.8208 H         1 UNK         0.0600 
    237 H237       -8.1080  -20.6174  -54.4929 H         1 UNK         0.0600 
    238 H238       -9.1936  -21.1308  -53.2107 H         1 UNK         0.0600 
    239 H239       -8.5896  -19.4823  -53.2331 H         1 UNK         0.0600 
    240 H240       -7.1193  -18.9233  -51.0980 H         1 UNK         0.3000 
    241 H241       -7.3011  -18.3195  -48.9922 H         1 UNK         0.0600 
    242 H242      -10.7674  -19.9944  -48.6759 H         1 UNK         0.3800 
    243 H243       -9.8113  -19.8037  -50.1235 H         1 UNK         0.3800 
    244 H244       -6.3063  -21.0998  -48.2198 H         1 UNK         0.0800 
    245 H245       -6.2415  -19.6780  -47.2142 H         1 UNK         0.0800 
    246 H246       -3.8956  -18.7719  -46.8264 H         1 UNK         0.0800 
    247 H247       -4.6807  -17.5138  -47.7593 H         1 UNK         0.0800 
@<TRIPOS>BOND
     1    1    2 1    
     2    1  127 1    
     3    1  128 1    
     4    1  129 1    
     5    2    3 2    
     6    2    4 am   BACKBONE|DICT|INTERRES
     7    4    5 1    
     8    4  130 1    
     9    5    6 1    
    10    5   65 1    
    11    5  131 1    
    12    6    7 1    
    13    6  132 1    
    14    6  133 1    
    15    7    8 1    
    16    8    9 1    
    17    8  134 1    
    18    8  135 1    
    19    9   10 ar   
    20    9   14 ar   
    21   10   11 ar   
    22   10  136 1    
    23   11   12 ar   
    24   11  126 1    
    25   12   13 ar   
    26   12  137 1    
    27   13   14 ar   
    28   13   15 1    
    29   14  138 1    
    30   15   16 1    
    31   15  139 1    
    32   15  140 1    
    33   16   17 1    
    34   17   18 1    
    35   17  141 1    
    36   17  142 1    
    37   18   19 1    
    38   18   67 1    
    39   18  143 1    
    40   19   20 am   BACKBONE|DICT|INTERRES
    41   19  144 1    
    42   20   21 2    
    43   20   22 1    
    44   22   23 1    
    45   22   24 1    
    46   22  145 1    
    47   23  146 1    
    48   23  147 1    
    49   23  148 1    
    50   24   25 am   BACKBONE|DICT|INTERRES
    51   24  149 1    
    52   25   26 2    
    53   25   27 1    
    54   27   28 1    
    55   27   29 1    
    56   27  150 1    
    57   28  151 1    
    58   28  152 1    
    59   28  153 1    
    60   29   30 am   BACKBONE|DICT|INTERRES
    61   29  154 1    
    62   30   31 2    
    63   30   32 1    
    64   32   33 1    
    65   32   34 1    
    66   32  155 1    
    67   33  156 1    
    68   33  157 1    
    69   33  158 1    
    70   34   35 am   BACKBONE|DICT|INTERRES
    71   34  159 1    
    72   35   36 2    
    73   35   37 1    
    74   37   38 1    
    75   37   39 1    
    76   37  160 1    
    77   38  161 1    
    78   38  162 1    
    79   38  163 1    
    80   39   40 am   BACKBONE|DICT|INTERRES
    81   39  164 1    
    82   40   41 2    
    83   40   42 1    
    84   42   43 1    
    85   42   44 1    
    86   42  165 1    
    87   43  166 1    
    88   43  167 1    
    89   43  168 1    
    90   44   45 am   BACKBONE|DICT|INTERRES
    91   44  169 1    
    92   45   46 2    
    93   45   47 1    
    94   47   48 1    
    95   47   49 1    
    96   47  170 1    
    97   48  171 1    
    98   48  172 1    
    99   48  173 1    
   100   49   50 am   BACKBONE|DICT|INTERRES
   101   49  174 1    
   102   50   51 2    
   103   50   52 1    
   104   52   53 1    
   105   52   54 1    
   106   52  175 1    
   107   53  176 1    
   108   53  177 1    
   109   53  178 1    
   110   54   55 am   BACKBONE|DICT|INTERRES
   111   54  179 1    
   112   55   56 2    
   113   55   57 1    
   114   57   58 1    
   115   57   59 1    
   116   57  180 1    
   117   58  181 1    
   118   58  182 1    
   119   58  183 1    
   120   59   60 am   BACKBONE|DICT|INTERRES
   121   59  184 1    
   122   60   61 2    
   123   60   62 1    
   124   62   63 1    
   125   62   64 1    
   126   62  185 1    
   127   63  186 1    
   128   63  187 1    
   129   63  188 1    
   130   64   65 am   BACKBONE|DICT|INTERRES
   131   64  189 1    
   132   65   66 2    
   133   67   68 2    
   134   67   69 am   BACKBONE|DICT|INTERRES
   135   69   70 1    
   136   69  190 1    
   137   70   71 1    
   138   70   72 1    
   139   70  191 1    
   140   71  192 1    
   141   71  193 1    
   142   71  194 1    
   143   72   73 2    
   144   72   74 am   BACKBONE|DICT|INTERRES
   145   74   75 1    
   146   74  195 1    
   147   75   76 1    
   148   75   77 1    
   149   75  196 1    
   150   76  197 1    
   151   76  198 1    
   152   76  199 1    
   153   77   78 2    
   154   77   79 am   BACKBONE|DICT|INTERRES
   155   79   80 1    
   156   79  200 1    
   157   80   81 1    
   158   80   82 1    
   159   80  201 1    
   160   81  202 1    
   161   81  203 1    
   162   81  204 1    
   163   82   83 2    
   164   82   84 am   BACKBONE|DICT|INTERRES
   165   84   85 1    
   166   84  205 1    
   167   85   86 1    
   168   85   87 1    
   169   85  206 1    
   170   86  207 1    
   171   86  208 1    
   172   86  209 1    
   173   87   88 2    
   174   87   89 am   BACKBONE|DICT|INTERRES
   175   89   90 1    
   176   89  210 1    
   177   90   91 1    
   178   90   92 1    
   179   90  211 1    
   180   91  212 1    
   181   91  213 1    
   182   91  214 1    
   183   92   93 2    
   184   92   94 am   BACKBONE|DICT|INTERRES
   185   94   95 1    
   186   94  215 1    
   187   95   96 1    
   188   95   97 1    
   189   95  216 1    
   190   96  217 1    
   191   96  218 1    
   192   96  219 1    
   193   97   98 2    
   194   97   99 am   BACKBONE|DICT|INTERRES
   195   99  100 1    
   196   99  220 1    
   197  100  101 1    
   198  100  102 1    
   199  100  221 1    
   200  101  222 1    
   201  101  223 1    
   202  101  224 1    
   203  102  103 2    
   204  102  104 am   BACKBONE|DICT|INTERRES
   205  104  105 1    
   206  104  225 1    
   207  105  106 1    
   208  105  107 1    
   209  105  226 1    
   210  106  227 1    
   211  106  228 1    
   212  106  229 1    
   213  107  108 2    
   214  107  109 am   BACKBONE|DICT|INTERRES
   215  109  110 1    
   216  109  230 1    
   217  110  111 1    
   218  110  112 1    
   219  110  231 1    
   220  111  232 1    
   221  111  233 1    
   222  111  234 1    
   223  112  113 2    
   224  112  114 am   BACKBONE|DICT|INTERRES
   225  114  115 1    
   226  114  235 1    
   227  115  116 1    
   228  115  117 1    
   229  115  236 1    
   230  116  237 1    
   231  116  238 1    
   232  116  239 1    
   233  117  118 2    
   234  117  119 am   BACKBONE|DICT|INTERRES
   235  119  120 1    
   236  119  240 1    
   237  120  121 1    
   238  120  124 1    
   239  120  241 1    
   240  121  122 am   BACKBONE|DICT|INTERRES
   241  121  123 2    
   242  122  242 1    
   243  122  243 1    
   244  124  125 1    
   245  124  244 1    
   246  124  245 1    
   247  125  126 1    
   248  126  246 1    
   249  126  247 1    
@<TRIPOS>SUBSTRUCTURE
     1 UNK         1 GROUP             0       ****    0 ROOT    
