@<TRIPOS>MOLECULE
3R540
247   249    1
SMALL
USER_CHARGES


@<TRIPOS>ATOM
      1 CA         -1.7274  -13.3966  -49.5079 C.3       0 UNK        -0.1800 
      2 C          -1.5120  -13.6640  -48.0263 C.2       0 UNK         0.5000 
      3 O          -0.4311  -14.0946  -47.6243 O.2       0 UNK        -0.5000 
      4 N          -2.5478  -13.4246  -47.2144 N.am      1 UNK        -0.5000 
      5 CA         -2.5973  -13.7335  -45.7782 C.3       1 UNK         0.1400 
      6 C6         -4.0418  -13.6658  -45.2220 C.3       23 UNK        -0.0398 
      7 S7         -5.1884  -14.7246  -46.1739 S.3       23 UNK        -0.2404 
      8 C8         -5.6105  -16.0203  -44.9706 C.3       23 UNK        -0.0205 
      9 C9         -6.1161  -17.2846  -45.6536 C.ar      23 UNK        -0.0193 
     10 C10        -7.2462  -17.2595  -46.4754 C.ar      23 UNK        -0.1150 
     11 C11        -7.6914  -18.4281  -47.1005 C.ar      23 UNK        -0.0193 
     12 C12        -7.0229  -19.6355  -46.8705 C.ar      23 UNK        -0.1150 
     13 C13        -5.9042  -19.6821  -46.0345 C.ar      23 UNK        -0.0193 
     14 C14        -5.4534  -18.4955  -45.4488 C.ar      23 UNK        -0.1150 
     15 C15        -5.1836  -21.0074  -45.7869 C.3       23 UNK        -0.0205 
     16 S16        -4.6679  -21.2197  -44.0465 S.3       23 UNK        -0.2404 
     17 C17        -4.2065  -22.9795  -43.9431 C.3       23 UNK        -0.0398 
     18 CA         -3.2192  -23.5025  -45.0175 C.3       11 UNK         0.1400 
     19 N          -1.9786  -22.7127  -45.1098 N.am      11 UNK        -0.5000 
     20 C          -0.9395  -22.9793  -45.9191 C.2       10 UNK         0.5000 
     21 O          -0.9246  -23.9296  -46.7039 O.2       10 UNK        -0.5000 
     22 CA          0.2935  -22.0583  -45.8712 C.3       10 UNK         0.1400 
     23 CB          0.3941  -21.2484  -47.1695 C.3       10 UNK        -0.1800 
     24 N           0.3324  -21.1413  -44.7339 N.am      10 UNK        -0.5000 
     25 C           0.5623  -21.4910  -43.4613 C.2       9 UNK         0.5000 
     26 O           0.6869  -22.6570  -43.0852 O.2       9 UNK        -0.5000 
     27 CA          0.6663  -20.3431  -42.4416 C.3       9 UNK         0.1400 
     28 CB          2.1204  -19.8605  -42.3228 C.3       9 UNK        -0.1800 
     29 N          -0.1829  -19.2141  -42.8230 N.am      9 UNK        -0.5000 
     30 C          -1.4639  -19.0828  -42.4534 C.2       8 UNK         0.5000 
     31 O          -2.0274  -19.8463  -41.6689 O.2       8 UNK        -0.5000 
     32 CA         -2.2604  -17.9126  -43.0654 C.3       8 UNK         0.1400 
     33 CB         -2.1802  -16.6730  -42.1620 C.3       8 UNK        -0.1800 
     34 N          -1.8374  -17.5337  -44.4161 N.am      8 UNK        -0.5000 
     35 C          -1.8361  -18.3280  -45.4983 C.2       7 UNK         0.5000 
     36 O          -2.2191  -19.4946  -45.4958 O.2       7 UNK        -0.5000 
     37 CA         -1.2340  -17.7380  -46.7869 C.3       7 UNK         0.1400 
     38 CB         -2.3327  -17.0937  -47.6425 C.3       7 UNK        -0.1800 
     39 N          -0.1338  -16.7927  -46.5546 N.am      7 UNK        -0.5000 
     40 C           0.9749  -17.0733  -45.8507 C.2       6 UNK         0.5000 
     41 O           1.1483  -18.1365  -45.2484 O.2       6 UNK        -0.5000 
     42 CA          2.0598  -15.9801  -45.8201 C.3       6 UNK         0.1400 
     43 CB          3.3057  -16.3952  -45.0115 C.3       6 UNK        -0.1800 
     44 N           2.4542  -15.5305  -47.1565 N.am      6 UNK        -0.5000 
     45 C           2.8926  -16.2797  -48.1824 C.2       5 UNK         0.5000 
     46 O           2.9992  -17.5056  -48.1540 O.2       5 UNK        -0.5000 
     47 CA          3.3061  -15.5247  -49.4624 C.3       5 UNK         0.1400 
     48 CB          2.1100  -15.4103  -50.4205 C.3       5 UNK        -0.1800 
     49 N           3.8302  -14.1842  -49.1943 N.am      5 UNK        -0.5000 
     50 C           4.9505  -13.9122  -48.5077 C.2       4 UNK         0.5000 
     51 O           5.7525  -14.7721  -48.1419 O.2       4 UNK        -0.5000 
     52 CA          5.2096  -12.4334  -48.1440 C.3       4 UNK         0.1400 
     53 CB          6.2932  -11.8373  -49.0557 C.3       4 UNK        -0.1800 
     54 N           4.0171  -11.5787  -48.2036 N.am      4 UNK        -0.5000 
     55 C           2.9185  -11.7237  -47.4499 C.2       3 UNK         0.5000 
     56 O           2.7886  -12.6030  -46.5948 O.2       3 UNK        -0.5000 
     57 CA          1.7558  -10.7683  -47.7701 C.3       3 UNK         0.1400 
     58 CB          1.1976  -11.0561  -49.1744 C.3       3 UNK        -0.1800 
     59 N           0.6691  -10.9113  -46.8040 N.am      3 UNK        -0.5000 
     60 C           0.6092  -10.2970  -45.6156 C.2       2 UNK         0.5000 
     61 O           1.4616   -9.4997  -45.2207 O.2       2 UNK        -0.5000 
     62 CA         -0.6136  -10.5989  -44.7248 C.3       2 UNK         0.1400 
     63 CB         -1.4140   -9.3146  -44.4487 C.3       2 UNK        -0.1800 
     64 N          -1.5147  -11.5815  -45.3342 N.am      2 UNK        -0.5000 
     65 C          -1.6381  -12.8581  -44.9492 C.2       1 UNK         0.5000 
     66 O          -1.0239  -13.3606  -44.0078 O.2       1 UNK        -0.5000 
     67 C          -2.9638  -25.0054  -44.7639 C.2       11 UNK         0.5000 
     68 O          -3.6577  -25.8451  -45.3378 O.2       11 UNK        -0.5000 
     69 N          -1.9377  -25.3132  -43.9564 N.am      12 UNK        -0.5000 
     70 CA         -1.4821  -26.6702  -43.6401 C.3       12 UNK         0.1400 
     71 CB         -0.4331  -26.5864  -42.5208 C.3       12 UNK        -0.1800 
     72 C          -0.9154  -27.4423  -44.8508 C.2       12 UNK         0.5000 
     73 O          -0.8806  -28.6726  -44.8186 O.2       12 UNK        -0.5000 
     74 N          -0.5015  -26.7137  -45.8946 N.am      13 UNK        -0.5000 
     75 CA         -0.0061  -27.2353  -47.1664 C.3       13 UNK         0.1400 
     76 CB          1.3407  -26.5565  -47.4753 C.3       13 UNK        -0.1800 
     77 C          -1.0332  -27.0129  -48.2961 C.2       13 UNK         0.5000 
     78 O          -0.6455  -26.9677  -49.4640 O.2       13 UNK        -0.5000 
     79 N          -2.3174  -26.8446  -47.9393 N.am      14 UNK        -0.5000 
     80 CA         -3.4534  -26.5726  -48.8285 C.3       14 UNK         0.1400 
     81 CB         -3.7376  -27.7818  -49.7444 C.3       14 UNK        -0.1800 
     82 C          -3.2735  -25.2539  -49.6064 C.2       14 UNK         0.5000 
     83 O          -3.4033  -25.2273  -50.8320 O.2       14 UNK        -0.5000 
     84 N          -2.9170  -24.1922  -48.8675 N.am      15 UNK        -0.5000 
     85 CA         -2.5651  -22.8560  -49.3623 C.3       15 UNK         0.1400 
     86 CB         -3.7828  -22.1844  -50.0326 C.3       15 UNK        -0.1800 
     87 C          -1.3029  -22.8980  -50.2501 C.2       15 UNK         0.5000 
     88 O          -1.2480  -22.2324  -51.2832 O.2       15 UNK        -0.5000 
     89 N          -0.3319  -23.7340  -49.8458 N.am      16 UNK        -0.5000 
     90 CA          0.8836  -24.1123  -50.5794 C.3       16 UNK         0.1400 
     91 CB          1.8807  -22.9362  -50.6340 C.3       16 UNK        -0.1800 
     92 C           0.5583  -24.6858  -51.9744 C.2       16 UNK         0.5000 
     93 O           1.0961  -24.2172  -52.9768 O.2       16 UNK        -0.5000 
     94 N          -0.3774  -25.6453  -52.0157 N.am      17 UNK        -0.5000 
     95 CA         -1.0011  -26.2130  -53.2187 C.3       17 UNK         0.1400 
     96 CB         -0.0010  -27.1128  -53.9732 C.3       17 UNK        -0.1800 
     97 C          -1.6403  -25.1276  -54.1169 C.2       17 UNK         0.5000 
     98 O          -1.4732  -25.1448  -55.3376 O.2       17 UNK        -0.5000 
     99 N          -2.3298  -24.1807  -53.4663 N.am      18 UNK        -0.5000 
    100 CA        -2.9617  -22.9732  -54.0078 C.3       18 UNK         0.1400 
    101 CB        -4.0818  -23.3366  -55.0043 C.3       18 UNK        -0.1800 
    102 C         -1.9906  -21.9105  -54.5747 C.2       18 UNK         0.5000 
    103 O         -2.4584  -20.9577  -55.2006 O.2       18 UNK        -0.5000 
    104 N         -0.6753  -22.0440  -54.3418 N.am      19 UNK        -0.5000 
    105 CA         0.3267  -21.0527  -54.7492 C.3       19 UNK         0.1400 
    106 CB         1.7160  -21.7041  -54.8054 C.3       19 UNK        -0.1800 
    107 C          0.3545  -19.8169  -53.8287 C.2       19 UNK         0.5000 
    108 O          0.7145  -18.7326  -54.2880 O.2       19 UNK        -0.5000 
    109 N         -0.0354  -19.9921  -52.5608 N.am      20 UNK        -0.5000 
    110 CA        -0.1694  -18.9441  -51.5540 C.3       20 UNK         0.1400 
    111 CB         0.7179  -19.2861  -50.3433 C.3       20 UNK        -0.1800 
    112 C         -1.6573  -18.8373  -51.1914 C.2       20 UNK         0.5000 
    113 O         -2.0467  -19.1293  -50.0610 O.2       20 UNK        -0.5000 
    114 N         -2.4660  -18.4773  -52.1960 N.am      21 UNK        -0.5000 
    115 CA        -3.9185  -18.3318  -52.1126 C.3       21 UNK         0.1400 
    116 CB        -4.4662  -18.1432  -53.5371 C.3       21 UNK        -0.1800 
    117 C         -4.3711  -17.1774  -51.1941 C.2       21 UNK         0.5000 
    118 O         -3.5716  -16.3050  -50.8465 O.2       21 UNK        -0.5000 
    119 N         -5.6639  -17.2069  -50.8465 N.am      22 UNK        -0.5000 
    120 CA        -6.3799  -16.2689  -49.9662 C.3       22 UNK         0.1400 
    121 C         -6.1484  -14.7672  -50.3047 C.2       22 UNK         0.5000 
    122 N         -5.9237  -13.9220  -49.3083 N.am      22 UNK        -0.7600 
    123 O         -6.2344  -14.3546  -51.4595 O.2       22 UNK        -0.5000 
    124 C124       -7.9083  -16.5543  -49.9660 C.3       23 UNK        -0.0398 
    125 S125       -8.3675  -18.3145  -49.7725 S.3       23 UNK        -0.2404 
    126 C126       -8.8905  -18.3927  -48.0317 C.3       23 UNK        -0.0205 
    127 H127       -2.7698  -13.5536  -49.7874 H         1 UNK         0.0600 
    128 H128       -1.1185  -14.0725  -50.1082 H         1 UNK         0.0600 
    129 H129       -1.4551  -12.3716  -49.7557 H         1 UNK         0.0600 
    130 H130       -3.4116  -13.0854  -47.6125 H         1 UNK         0.3000 
    131 H131       -2.2460  -14.7575  -45.6499 H         1 UNK         0.0600 
    132 H132       -4.4200  -12.6428  -45.2624 H         1 UNK         0.0800 
    133 H133       -4.0635  -13.9543  -44.1696 H         1 UNK         0.0800 
    134 H134       -4.7318  -16.2465  -44.3649 H         1 UNK         0.0800 
    135 H135       -6.3737  -15.6458  -44.2874 H         1 UNK         0.0800 
    136 H136       -7.7654  -16.3262  -46.6418 H         1 UNK         0.1150 
    137 H137       -7.3732  -20.5382  -47.3511 H         1 UNK         0.1150 
    138 H138       -4.5847  -18.5218  -44.8157 H         1 UNK         0.1150 
    139 H139       -5.8272  -21.8427  -46.0664 H         1 UNK         0.0800 
    140 H140       -4.3048  -21.0515  -46.4317 H         1 UNK         0.0800 
    141 H141       -5.1338  -23.5552  -43.9742 H         1 UNK         0.0800 
    142 H142       -3.7920  -23.1354  -42.9452 H         1 UNK         0.0800 
    143 H143       -3.7073  -23.4297  -45.9906 H         1 UNK         0.0600 
    144 H144       -1.9447  -21.8653  -44.5586 H         1 UNK         0.3000 
    145 H145        1.1742  -22.7003  -45.8055 H         1 UNK         0.0600 
    146 H146       -0.5478  -20.7558  -47.4070 H         1 UNK         0.0600 
    147 H147        1.1754  -20.4892  -47.1182 H         1 UNK         0.0600 
    148 H148        0.6334  -21.9008  -48.0065 H         1 UNK         0.0600 
    149 H149        0.2488  -20.1564  -44.9505 H         1 UNK         0.3000 
    150 H150        0.3594  -20.7288  -41.4671 H         1 UNK         0.0600 
    151 H151        2.7769  -20.6745  -42.0131 H         1 UNK         0.0600 
    152 H152        2.2126  -19.0678  -41.5803 H         1 UNK         0.0600 
    153 H153        2.4991  -19.4765  -43.2709 H         1 UNK         0.0600 
    154 H154        0.2033  -18.5736  -43.5081 H         1 UNK         0.3000 
    155 H155       -3.3023  -18.2283  -43.1070 H         1 UNK         0.0600 
    156 H156       -2.5089  -16.9057  -41.1482 H         1 UNK         0.0600 
    157 H157       -2.8185  -15.8707  -42.5328 H         1 UNK         0.0600 
    158 H158       -1.1617  -16.2877  -42.0971 H         1 UNK         0.0600 
    159 H159       -1.4523  -16.6072  -44.5172 H         1 UNK         0.3000 
    160 H160       -0.8147  -18.5594  -47.3661 H         1 UNK         0.0600 
    161 H161       -1.9281  -16.6840  -48.5679 H         1 UNK         0.0600 
    162 H162       -2.8557  -16.2999  -47.1175 H         1 UNK         0.0600 
    163 H163       -3.0861  -17.8322  -47.9203 H         1 UNK         0.0600 
    164 H164       -0.1939  -15.8887  -47.0175 H         1 UNK         0.3000 
    165 H165        1.6141  -15.1163  -45.3242 H         1 UNK         0.0600 
    166 H166        3.7965  -17.2673  -45.4451 H         1 UNK         0.0600 
    167 H167        4.0349  -15.5859  -44.9716 H         1 UNK         0.0600 
    168 H168        3.0404  -16.6452  -43.9835 H         1 UNK         0.0600 
    169 H169        2.4161  -14.5251  -47.2833 H         1 UNK         0.3000 
    170 H170        4.0908  -16.1034  -49.9541 H         1 UNK         0.0600 
    171 H171        1.2957  -14.8345  -49.9788 H         1 UNK         0.0600 
    172 H172        2.3956  -14.9288  -51.3558 H         1 UNK         0.0600 
    173 H173        1.7163  -16.3958  -50.6706 H         1 UNK         0.0600 
    174 H174        3.2475  -13.4090  -49.4707 H         1 UNK         0.3000 
    175 H175        5.5783  -12.4155  -47.1163 H         1 UNK         0.0600 
    176 H176        5.9704  -11.8073  -50.0972 H         1 UNK         0.0600 
    177 H177        6.5501  -10.8220  -48.7530 H         1 UNK         0.0600 
    178 H178        7.2094  -12.4280  -49.0132 H         1 UNK         0.0600 
    179 H179        4.0402  -10.8375  -48.8894 H         1 UNK         0.3000 
    180 H180        2.1306   -9.7429  -47.7441 H         1 UNK         0.0600 
    181 H181        0.9278  -12.1059  -49.2917 H         1 UNK         0.0600 
    182 H182        1.9294  -10.8200  -49.9476 H         1 UNK         0.0600 
    183 H183        0.3118  -10.4546  -49.3799 H         1 UNK         0.0600 
    184 H184       -0.0084  -11.6329  -46.9985 H         1 UNK         0.3000 
    185 H185       -0.2309  -10.9708  -43.7723 H         1 UNK         0.0600 
    186 H186       -2.2625   -9.5133  -43.7938 H         1 UNK         0.0600 
    187 H187       -0.7954   -8.5634  -43.9559 H         1 UNK         0.0600 
    188 H188       -1.7968   -8.8727  -45.3695 H         1 UNK         0.0600 
    189 H189       -2.0590  -11.2620  -46.1231 H         1 UNK         0.3000 
    190 H190       -1.4013  -24.5564  -43.5543 H         1 UNK         0.3000 
    191 H191       -2.3396  -27.2339  -43.2670 H         1 UNK         0.0600 
    192 H192        0.4370  -26.0050  -42.8292 H         1 UNK         0.0600 
    193 H193       -0.8471  -26.1216  -41.6258 H         1 UNK         0.0600 
    194 H194       -0.0818  -27.5793  -42.2367 H         1 UNK         0.0600 
    195 H195       -0.6083  -25.7055  -45.8584 H         1 UNK         0.3000 
    196 H196        0.1633  -28.3115  -47.1006 H         1 UNK         0.0600 
    197 H197        2.0613  -26.7371  -46.6777 H         1 UNK         0.0600 
    198 H198        1.2317  -25.4772  -47.5860 H         1 UNK         0.0600 
    199 H199        1.7782  -26.9433  -48.3964 H         1 UNK         0.0600 
    200 H200       -2.5396  -26.8569  -46.9511 H         1 UNK         0.3000 
    201 H201       -4.3239  -26.4342  -48.1857 H         1 UNK         0.0600 
    202 H202       -4.6475  -27.6243  -50.3246 H         1 UNK         0.0600 
    203 H203       -3.8780  -28.6923  -49.1620 H         1 UNK         0.0600 
    204 H204       -2.9276  -27.9585  -50.4526 H         1 UNK         0.0600 
    205 H205       -2.7265  -24.3484  -47.8866 H         1 UNK         0.3000 
    206 H206       -2.3039  -22.2515  -48.4937 H         1 UNK         0.0600 
    207 H207       -4.6198  -22.1127  -49.3383 H         1 UNK         0.0600 
    208 H208       -4.1250  -22.7293  -50.9110 H         1 UNK         0.0600 
    209 H209       -3.5478  -21.1726  -50.3551 H         1 UNK         0.0600 
    210 H210       -0.4885  -24.2292  -48.9779 H         1 UNK         0.3000 
    211 H211        1.3545  -24.9199  -50.0187 H         1 UNK         0.0600 
    212 H212        2.1411  -22.5877  -49.6358 H         1 UNK         0.0600 
    213 H213        2.8097  -23.2365  -51.1197 H         1 UNK         0.0600 
    214 H214        1.4817  -22.0912  -51.1943 H         1 UNK         0.0600 
    215 H215       -0.7275  -26.0000  -51.1291 H         1 UNK         0.3000 
    216 H216       -1.8198  -26.8444  -52.8704 H         1 UNK         0.0600 
    217 H217       -0.4877  -27.6281  -54.8020 H         1 UNK         0.0600 
    218 H218        0.8289  -26.5389  -54.3865 H         1 UNK         0.0600 
    219 H219        0.4140  -27.8765  -53.3155 H         1 UNK         0.0600 
    220 H220       -2.4193  -24.2919  -52.4618 H         1 UNK         0.3000 
    221 H221       -3.4383  -22.4913  -53.1543 H         1 UNK         0.0600 
    222 H222       -3.6828  -23.7558  -55.9281 H         1 UNK         0.0600 
    223 H223       -4.7711  -24.0634  -54.5745 H         1 UNK         0.0600 
    224 H224       -4.6681  -22.4573  -55.2734 H         1 UNK         0.0600 
    225 H225       -0.3418  -22.8391  -53.8085 H         1 UNK         0.3000 
    226 H226        0.0819  -20.7111  -55.7572 H         1 UNK         0.0600 
    227 H227        1.7055  -22.6140  -55.4058 H         1 UNK         0.0600 
    228 H228        2.4434  -21.0257  -55.2525 H         1 UNK         0.0600 
    229 H229        2.0819  -21.9592  -53.8105 H         1 UNK         0.0600 
    230 H230       -0.3879  -20.9044  -52.2755 H         1 UNK         0.3000 
    231 H231        0.1452  -17.9749  -51.9454 H         1 UNK         0.0600 
    232 H232        0.6262  -18.5290  -49.5635 H         1 UNK         0.0600 
    233 H233        1.7693  -19.3369  -50.6258 H         1 UNK         0.0600 
    234 H234        0.4430  -20.2446  -49.9038 H         1 UNK         0.0600 
    235 H235       -2.0491  -18.2660  -53.0903 H         1 UNK         0.3000 
    236 H236       -4.3211  -19.2617  -51.7062 H         1 UNK         0.0600 
    237 H237       -4.1914  -18.9800  -54.1797 H         1 UNK         0.0600 
    238 H238       -5.5551  -18.0817  -53.5396 H         1 UNK         0.0600 
    239 H239       -4.0857  -17.2291  -53.9946 H         1 UNK         0.0600 
    240 H240       -6.2359  -17.9618  -51.1953 H         1 UNK         0.3000 
    241 H241       -5.9973  -16.4520  -48.9608 H         1 UNK         0.0600 
    242 H242       -5.8136  -12.9432  -49.5197 H         1 UNK         0.3800 
    243 H243       -5.8648  -14.2367  -48.3500 H         1 UNK         0.3800 
    244 H244       -8.3990  -15.9663  -49.1888 H         1 UNK         0.0800 
    245 H245       -8.3498  -16.2229  -50.9080 H         1 UNK         0.0800 
    246 H246       -9.4888  -19.2932  -47.8853 H         1 UNK         0.0800 
    247 H247       -9.5460  -17.5530  -47.7960 H         1 UNK         0.0800 
@<TRIPOS>BOND
     1    1    2 1    
     2    1  127 1    
     3    1  128 1    
     4    1  129 1    
     5    2    3 2    
     6    2    4 am   BACKBONE|DICT|INTERRES
     7    4    5 1    
     8    4  130 1    
     9    5    6 1    
    10    5   65 1    
    11    5  131 1    
    12    6    7 1    
    13    6  132 1    
    14    6  133 1    
    15    7    8 1    
    16    8    9 1    
    17    8  134 1    
    18    8  135 1    
    19    9   10 ar   
    20    9   14 ar   
    21   10   11 ar   
    22   10  136 1    
    23   11   12 ar   
    24   11  126 1    
    25   12   13 ar   
    26   12  137 1    
    27   13   14 ar   
    28   13   15 1    
    29   14  138 1    
    30   15   16 1    
    31   15  139 1    
    32   15  140 1    
    33   16   17 1    
    34   17   18 1    
    35   17  141 1    
    36   17  142 1    
    37   18   19 1    
    38   18   67 1    
    39   18  143 1    
    40   19   20 am   BACKBONE|DICT|INTERRES
    41   19  144 1    
    42   20   21 2    
    43   20   22 1    
    44   22   23 1    
    45   22   24 1    
    46   22  145 1    
    47   23  146 1    
    48   23  147 1    
    49   23  148 1    
    50   24   25 am   BACKBONE|DICT|INTERRES
    51   24  149 1    
    52   25   26 2    
    53   25   27 1    
    54   27   28 1    
    55   27   29 1    
    56   27  150 1    
    57   28  151 1    
    58   28  152 1    
    59   28  153 1    
    60   29   30 am   BACKBONE|DICT|INTERRES
    61   29  154 1    
    62   30   31 2    
    63   30   32 1    
    64   32   33 1    
    65   32   34 1    
    66   32  155 1    
    67   33  156 1    
    68   33  157 1    
    69   33  158 1    
    70   34   35 am   BACKBONE|DICT|INTERRES
    71   34  159 1    
    72   35   36 2    
    73   35   37 1    
    74   37   38 1    
    75   37   39 1    
    76   37  160 1    
    77   38  161 1    
    78   38  162 1    
    79   38  163 1    
    80   39   40 am   BACKBONE|DICT|INTERRES
    81   39  164 1    
    82   40   41 2    
    83   40   42 1    
    84   42   43 1    
    85   42   44 1    
    86   42  165 1    
    87   43  166 1    
    88   43  167 1    
    89   43  168 1    
    90   44   45 am   BACKBONE|DICT|INTERRES
    91   44  169 1    
    92   45   46 2    
    93   45   47 1    
    94   47   48 1    
    95   47   49 1    
    96   47  170 1    
    97   48  171 1    
    98   48  172 1    
    99   48  173 1    
   100   49   50 am   BACKBONE|DICT|INTERRES
   101   49  174 1    
   102   50   51 2    
   103   50   52 1    
   104   52   53 1    
   105   52   54 1    
   106   52  175 1    
   107   53  176 1    
   108   53  177 1    
   109   53  178 1    
   110   54   55 am   BACKBONE|DICT|INTERRES
   111   54  179 1    
   112   55   56 2    
   113   55   57 1    
   114   57   58 1    
   115   57   59 1    
   116   57  180 1    
   117   58  181 1    
   118   58  182 1    
   119   58  183 1    
   120   59   60 am   BACKBONE|DICT|INTERRES
   121   59  184 1    
   122   60   61 2    
   123   60   62 1    
   124   62   63 1    
   125   62   64 1    
   126   62  185 1    
   127   63  186 1    
   128   63  187 1    
   129   63  188 1    
   130   64   65 am   BACKBONE|DICT|INTERRES
   131   64  189 1    
   132   65   66 2    
   133   67   68 2    
   134   67   69 am   BACKBONE|DICT|INTERRES
   135   69   70 1    
   136   69  190 1    
   137   70   71 1    
   138   70   72 1    
   139   70  191 1    
   140   71  192 1    
   141   71  193 1    
   142   71  194 1    
   143   72   73 2    
   144   72   74 am   BACKBONE|DICT|INTERRES
   145   74   75 1    
   146   74  195 1    
   147   75   76 1    
   148   75   77 1    
   149   75  196 1    
   150   76  197 1    
   151   76  198 1    
   152   76  199 1    
   153   77   78 2    
   154   77   79 am   BACKBONE|DICT|INTERRES
   155   79   80 1    
   156   79  200 1    
   157   80   81 1    
   158   80   82 1    
   159   80  201 1    
   160   81  202 1    
   161   81  203 1    
   162   81  204 1    
   163   82   83 2    
   164   82   84 am   BACKBONE|DICT|INTERRES
   165   84   85 1    
   166   84  205 1    
   167   85   86 1    
   168   85   87 1    
   169   85  206 1    
   170   86  207 1    
   171   86  208 1    
   172   86  209 1    
   173   87   88 2    
   174   87   89 am   BACKBONE|DICT|INTERRES
   175   89   90 1    
   176   89  210 1    
   177   90   91 1    
   178   90   92 1    
   179   90  211 1    
   180   91  212 1    
   181   91  213 1    
   182   91  214 1    
   183   92   93 2    
   184   92   94 am   BACKBONE|DICT|INTERRES
   185   94   95 1    
   186   94  215 1    
   187   95   96 1    
   188   95   97 1    
   189   95  216 1    
   190   96  217 1    
   191   96  218 1    
   192   96  219 1    
   193   97   98 2    
   194   97   99 am   BACKBONE|DICT|INTERRES
   195   99  100 1    
   196   99  220 1    
   197  100  101 1    
   198  100  102 1    
   199  100  221 1    
   200  101  222 1    
   201  101  223 1    
   202  101  224 1    
   203  102  103 2    
   204  102  104 am   BACKBONE|DICT|INTERRES
   205  104  105 1    
   206  104  225 1    
   207  105  106 1    
   208  105  107 1    
   209  105  226 1    
   210  106  227 1    
   211  106  228 1    
   212  106  229 1    
   213  107  108 2    
   214  107  109 am   BACKBONE|DICT|INTERRES
   215  109  110 1    
   216  109  230 1    
   217  110  111 1    
   218  110  112 1    
   219  110  231 1    
   220  111  232 1    
   221  111  233 1    
   222  111  234 1    
   223  112  113 2    
   224  112  114 am   BACKBONE|DICT|INTERRES
   225  114  115 1    
   226  114  235 1    
   227  115  116 1    
   228  115  117 1    
   229  115  236 1    
   230  116  237 1    
   231  116  238 1    
   232  116  239 1    
   233  117  118 2    
   234  117  119 am   BACKBONE|DICT|INTERRES
   235  119  120 1    
   236  119  240 1    
   237  120  121 1    
   238  120  124 1    
   239  120  241 1    
   240  121  122 am   BACKBONE|DICT|INTERRES
   241  121  123 2    
   242  122  242 1    
   243  122  243 1    
   244  124  125 1    
   245  124  244 1    
   246  124  245 1    
   247  125  126 1    
   248  126  246 1    
   249  126  247 1    
@<TRIPOS>SUBSTRUCTURE
     1 UNK         1 GROUP             0       ****    0 ROOT    
