@<TRIPOS>MOLECULE
3R540
247   249    1
SMALL
USER_CHARGES


@<TRIPOS>ATOM
      1 CA         -0.3967  -10.6025  -48.0227 C.3       0 UNK        -0.1800 
      2 C          -0.8065  -11.8898  -47.3098 C.2       0 UNK         0.5000 
      3 O          -1.6044  -11.8327  -46.3771 O.2       0 UNK        -0.5000 
      4 N          -0.3048  -13.0701  -47.7034 N.am      1 UNK        -0.5000 
      5 CA          0.6512  -13.3262  -48.7936 C.3       1 UNK         0.1400 
      6 C6          0.7141  -14.8298  -49.1664 C.3       23 UNK        -0.0398 
      7 S7         -0.9225  -15.5331  -49.5737 S.3       23 UNK        -0.2404 
      8 C8         -0.9105  -17.0428  -48.5606 C.3       23 UNK        -0.0205 
      9 C9         -2.2626  -17.7354  -48.5733 C.ar      23 UNK        -0.0193 
     10 C10        -2.5972  -18.6185  -49.6050 C.ar      23 UNK        -0.1150 
     11 C11        -3.8460  -19.2482  -49.6220 C.ar      23 UNK        -0.0193 
     12 C12        -4.7622  -18.9790  -48.6010 C.ar      23 UNK        -0.1150 
     13 C13        -4.4229  -18.1334  -47.5436 C.ar      23 UNK        -0.0193 
     14 C14        -3.1752  -17.5042  -47.5402 C.ar      23 UNK        -0.1150 
     15 C15        -5.3921  -17.9409  -46.3872 C.3       23 UNK        -0.0205 
     16 S16        -5.5372  -19.4537  -45.3768 S.3       23 UNK        -0.2404 
     17 C17        -3.8198  -19.6693  -44.8012 C.3       23 UNK        -0.0398 
     18 CA         -3.0236  -20.7043  -45.6415 C.3       11 UNK         0.1400 
     19 N          -1.5893  -20.4076  -45.6602 N.am      11 UNK        -0.5000 
     20 C          -0.6840  -21.0201  -46.4351 C.2       10 UNK         0.5000 
     21 O          -0.9727  -21.8541  -47.2938 O.2       10 UNK        -0.5000 
     22 CA          0.7985  -20.6853  -46.1740 C.3       10 UNK         0.1400 
     23 CB          1.2436  -19.4556  -46.9749 C.3       10 UNK        -0.1800 
     24 N           1.0964  -20.4652  -44.7583 N.am      10 UNK        -0.5000 
     25 C           1.0035  -21.4007  -43.8043 C.2       9 UNK         0.5000 
     26 O           0.6954  -22.5701  -44.0255 O.2       9 UNK        -0.5000 
     27 CA          1.2366  -20.9436  -42.3534 C.3       9 UNK         0.1400 
     28 CB          2.7366  -20.8258  -42.0462 C.3       9 UNK        -0.1800 
     29 N           0.5641  -19.6796  -42.0502 N.am      9 UNK        -0.5000 
     30 C          -0.7653  -19.5055  -42.0826 C.2       8 UNK         0.5000 
     31 O          -1.5678  -20.4077  -42.3264 O.2       8 UNK        -0.5000 
     32 CA         -1.2847  -18.0748  -41.8552 C.3       8 UNK         0.1400 
     33 CB         -1.3111  -17.7357  -40.3577 C.3       8 UNK        -0.1800 
     34 N          -0.5051  -17.0690  -42.5793 N.am      8 UNK        -0.5000 
     35 C          -0.4114  -17.0022  -43.9157 C.2       7 UNK         0.5000 
     36 O          -1.0058  -17.7575  -44.6813 O.2       7 UNK        -0.5000 
     37 CA          0.5468  -15.9527  -44.5004 C.3       7 UNK         0.1400 
     38 CB         -0.0884  -14.5554  -44.4770 C.3       7 UNK        -0.1800 
     39 N           1.8264  -15.9218  -43.7996 N.am      7 UNK        -0.5000 
     40 C           2.6968  -16.9373  -43.7334 C.2       6 UNK         0.5000 
     41 O           2.5400  -18.0138  -44.3073 O.2       6 UNK        -0.5000 
     42 CA          3.9236  -16.7292  -42.8306 C.3       6 UNK         0.1400 
     43 CB          5.0121  -15.9208  -43.5529 C.3       6 UNK        -0.1800 
     44 N           3.5716  -16.0653  -41.5756 N.am      6 UNK        -0.5000 
     45 C           2.8427  -16.6235  -40.5997 C.2       5 UNK         0.5000 
     46 O           2.4048  -17.7734  -40.6441 O.2       5 UNK        -0.5000 
     47 CA          2.5248  -15.7324  -39.3850 C.3       5 UNK         0.1400 
     48 CB          3.7070  -15.7091  -38.4046 C.3       5 UNK        -0.1800 
     49 N           2.1812  -14.3605  -39.7655 N.am      5 UNK        -0.5000 
     50 C           1.0597  -14.0223  -40.4162 C.2       4 UNK         0.5000 
     51 O           0.1968  -14.8315  -40.7567 O.2       4 UNK        -0.5000 
     52 CA          0.8942  -12.5359  -40.7897 C.3       4 UNK         0.1400 
     53 CB          0.3742  -11.7323  -39.5882 C.3       4 UNK        -0.1800 
     54 N           2.1039  -11.8927  -41.3198 N.am      4 UNK        -0.5000 
     55 C           2.8147  -12.3407  -42.3628 C.2       3 UNK         0.5000 
     56 O           2.6184  -13.4302  -42.9018 O.2       3 UNK        -0.5000 
     57 CA          3.9488  -11.4397  -42.8882 C.3       3 UNK         0.1400 
     58 CB          5.2387  -11.6913  -42.0925 C.3       3 UNK        -0.1800 
     59 N           4.2099  -11.7047  -44.3063 N.am      3 UNK        -0.5000 
     60 C           3.3370  -11.4697  -45.2957 C.2       2 UNK         0.5000 
     61 O           2.2996  -10.8194  -45.1442 O.2       2 UNK        -0.5000 
     62 CA          3.6369  -12.0887  -46.6733 C.3       2 UNK         0.1400 
     63 CB          4.7055  -13.2040  -46.6531 C.3       2 UNK        -0.1800 
     64 N           2.3808  -12.6126  -47.1989 N.am      2 UNK        -0.5000 
     65 C           2.0740  -12.8048  -48.4859 C.2       1 UNK         0.5000 
     66 O           2.8525  -12.5843  -49.4140 O.2       1 UNK        -0.5000 
     67 C          -3.2900  -22.1489  -45.1705 C.2       11 UNK         0.5000 
     68 O          -4.0168  -22.8860  -45.8371 O.2       11 UNK        -0.5000 
     69 N          -2.6570  -22.5393  -44.0539 N.am      12 UNK        -0.5000 
     70 CA         -2.7369  -23.8806  -43.4719 C.3       12 UNK         0.1400 
     71 CB         -2.0774  -23.8717  -42.0846 C.3       12 UNK        -0.1800 
     72 C          -2.1155  -24.9698  -44.3679 C.2       12 UNK         0.5000 
     73 O          -2.6707  -26.0645  -44.4674 O.2       12 UNK        -0.5000 
     74 N          -0.9909  -24.6447  -45.0194 N.am      13 UNK        -0.5000 
     75 CA         -0.2855  -25.5099  -45.9679 C.3       13 UNK         0.1400 
     76 CB          1.1356  -24.9632  -46.1762 C.3       13 UNK        -0.1800 
     77 C          -0.9988  -25.6591  -47.3270 C.2       13 UNK         0.5000 
     78 O          -0.6528  -26.5696  -48.0806 O.2       13 UNK        -0.5000 
     79 N          -1.9586  -24.7677  -47.6144 N.am      14 UNK        -0.5000 
     80 CA         -2.7109  -24.6300  -48.8628 C.3       14 UNK         0.1400 
     81 CB         -3.6022  -25.8628  -49.1216 C.3       14 UNK        -0.1800 
     82 C          -1.7868  -24.2777  -50.0457 C.2       14 UNK         0.5000 
     83 O          -1.6770  -25.0439  -51.0055 O.2       14 UNK        -0.5000 
     84 N          -1.1039  -23.1327  -49.9144 N.am      15 UNK        -0.5000 
     85 CA         -0.1678  -22.5649  -50.8857 C.3       15 UNK         0.1400 
     86 CB          0.6938  -21.5138  -50.1610 C.3       15 UNK        -0.1800 
     87 C          -0.8539  -22.0008  -52.1546 C.2       15 UNK         0.5000 
     88 O          -1.9332  -22.4523  -52.5386 O.2       15 UNK        -0.5000 
     89 N          -0.1901  -21.0431  -52.8231 N.am      16 UNK        -0.5000 
     90 CA         -0.6110  -20.3781  -54.0677 C.3       16 UNK         0.1400 
     91 CB         -1.8180  -19.4568  -53.8070 C.3       16 UNK        -0.1800 
     92 C          -0.8607  -21.3759  -55.2203 C.2       16 UNK         0.5000 
     93 O          -1.8400  -21.2511  -55.9612 O.2       16 UNK        -0.5000 
     94 N           0.0097  -22.3967  -55.2879 N.am      17 UNK        -0.5000 
     95 CA         -0.0193  -23.5562  -56.1896 C.3       17 UNK         0.1400 
     96 CB          0.2073  -23.1042  -57.6475 C.3       17 UNK        -0.1800 
     97 C          -1.2796  -24.4416  -56.0501 C.2       17 UNK         0.5000 
     98 O          -1.5360  -25.2622  -56.9325 O.2       17 UNK        -0.5000 
     99 N          -2.0553  -24.2458  -54.9699 N.am      18 UNK        -0.5000 
    100 CA        -3.4027  -24.7760  -54.7398 C.3       18 UNK         0.1400 
    101 CB        -3.3643  -26.2973  -54.4908 C.3       18 UNK        -0.1800 
    102 C         -4.3979  -24.3601  -55.8480 C.2       18 UNK         0.5000 
    103 O         -5.3065  -25.1244  -56.1791 O.2       18 UNK        -0.5000 
    104 N         -4.1907  -23.1631  -56.4154 N.am      19 UNK        -0.5000 
    105 CA        -4.9720  -22.6094  -57.5144 C.3       19 UNK         0.1400 
    106 CB        -4.0251  -22.2239  -58.6658 C.3       19 UNK        -0.1800 
    107 C         -5.7930  -21.4158  -57.0113 C.2       19 UNK         0.5000 
    108 O         -7.0131  -21.5293  -56.8837 O.2       19 UNK        -0.5000 
    109 N         -5.1187  -20.2941  -56.7257 N.am      20 UNK        -0.5000 
    110 CA        -5.7444  -19.0603  -56.2526 C.3       20 UNK         0.1400 
    111 CB        -4.7618  -17.8918  -56.4229 C.3       20 UNK        -0.1800 
    112 C         -6.1883  -19.2097  -54.7891 C.2       20 UNK         0.5000 
    113 O         -5.3380  -19.4180  -53.9232 O.2       20 UNK        -0.5000 
    114 N         -7.5061  -19.1396  -54.5511 N.am      21 UNK        -0.5000 
    115 CA        -8.2305  -19.2819  -53.2764 C.3       21 UNK         0.1400 
    116 CB        -7.8181  -18.1905  -52.2696 C.3       21 UNK        -0.1800 
    117 C         -8.1535  -20.6864  -52.6399 C.2       21 UNK         0.5000 
    118 O         -9.1783  -21.2134  -52.2061 O.2       21 UNK        -0.5000 
    119 N         -6.9534  -21.2691  -52.6137 N.am      22 UNK        -0.5000 
    120 CA        -6.6446  -22.6186  -52.1220 C.3       22 UNK         0.1400 
    121 C         -6.9906  -23.7590  -53.1241 C.2       22 UNK         0.5000 
    122 N         -7.4382  -23.4769  -54.3410 N.am      22 UNK        -0.7600 
    123 O         -6.8531  -24.9311  -52.7869 O.2       22 UNK        -0.5000 
    124 C124       -5.1653  -22.7058  -51.6678 C.3       23 UNK        -0.0398 
    125 S125       -4.8574  -21.7907  -50.1224 S.3       23 UNK        -0.2404 
    126 C126       -4.2105  -20.2067  -50.7463 C.3       23 UNK        -0.0205 
    127 H127       -0.4326  -10.7109  -49.1060 H         1 UNK         0.0600 
    128 H128        0.6099  -10.3050  -47.7292 H         1 UNK         0.0600 
    129 H129       -1.0731   -9.7907  -47.7546 H         1 UNK         0.0600 
    130 H130       -0.6424  -13.9003  -47.2406 H         1 UNK         0.3000 
    131 H131        0.3000  -12.7922  -49.6781 H         1 UNK         0.0600 
    132 H132        1.3595  -14.9785  -50.0342 H         1 UNK         0.0800 
    133 H133        1.1660  -15.4025  -48.3541 H         1 UNK         0.0800 
    134 H134       -0.6350  -16.7934  -47.5353 H         1 UNK         0.0800 
    135 H135       -0.1432  -17.7180  -48.9399 H         1 UNK         0.0800 
    136 H136       -1.8865  -18.8084  -50.3969 H         1 UNK         0.1150 
    137 H137       -5.7284  -19.4637  -48.6049 H         1 UNK         0.1150 
    138 H138       -2.9063  -16.8464  -46.7254 H         1 UNK         0.1150 
    139 H139       -5.0822  -17.1090  -45.7529 H         1 UNK         0.0800 
    140 H140       -6.3755  -17.6789  -46.7802 H         1 UNK         0.0800 
    141 H141       -3.8331  -19.9328  -43.7424 H         1 UNK         0.0800 
    142 H142       -3.3393  -18.6935  -44.8438 H         1 UNK         0.0800 
    143 H143       -3.3551  -20.6390  -46.6797 H         1 UNK         0.0600 
    144 H144       -1.2720  -19.6690  -45.0404 H         1 UNK         0.3000 
    145 H145        1.3908  -21.5379  -46.5110 H         1 UNK         0.0600 
    146 H146        2.3159  -19.2880  -46.8727 H         1 UNK         0.0600 
    147 H147        1.0357  -19.5784  -48.0361 H         1 UNK         0.0600 
    148 H148        0.7342  -18.5548  -46.6359 H         1 UNK         0.0600 
    149 H149        1.4081  -19.5322  -44.5006 H         1 UNK         0.3000 
    150 H150        0.8171  -21.7075  -41.6956 H         1 UNK         0.0600 
    151 H151        3.2505  -21.7670  -42.2453 H         1 UNK         0.0600 
    152 H152        2.9052  -20.5783  -40.9981 H         1 UNK         0.0600 
    153 H153        3.2148  -20.0560  -42.6518 H         1 UNK         0.0600 
    154 H154        1.1580  -18.8952  -41.8012 H         1 UNK         0.3000 
    155 H155       -2.3096  -18.0329  -42.2294 H         1 UNK         0.0600 
    156 H156       -0.3077  -17.7109  -39.9317 H         1 UNK         0.0600 
    157 H157       -1.8883  -18.4738  -39.7994 H         1 UNK         0.0600 
    158 H158       -1.7719  -16.7634  -40.1832 H         1 UNK         0.0600 
    159 H159       -0.0183  -16.3791  -42.0154 H         1 UNK         0.3000 
    160 H160        0.7462  -16.2204  -45.5396 H         1 UNK         0.0600 
    161 H161       -0.3017  -14.2277  -43.4593 H         1 UNK         0.0600 
    162 H162        0.5697  -13.8142  -44.9294 H         1 UNK         0.0600 
    163 H163       -1.0291  -14.5429  -45.0287 H         1 UNK         0.0600 
    164 H164        2.0657  -15.0494  -43.3296 H         1 UNK         0.3000 
    165 H165        4.3328  -17.7135  -42.5936 H         1 UNK         0.0600 
    166 H166        5.9183  -15.8565  -42.9506 H         1 UNK         0.0600 
    167 H167        5.2833  -16.3892  -44.4999 H         1 UNK         0.0600 
    168 H168        4.6842  -14.9047  -43.7707 H         1 UNK         0.0600 
    169 H169        3.8258  -15.0923  -41.4915 H         1 UNK         0.3000 
    170 H170        1.6658  -16.1684  -38.8703 H         1 UNK         0.0600 
    171 H171        3.9747  -16.7196  -38.0929 H         1 UNK         0.0600 
    172 H172        4.5939  -15.2572  -38.8507 H         1 UNK         0.0600 
    173 H173        3.4606  -15.1470  -37.5037 H         1 UNK         0.0600 
    174 H174        2.8444  -13.6359  -39.5337 H         1 UNK         0.3000 
    175 H175        0.1388  -12.4879  -41.5766 H         1 UNK         0.0600 
    176 H176        1.1081  -11.6914  -38.7824 H         1 UNK         0.0600 
    177 H177        0.1306  -10.7087  -39.8734 H         1 UNK         0.0600 
    178 H178       -0.5346  -12.1792  -39.1825 H         1 UNK         0.0600 
    179 H179        2.3443  -10.9984  -40.9173 H         1 UNK         0.3000 
    180 H180        3.6536  -10.3945  -42.7758 H         1 UNK         0.0600 
    181 H181        5.5689  -12.7277  -42.1771 H         1 UNK         0.0600 
    182 H182        5.0941  -11.4784  -41.0326 H         1 UNK         0.0600 
    183 H183        6.0489  -11.0516  -42.4428 H         1 UNK         0.0600 
    184 H184        5.0208  -12.2690  -44.5107 H         1 UNK         0.3000 
    185 H185        3.9827  -11.2772  -47.3167 H         1 UNK         0.0600 
    186 H186        5.6681  -12.8320  -46.3011 H         1 UNK         0.0600 
    187 H187        4.4058  -14.0338  -46.0124 H         1 UNK         0.0600 
    188 H188        4.8723  -13.6061  -47.6524 H         1 UNK         0.0600 
    189 H189        1.6564  -12.7453  -46.5062 H         1 UNK         0.3000 
    190 H190       -2.0922  -21.8600  -43.5514 H         1 UNK         0.3000 
    191 H191       -3.7937  -24.1233  -43.3428 H         1 UNK         0.0600 
    192 H192       -1.0199  -23.6127  -42.1423 H         1 UNK         0.0600 
    193 H193       -2.1507  -24.8513  -41.6106 H         1 UNK         0.0600 
    194 H194       -2.5608  -23.1523  -41.4232 H         1 UNK         0.0600 
    195 H195       -0.5512  -23.7513  -44.8120 H         1 UNK         0.3000 
    196 H196       -0.2065  -26.5063  -45.5284 H         1 UNK         0.0600 
    197 H197        1.7101  -25.6055  -46.8448 H         1 UNK         0.0600 
    198 H198        1.6802  -24.9074  -45.2335 H         1 UNK         0.0600 
    199 H199        1.1181  -23.9651  -46.6147 H         1 UNK         0.0600 
    200 H200       -2.1321  -24.0429  -46.9301 H         1 UNK         0.3000 
    201 H201       -3.3721  -23.7776  -48.7122 H         1 UNK         0.0600 
    202 H202       -4.2626  -26.0538  -48.2758 H         1 UNK         0.0600 
    203 H203       -3.0155  -26.7641  -49.3001 H         1 UNK         0.0600 
    204 H204       -4.2324  -25.7068  -49.9977 H         1 UNK         0.0600 
    205 H205       -1.2246  -22.6024  -49.0554 H         1 UNK         0.3000 
    206 H206        0.4915  -23.3694  -51.2168 H         1 UNK         0.0600 
    207 H207        1.1222  -21.9216  -49.2450 H         1 UNK         0.0600 
    208 H208        1.5307  -21.1793  -50.7744 H         1 UNK         0.0600 
    209 H209        0.1011  -20.6385  -49.8923 H         1 UNK         0.0600 
    210 H210        0.6964  -20.7358  -52.4483 H         1 UNK         0.3000 
    211 H211        0.2232  -19.7490  -54.3810 H         1 UNK         0.0600 
    212 H212       -2.7265  -20.0283  -53.6172 H         1 UNK         0.0600 
    213 H213       -2.0080  -18.8199  -54.6700 H         1 UNK         0.0600 
    214 H214       -1.6452  -18.8023  -52.9530 H         1 UNK         0.0600 
    215 H215        0.7561  -22.4056  -54.6072 H         1 UNK         0.3000 
    216 H216        0.8237  -24.1862  -55.9025 H         1 UNK         0.0600 
    217 H217        0.3471  -23.9608  -58.3078 H         1 UNK         0.0600 
    218 H218        1.0984  -22.4826  -57.7343 H         1 UNK         0.0600 
    219 H219       -0.6393  -22.5333  -58.0302 H         1 UNK         0.0600 
    220 H220       -1.7593  -23.5564  -54.2868 H         1 UNK         0.3000 
    221 H221       -3.7583  -24.3060  -53.8227 H         1 UNK         0.0600 
    222 H222       -3.0737  -26.8492  -55.3848 H         1 UNK         0.0600 
    223 H223       -2.6609  -26.5463  -53.6959 H         1 UNK         0.0600 
    224 H224       -4.3435  -26.6649  -54.1818 H         1 UNK         0.0600 
    225 H225       -3.4176  -22.5930  -56.0876 H         1 UNK         0.3000 
    226 H226       -5.6761  -23.3486  -57.9018 H         1 UNK         0.0600 
    227 H227       -3.5305  -23.1065  -59.0718 H         1 UNK         0.0600 
    228 H228       -4.5738  -21.7540  -59.4829 H         1 UNK         0.0600 
    229 H229       -3.2461  -21.5304  -58.3478 H         1 UNK         0.0600 
    230 H230       -4.1096  -20.2982  -56.7844 H         1 UNK         0.3000 
    231 H231       -6.6188  -18.8534  -56.8735 H         1 UNK         0.0600 
    232 H232       -4.4801  -17.7625  -57.4680 H         1 UNK         0.0600 
    233 H233       -3.8498  -18.0432  -55.8466 H         1 UNK         0.0600 
    234 H234       -5.2093  -16.9553  -56.0877 H         1 UNK         0.0600 
    235 H235       -8.1082  -19.0178  -55.3539 H         1 UNK         0.3000 
    236 H236       -9.2809  -19.1138  -53.5195 H         1 UNK         0.0600 
    237 H237       -6.7726  -18.2756  -51.9745 H         1 UNK         0.0600 
    238 H238       -7.9669  -17.1947  -52.6868 H         1 UNK         0.0600 
    239 H239       -8.4169  -18.2546  -51.3603 H         1 UNK         0.0600 
    240 H240       -6.1783  -20.7397  -53.0059 H         1 UNK         0.3000 
    241 H241       -7.2732  -22.8073  -51.2497 H         1 UNK         0.0600 
    242 H242       -7.6296  -24.2347  -54.9775 H         1 UNK         0.3800 
    243 H243       -7.5515  -22.5251  -54.6527 H         1 UNK         0.3800 
    244 H244       -4.5044  -22.3422  -52.4552 H         1 UNK         0.0800 
    245 H245       -4.8689  -23.7387  -51.4787 H         1 UNK         0.0800 
    246 H246       -4.9595  -19.7292  -51.3746 H         1 UNK         0.0800 
    247 H247       -3.3441  -20.4041  -51.3763 H         1 UNK         0.0800 
@<TRIPOS>BOND
     1    1    2 1    
     2    1  127 1    
     3    1  128 1    
     4    1  129 1    
     5    2    3 2    
     6    2    4 am   BACKBONE|DICT|INTERRES
     7    4    5 1    
     8    4  130 1    
     9    5    6 1    
    10    5   65 1    
    11    5  131 1    
    12    6    7 1    
    13    6  132 1    
    14    6  133 1    
    15    7    8 1    
    16    8    9 1    
    17    8  134 1    
    18    8  135 1    
    19    9   10 ar   
    20    9   14 ar   
    21   10   11 ar   
    22   10  136 1    
    23   11   12 ar   
    24   11  126 1    
    25   12   13 ar   
    26   12  137 1    
    27   13   14 ar   
    28   13   15 1    
    29   14  138 1    
    30   15   16 1    
    31   15  139 1    
    32   15  140 1    
    33   16   17 1    
    34   17   18 1    
    35   17  141 1    
    36   17  142 1    
    37   18   19 1    
    38   18   67 1    
    39   18  143 1    
    40   19   20 am   BACKBONE|DICT|INTERRES
    41   19  144 1    
    42   20   21 2    
    43   20   22 1    
    44   22   23 1    
    45   22   24 1    
    46   22  145 1    
    47   23  146 1    
    48   23  147 1    
    49   23  148 1    
    50   24   25 am   BACKBONE|DICT|INTERRES
    51   24  149 1    
    52   25   26 2    
    53   25   27 1    
    54   27   28 1    
    55   27   29 1    
    56   27  150 1    
    57   28  151 1    
    58   28  152 1    
    59   28  153 1    
    60   29   30 am   BACKBONE|DICT|INTERRES
    61   29  154 1    
    62   30   31 2    
    63   30   32 1    
    64   32   33 1    
    65   32   34 1    
    66   32  155 1    
    67   33  156 1    
    68   33  157 1    
    69   33  158 1    
    70   34   35 am   BACKBONE|DICT|INTERRES
    71   34  159 1    
    72   35   36 2    
    73   35   37 1    
    74   37   38 1    
    75   37   39 1    
    76   37  160 1    
    77   38  161 1    
    78   38  162 1    
    79   38  163 1    
    80   39   40 am   BACKBONE|DICT|INTERRES
    81   39  164 1    
    82   40   41 2    
    83   40   42 1    
    84   42   43 1    
    85   42   44 1    
    86   42  165 1    
    87   43  166 1    
    88   43  167 1    
    89   43  168 1    
    90   44   45 am   BACKBONE|DICT|INTERRES
    91   44  169 1    
    92   45   46 2    
    93   45   47 1    
    94   47   48 1    
    95   47   49 1    
    96   47  170 1    
    97   48  171 1    
    98   48  172 1    
    99   48  173 1    
   100   49   50 am   BACKBONE|DICT|INTERRES
   101   49  174 1    
   102   50   51 2    
   103   50   52 1    
   104   52   53 1    
   105   52   54 1    
   106   52  175 1    
   107   53  176 1    
   108   53  177 1    
   109   53  178 1    
   110   54   55 am   BACKBONE|DICT|INTERRES
   111   54  179 1    
   112   55   56 2    
   113   55   57 1    
   114   57   58 1    
   115   57   59 1    
   116   57  180 1    
   117   58  181 1    
   118   58  182 1    
   119   58  183 1    
   120   59   60 am   BACKBONE|DICT|INTERRES
   121   59  184 1    
   122   60   61 2    
   123   60   62 1    
   124   62   63 1    
   125   62   64 1    
   126   62  185 1    
   127   63  186 1    
   128   63  187 1    
   129   63  188 1    
   130   64   65 am   BACKBONE|DICT|INTERRES
   131   64  189 1    
   132   65   66 2    
   133   67   68 2    
   134   67   69 am   BACKBONE|DICT|INTERRES
   135   69   70 1    
   136   69  190 1    
   137   70   71 1    
   138   70   72 1    
   139   70  191 1    
   140   71  192 1    
   141   71  193 1    
   142   71  194 1    
   143   72   73 2    
   144   72   74 am   BACKBONE|DICT|INTERRES
   145   74   75 1    
   146   74  195 1    
   147   75   76 1    
   148   75   77 1    
   149   75  196 1    
   150   76  197 1    
   151   76  198 1    
   152   76  199 1    
   153   77   78 2    
   154   77   79 am   BACKBONE|DICT|INTERRES
   155   79   80 1    
   156   79  200 1    
   157   80   81 1    
   158   80   82 1    
   159   80  201 1    
   160   81  202 1    
   161   81  203 1    
   162   81  204 1    
   163   82   83 2    
   164   82   84 am   BACKBONE|DICT|INTERRES
   165   84   85 1    
   166   84  205 1    
   167   85   86 1    
   168   85   87 1    
   169   85  206 1    
   170   86  207 1    
   171   86  208 1    
   172   86  209 1    
   173   87   88 2    
   174   87   89 am   BACKBONE|DICT|INTERRES
   175   89   90 1    
   176   89  210 1    
   177   90   91 1    
   178   90   92 1    
   179   90  211 1    
   180   91  212 1    
   181   91  213 1    
   182   91  214 1    
   183   92   93 2    
   184   92   94 am   BACKBONE|DICT|INTERRES
   185   94   95 1    
   186   94  215 1    
   187   95   96 1    
   188   95   97 1    
   189   95  216 1    
   190   96  217 1    
   191   96  218 1    
   192   96  219 1    
   193   97   98 2    
   194   97   99 am   BACKBONE|DICT|INTERRES
   195   99  100 1    
   196   99  220 1    
   197  100  101 1    
   198  100  102 1    
   199  100  221 1    
   200  101  222 1    
   201  101  223 1    
   202  101  224 1    
   203  102  103 2    
   204  102  104 am   BACKBONE|DICT|INTERRES
   205  104  105 1    
   206  104  225 1    
   207  105  106 1    
   208  105  107 1    
   209  105  226 1    
   210  106  227 1    
   211  106  228 1    
   212  106  229 1    
   213  107  108 2    
   214  107  109 am   BACKBONE|DICT|INTERRES
   215  109  110 1    
   216  109  230 1    
   217  110  111 1    
   218  110  112 1    
   219  110  231 1    
   220  111  232 1    
   221  111  233 1    
   222  111  234 1    
   223  112  113 2    
   224  112  114 am   BACKBONE|DICT|INTERRES
   225  114  115 1    
   226  114  235 1    
   227  115  116 1    
   228  115  117 1    
   229  115  236 1    
   230  116  237 1    
   231  116  238 1    
   232  116  239 1    
   233  117  118 2    
   234  117  119 am   BACKBONE|DICT|INTERRES
   235  119  120 1    
   236  119  240 1    
   237  120  121 1    
   238  120  124 1    
   239  120  241 1    
   240  121  122 am   BACKBONE|DICT|INTERRES
   241  121  123 2    
   242  122  242 1    
   243  122  243 1    
   244  124  125 1    
   245  124  244 1    
   246  124  245 1    
   247  125  126 1    
   248  126  246 1    
   249  126  247 1    
@<TRIPOS>SUBSTRUCTURE
     1 UNK         1 GROUP             0       ****    0 ROOT    
