@<TRIPOS>MOLECULE
3R540
247   249    1
SMALL
USER_CHARGES


@<TRIPOS>ATOM
      1 CA         -3.6119  -14.1030  -47.5856 C.3       0 UNK        -0.1800 
      2 C          -2.5274  -13.2668  -48.2490 C.2       0 UNK         0.5000 
      3 O          -2.8460  -12.3118  -48.9585 O.2       0 UNK        -0.5000 
      4 N          -1.2558  -13.6302  -48.0408 N.am      1 UNK        -0.5000 
      5 CA         -0.0959  -12.9453  -48.6156 C.3       1 UNK         0.1400 
      6 C6          1.0428  -13.9389  -48.9642 C.3       23 UNK        -0.0398 
      7 S7          1.9454  -14.6629  -47.5477 S.3       23 UNK        -0.2404 
      8 C8          3.5355  -15.1224  -48.3146 C.3       23 UNK        -0.0205 
      9 C9          3.4383  -16.3941  -49.1495 C.ar      23 UNK        -0.0193 
     10 C10         2.8282  -16.3666  -50.4054 C.ar      23 UNK        -0.1150 
     11 C11         2.7139  -17.5283  -51.1703 C.ar      23 UNK        -0.0193 
     12 C12         3.2809  -18.7155  -50.7022 C.ar      23 UNK        -0.1150 
     13 C13         3.9328  -18.7580  -49.4621 C.ar      23 UNK        -0.0193 
     14 C14         3.9864  -17.5945  -48.6849 C.ar      23 UNK        -0.1150 
     15 C15         4.6368  -20.0191  -48.9549 C.3       23 UNK        -0.0205 
     16 S16         3.9955  -21.5943  -49.6247 S.3       23 UNK        -0.2404 
     17 C17         2.3985  -21.7088  -48.7562 C.3       23 UNK        -0.0398 
     18 CA          2.3014  -22.9654  -47.8529 C.3       11 UNK         0.1400 
     19 N           1.5929  -22.6692  -46.6062 N.am      11 UNK        -0.5000 
     20 C           1.6770  -23.3934  -45.4818 C.2       10 UNK         0.5000 
     21 O           2.4039  -24.3814  -45.3693 O.2       10 UNK        -0.5000 
     22 CA          0.8196  -22.9547  -44.2759 C.3       10 UNK         0.1400 
     23 CB          1.7172  -22.4142  -43.1517 C.3       10 UNK        -0.1800 
     24 N          -0.2006  -21.9513  -44.5900 N.am      10 UNK        -0.5000 
     25 C          -1.2795  -22.1649  -45.3548 C.2       9 UNK         0.5000 
     26 O          -1.5376  -23.2437  -45.8887 O.2       9 UNK        -0.5000 
     27 CA         -2.1862  -20.9500  -45.6259 C.3       9 UNK         0.1400 
     28 CB         -3.1173  -20.6848  -44.4352 C.3       9 UNK        -0.1800 
     29 N          -1.4554  -19.7253  -45.9596 N.am      9 UNK        -0.5000 
     30 C          -0.5760  -19.6053  -46.9661 C.2       8 UNK         0.5000 
     31 O          -0.2231  -20.5413  -47.6783 O.2       8 UNK        -0.5000 
     32 CA          0.0583  -18.2224  -47.1792 C.3       8 UNK         0.1400 
     33 CB         -0.9748  -17.2243  -47.7199 C.3       8 UNK        -0.1800 
     34 N           0.6555  -17.7168  -45.9458 N.am      8 UNK        -0.5000 
     35 C           1.7181  -18.2740  -45.3467 C.2       7 UNK         0.5000 
     36 O           2.3776  -19.1975  -45.8243 O.2       7 UNK        -0.5000 
     37 CA          2.0709  -17.7444  -43.9471 C.3       7 UNK         0.1400 
     38 CB          2.9437  -16.4837  -44.0409 C.3       7 UNK        -0.1800 
     39 N           0.8792  -17.4696  -43.1406 N.am      7 UNK        -0.5000 
     40 C           0.0322  -18.4098  -42.6939 C.2       6 UNK         0.5000 
     41 O           0.1718  -19.6134  -42.9043 O.2       6 UNK        -0.5000 
     42 CA         -1.1965  -17.9227  -41.9045 C.3       6 UNK         0.1400 
     43 CB         -0.8416  -17.7262  -40.4233 C.3       6 UNK        -0.1800 
     44 N          -1.7545  -16.6803  -42.4357 N.am      6 UNK        -0.5000 
     45 C          -2.3181  -16.5491  -43.6452 C.2       5 UNK         0.5000 
     46 O          -2.4739  -17.4787  -44.4358 O.2       5 UNK        -0.5000 
     47 CA         -2.7088  -15.1201  -44.0631 C.3       5 UNK         0.1400 
     48 CB         -4.1231  -14.7704  -43.5797 C.3       5 UNK        -0.1800 
     49 N          -1.7539  -14.1196  -43.5780 N.am      5 UNK        -0.5000 
     50 C          -0.4812  -14.0589  -43.9894 C.2       4 UNK         0.5000 
     51 O          -0.0251  -14.7742  -44.8852 O.2       4 UNK        -0.5000 
     52 CA          0.4483  -13.1213  -43.2077 C.3       4 UNK         0.1400 
     53 CB          0.8499  -13.7964  -41.8769 C.3       4 UNK        -0.1800 
     54 N           1.6182  -12.8305  -44.0324 N.am      4 UNK        -0.5000 
     55 C           2.6540  -12.0438  -43.7139 C.2       3 UNK         0.5000 
     56 O           2.7747  -11.4555  -42.6388 O.2       3 UNK        -0.5000 
     57 CA          3.7209  -11.8468  -44.8056 C.3       3 UNK         0.1400 
     58 CB          4.5149  -13.1382  -45.0586 C.3       3 UNK        -0.1800 
     59 N           3.1229  -11.3733  -46.0538 N.am      3 UNK        -0.5000 
     60 C           2.6341  -10.1359  -46.2278 C.2       2 UNK         0.5000 
     61 O           2.7249   -9.2414  -45.3858 O.2       2 UNK        -0.5000 
     62 CA          1.9222   -9.8344  -47.5620 C.3       2 UNK         0.1400 
     63 CB          2.8842   -9.1370  -48.5363 C.3       2 UNK        -0.1800 
     64 N           1.3505  -11.0108  -48.2222 N.am      2 UNK        -0.5000 
     65 C           0.3591  -11.7661  -47.7287 C.2       1 UNK         0.5000 
     66 O          -0.1733  -11.5604  -46.6344 O.2       1 UNK        -0.5000 
     67 C           1.6958  -24.1719  -48.6103 C.2       11 UNK         0.5000 
     68 O           2.3633  -24.7283  -49.4836 O.2       11 UNK        -0.5000 
     69 N           0.4642  -24.5722  -48.2641 N.am      12 UNK        -0.5000 
     70 CA         -0.2118  -25.7528  -48.7957 C.3       12 UNK         0.1400 
     71 CB         -0.9688  -25.3989  -50.0952 C.3       12 UNK        -0.1800 
     72 C          -1.0996  -26.3665  -47.6972 C.2       12 UNK         0.5000 
     73 O          -0.7233  -26.3470  -46.5243 O.2       12 UNK        -0.5000 
     74 N          -2.2612  -26.9041  -48.0897 N.am      13 UNK        -0.5000 
     75 CA         -3.2417  -27.5564  -47.2158 C.3       13 UNK         0.1400 
     76 CB         -4.0016  -28.6041  -48.0485 C.3       13 UNK        -0.1800 
     77 C          -4.2217  -26.5726  -46.5375 C.2       13 UNK         0.5000 
     78 O          -5.2020  -27.0204  -45.9423 O.2       13 UNK        -0.5000 
     79 N          -3.9714  -25.2602  -46.6675 N.am      14 UNK        -0.5000 
     80 CA         -4.7481  -24.1290  -46.1391 C.3       14 UNK         0.1400 
     81 CB         -4.8446  -24.1832  -44.6004 C.3       14 UNK        -0.1800 
     82 C          -6.1266  -23.9164  -46.7986 C.2       14 UNK         0.5000 
     83 O          -6.8576  -23.0180  -46.3782 O.2       14 UNK        -0.5000 
     84 N          -6.4413  -24.6957  -47.8432 N.am      15 UNK        -0.5000 
     85 CA         -7.6771  -24.6452  -48.6257 C.3       15 UNK         0.1400 
     86 CB         -7.6404  -25.7610  -49.6823 C.3       15 UNK        -0.1800 
     87 C          -7.8715  -23.2670  -49.2807 C.2       15 UNK         0.5000 
     88 O          -7.1191  -22.9227  -50.1952 O.2       15 UNK        -0.5000 
     89 N          -8.8231  -22.4878  -48.7461 N.am      16 UNK        -0.5000 
     90 CA         -9.1220  -21.0932  -49.0957 C.3       16 UNK         0.1400 
     91 CB         -9.7802  -21.0172  -50.4882 C.3       16 UNK        -0.1800 
     92 C          -7.8970  -20.1629  -48.9397 C.2       16 UNK         0.5000 
     93 O          -7.6380  -19.3273  -49.8066 O.2       16 UNK        -0.5000 
     94 N          -7.1521  -20.3617  -47.8392 N.am      17 UNK        -0.5000 
     95 CA         -5.8725  -19.7219  -47.5052 C.3       17 UNK         0.1400 
     96 CB         -6.0306  -18.2015  -47.2920 C.3       17 UNK        -0.1800 
     97 C          -4.7554  -20.0895  -48.5046 C.2       17 UNK         0.5000 
     98 O          -3.9260  -19.2473  -48.8471 O.2       17 UNK        -0.5000 
     99 N          -4.7689  -21.3615  -48.9313 N.am      18 UNK        -0.5000 
    100 CA        -3.8798  -21.9992  -49.9020 C.3       18 UNK         0.1400 
    101 CB        -2.4189  -21.9974  -49.4225 C.3       18 UNK        -0.1800 
    102 C         -4.0367  -21.3960  -51.3062 C.2       18 UNK         0.5000 
    103 O         -3.0918  -20.8199  -51.8534 O.2       18 UNK        -0.5000 
    104 N         -5.2269  -21.5798  -51.8913 N.am      19 UNK        -0.5000 
    105 CA        -5.5470  -21.2127  -53.2766 C.3       19 UNK         0.1400 
    106 CB        -7.0305  -21.4991  -53.5458 C.3       19 UNK        -0.1800 
    107 C         -4.6559  -21.9139  -54.3242 C.2       19 UNK         0.5000 
    108 O         -4.4326  -21.3632  -55.4024 O.2       19 UNK        -0.5000 
    109 N         -4.1382  -23.0991  -53.9709 N.am      20 UNK        -0.5000 
    110 CA        -3.1579  -23.8575  -54.7463 C.3       20 UNK         0.1400 
    111 CB        -3.0761  -25.2830  -54.1777 C.3       20 UNK        -0.1800 
    112 C         -1.7576  -23.2100  -54.7673 C.2       20 UNK         0.5000 
    113 O         -1.0174  -23.4256  -55.7278 O.2       20 UNK        -0.5000 
    114 N         -1.4126  -22.4446  -53.7207 N.am      21 UNK        -0.5000 
    115 CA        -0.1495  -21.7153  -53.6190 C.3       21 UNK         0.1400 
    116 CB         0.2888  -21.6126  -52.1471 C.3       21 UNK        -0.1800 
    117 C         -0.2830  -20.3261  -54.2595 C.2       21 UNK         0.5000 
    118 O          0.4790  -20.0041  -55.1719 O.2       21 UNK        -0.5000 
    119 N         -1.2579  -19.5432  -53.7827 N.am      22 UNK        -0.5000 
    120 CA        -1.5445  -18.1722  -54.2390 C.3       22 UNK         0.1400 
    121 C         -2.8864  -17.5816  -53.7172 C.2       22 UNK         0.5000 
    122 N         -3.5913  -18.2016  -52.7796 N.am      22 UNK        -0.7600 
    123 O         -3.3147  -16.5330  -54.1922 O.2       22 UNK        -0.5000 
    124 C124       -0.3661  -17.1782  -54.0152 C.3       23 UNK        -0.0398 
    125 S125        0.2215  -17.1056  -52.2856 S.3       23 UNK        -0.2404 
    126 C126        1.9877  -17.4902  -52.5056 C.3       23 UNK        -0.0205 
    127 H127       -4.4845  -14.1737  -48.2351 H         1 UNK         0.0600 
    128 H128       -3.9227  -13.6421  -46.6482 H         1 UNK         0.0600 
    129 H129       -3.2676  -15.1174  -47.3868 H         1 UNK         0.0600 
    130 H130       -1.0370  -14.3636  -47.3810 H         1 UNK         0.3000 
    131 H131       -0.4053  -12.5006  -49.5641 H         1 UNK         0.0600 
    132 H132        0.6255  -14.7569  -49.5526 H         1 UNK         0.0800 
    133 H133        1.7628  -13.4475  -49.6195 H         1 UNK         0.0800 
    134 H134        3.9058  -14.3013  -48.9296 H         1 UNK         0.0800 
    135 H135        4.2713  -15.2567  -47.5207 H         1 UNK         0.0800 
    136 H136        2.4229  -15.4440  -50.7917 H         1 UNK         0.1150 
    137 H137        3.2227  -19.6004  -51.3184 H         1 UNK         0.1150 
    138 H138        4.4778  -17.6189  -47.7223 H         1 UNK         0.1150 
    139 H139        5.6929  -19.9430  -49.2158 H         1 UNK         0.0800 
    140 H140        4.5918  -20.0593  -47.8649 H         1 UNK         0.0800 
    141 H141        1.5850  -21.6614  -49.4820 H         1 UNK         0.0800 
    142 H142        2.2930  -20.8063  -48.1531 H         1 UNK         0.0800 
    143 H143        3.3139  -23.2581  -47.5661 H         1 UNK         0.0600 
    144 H144        0.9586  -21.8780  -46.6388 H         1 UNK         0.3000 
    145 H145        0.3084  -23.8459  -43.9063 H         1 UNK         0.0600 
    146 H146        1.1354  -22.1821  -42.2595 H         1 UNK         0.0600 
    147 H147        2.4733  -23.1455  -42.8633 H         1 UNK         0.0600 
    148 H148        2.2373  -21.5057  -43.4590 H         1 UNK         0.0600 
    149 H149       -0.0675  -21.0330  -44.1733 H         1 UNK         0.3000 
    150 H150       -2.8066  -21.1932  -46.4885 H         1 UNK         0.0600 
    151 H151       -3.6843  -21.5762  -44.1718 H         1 UNK         0.0600 
    152 H152       -3.8356  -19.8970  -44.6619 H         1 UNK         0.0600 
    153 H153       -2.5572  -20.3829  -43.5506 H         1 UNK         0.0600 
    154 H154       -1.6930  -18.8988  -45.4167 H         1 UNK         0.3000 
    155 H155        0.8505  -18.3244  -47.9249 H         1 UNK         0.0600 
    156 H156       -0.5000  -16.2843  -47.9880 H         1 UNK         0.0600 
    157 H157       -1.7589  -17.0145  -46.9932 H         1 UNK         0.0600 
    158 H158       -1.4555  -17.6105  -48.6201 H         1 UNK         0.0600 
    159 H159        0.2033  -16.9281  -45.5006 H         1 UNK         0.3000 
    160 H160        2.6492  -18.5182  -43.4375 H         1 UNK         0.0600 
    161 H161        2.4150  -15.6637  -44.5244 H         1 UNK         0.0600 
    162 H162        3.8448  -16.6767  -44.6244 H         1 UNK         0.0600 
    163 H163        3.2615  -16.1458  -43.0547 H         1 UNK         0.0600 
    164 H164        0.6626  -16.5009  -42.9673 H         1 UNK         0.3000 
    165 H165       -1.9659  -18.6940  -41.9708 H         1 UNK         0.0600 
    166 H166       -1.7215  -17.4555  -39.8394 H         1 UNK         0.0600 
    167 H167       -0.4384  -18.6445  -39.9941 H         1 UNK         0.0600 
    168 H168       -0.0936  -16.9440  -40.2868 H         1 UNK         0.0600 
    169 H169       -1.6780  -15.8622  -41.8508 H         1 UNK         0.3000 
    170 H170       -2.6997  -15.0929  -45.1515 H         1 UNK         0.0600 
    171 H171       -4.8509  -15.4934  -43.9509 H         1 UNK         0.0600 
    172 H172       -4.1891  -14.7663  -42.4910 H         1 UNK         0.0600 
    173 H173       -4.4304  -13.7882  -43.9392 H         1 UNK         0.0600 
    174 H174       -2.0702  -13.5044  -42.8420 H         1 UNK         0.3000 
    175 H175       -0.0808  -12.1874  -43.0102 H         1 UNK         0.0600 
    176 H176        1.4832  -14.6677  -42.0425 H         1 UNK         0.0600 
    177 H177        1.3916  -13.1132  -41.2239 H         1 UNK         0.0600 
    178 H178       -0.0250  -14.1274  -41.3165 H         1 UNK         0.0600 
    179 H179        1.5820  -13.2654  -44.9467 H         1 UNK         0.3000 
    180 H180        4.4253  -11.0899  -44.4535 H         1 UNK         0.0600 
    181 H181        3.8789  -13.9429  -45.4231 H         1 UNK         0.0600 
    182 H182        4.9888  -13.4888  -44.1409 H         1 UNK         0.0600 
    183 H183        5.3051  -12.9781  -45.7922 H         1 UNK         0.0600 
    184 H184        2.9973  -12.0504  -46.7913 H         1 UNK         0.3000 
    185 H185        1.1024   -9.1473  -47.3424 H         1 UNK         0.0600 
    186 H186        3.3087   -8.2367  -48.0897 H         1 UNK         0.0600 
    187 H187        3.7144   -9.7868  -48.8162 H         1 UNK         0.0600 
    188 H188        2.3714   -8.8329  -49.4490 H         1 UNK         0.0600 
    189 H189        1.7325  -11.2331  -49.1297 H         1 UNK         0.3000 
    190 H190        0.0001  -24.1141  -47.4880 H         1 UNK         0.3000 
    191 H191        0.5371  -26.5113  -49.0322 H         1 UNK         0.0600 
    192 H192       -1.8519  -24.7929  -49.8973 H         1 UNK         0.0600 
    193 H193       -0.3336  -24.8479  -50.7889 H         1 UNK         0.0600 
    194 H194       -1.2959  -26.2988  -50.6171 H         1 UNK         0.0600 
    195 H195       -2.4929  -26.8775  -49.0722 H         1 UNK         0.3000 
    196 H196       -2.7125  -28.0802  -46.4171 H         1 UNK         0.0600 
    197 H197       -3.3156  -29.3180  -48.5051 H         1 UNK         0.0600 
    198 H198       -4.5836  -28.1403  -48.8459 H         1 UNK         0.0600 
    199 H199       -4.6923  -29.1773  -47.4287 H         1 UNK         0.0600 
    200 H200       -3.1143  -25.0043  -47.1370 H         1 UNK         0.3000 
    201 H201       -4.1765  -23.2375  -46.3953 H         1 UNK         0.0600 
    202 H202       -5.3239  -23.2881  -44.2033 H         1 UNK         0.0600 
    203 H203       -3.8549  -24.2495  -44.1482 H         1 UNK         0.0600 
    204 H204       -5.4300  -25.0355  -44.2560 H         1 UNK         0.0600 
    205 H205       -5.7705  -25.3965  -48.1179 H         1 UNK         0.3000 
    206 H206       -8.5127  -24.8416  -47.9510 H         1 UNK         0.0600 
    207 H207       -7.5673  -26.7437  -49.2157 H         1 UNK         0.0600 
    208 H208       -6.7938  -25.6488  -50.3610 H         1 UNK         0.0600 
    209 H209       -8.5483  -25.7554  -50.2868 H         1 UNK         0.0600 
    210 H210       -9.3502  -22.8562  -47.9662 H         1 UNK         0.3000 
    211 H211       -9.8561  -20.7416  -48.3693 H         1 UNK         0.0600 
    212 H212      -10.6940  -21.6103  -50.5214 H         1 UNK         0.0600 
    213 H213      -10.0513  -19.9921  -50.7432 H         1 UNK         0.0600 
    214 H214       -9.1173  -21.3877  -51.2681 H         1 UNK         0.0600 
    215 H215       -7.4321  -21.1089  -47.2125 H         1 UNK         0.3000 
    216 H216       -5.5670  -20.1500  -46.5495 H         1 UNK         0.0600 
    217 H217       -5.1106  -17.7673  -46.8978 H         1 UNK         0.0600 
    218 H218       -6.2623  -17.6814  -48.2216 H         1 UNK         0.0600 
    219 H219       -6.8236  -17.9834  -46.5769 H         1 UNK         0.0600 
    220 H220       -5.5670  -21.9174  -48.6605 H         1 UNK         0.3000 
    221 H221       -4.1959  -23.0412  -49.9720 H         1 UNK         0.0600 
    222 H222       -1.7741  -22.5250  -50.1238 H         1 UNK         0.0600 
    223 H223       -2.0323  -20.9826  -49.3491 H         1 UNK         0.0600 
    224 H224       -2.3107  -22.4807  -48.4529 H         1 UNK         0.0600 
    225 H225       -5.9626  -22.0432  -51.3606 H         1 UNK         0.3000 
    226 H226       -5.3894  -20.1395  -53.3866 H         1 UNK         0.0600 
    227 H227       -7.6621  -20.8514  -52.9394 H         1 UNK         0.0600 
    228 H228       -7.2866  -21.3102  -54.5892 H         1 UNK         0.0600 
    229 H229       -7.2901  -22.5346  -53.3223 H         1 UNK         0.0600 
    230 H230       -4.4047  -23.4845  -53.0775 H         1 UNK         0.3000 
    231 H231       -3.5110  -23.9185  -55.7780 H         1 UNK         0.0600 
    232 H232       -2.3756  -25.8921  -54.7505 H         1 UNK         0.0600 
    233 H233       -4.0451  -25.7808  -54.2180 H         1 UNK         0.0600 
    234 H234       -2.7392  -25.2846  -53.1401 H         1 UNK         0.0600 
    235 H235       -2.1027  -22.2459  -53.0083 H         1 UNK         0.3000 
    236 H236        0.6315  -22.2609  -54.1531 H         1 UNK         0.0600 
    237 H237        0.3988  -22.5995  -51.6979 H         1 UNK         0.0600 
    238 H238        1.2538  -21.1110  -52.0662 H         1 UNK         0.0600 
    239 H239       -0.4193  -21.0458  -51.5427 H         1 UNK         0.0600 
    240 H240       -1.8526  -19.9037  -53.0455 H         1 UNK         0.3000 
    241 H241       -1.6934  -18.2495  -55.3174 H         1 UNK         0.0600 
    242 H242       -4.4466  -17.7729  -52.4664 H         1 UNK         0.3800 
    243 H243       -3.2952  -19.0740  -52.3547 H         1 UNK         0.3800 
    244 H244       -0.6446  -16.1692  -54.3236 H         1 UNK         0.0800 
    245 H245        0.4657  -17.4445  -54.6672 H         1 UNK         0.0800 
    246 H246        2.0839  -18.4450  -53.0252 H         1 UNK         0.0800 
    247 H247        2.4484  -16.7358  -53.1450 H         1 UNK         0.0800 
@<TRIPOS>BOND
     1    1    2 1    
     2    1  127 1    
     3    1  128 1    
     4    1  129 1    
     5    2    3 2    
     6    2    4 am   BACKBONE|DICT|INTERRES
     7    4    5 1    
     8    4  130 1    
     9    5    6 1    
    10    5   65 1    
    11    5  131 1    
    12    6    7 1    
    13    6  132 1    
    14    6  133 1    
    15    7    8 1    
    16    8    9 1    
    17    8  134 1    
    18    8  135 1    
    19    9   10 ar   
    20    9   14 ar   
    21   10   11 ar   
    22   10  136 1    
    23   11   12 ar   
    24   11  126 1    
    25   12   13 ar   
    26   12  137 1    
    27   13   14 ar   
    28   13   15 1    
    29   14  138 1    
    30   15   16 1    
    31   15  139 1    
    32   15  140 1    
    33   16   17 1    
    34   17   18 1    
    35   17  141 1    
    36   17  142 1    
    37   18   19 1    
    38   18   67 1    
    39   18  143 1    
    40   19   20 am   BACKBONE|DICT|INTERRES
    41   19  144 1    
    42   20   21 2    
    43   20   22 1    
    44   22   23 1    
    45   22   24 1    
    46   22  145 1    
    47   23  146 1    
    48   23  147 1    
    49   23  148 1    
    50   24   25 am   BACKBONE|DICT|INTERRES
    51   24  149 1    
    52   25   26 2    
    53   25   27 1    
    54   27   28 1    
    55   27   29 1    
    56   27  150 1    
    57   28  151 1    
    58   28  152 1    
    59   28  153 1    
    60   29   30 am   BACKBONE|DICT|INTERRES
    61   29  154 1    
    62   30   31 2    
    63   30   32 1    
    64   32   33 1    
    65   32   34 1    
    66   32  155 1    
    67   33  156 1    
    68   33  157 1    
    69   33  158 1    
    70   34   35 am   BACKBONE|DICT|INTERRES
    71   34  159 1    
    72   35   36 2    
    73   35   37 1    
    74   37   38 1    
    75   37   39 1    
    76   37  160 1    
    77   38  161 1    
    78   38  162 1    
    79   38  163 1    
    80   39   40 am   BACKBONE|DICT|INTERRES
    81   39  164 1    
    82   40   41 2    
    83   40   42 1    
    84   42   43 1    
    85   42   44 1    
    86   42  165 1    
    87   43  166 1    
    88   43  167 1    
    89   43  168 1    
    90   44   45 am   BACKBONE|DICT|INTERRES
    91   44  169 1    
    92   45   46 2    
    93   45   47 1    
    94   47   48 1    
    95   47   49 1    
    96   47  170 1    
    97   48  171 1    
    98   48  172 1    
    99   48  173 1    
   100   49   50 am   BACKBONE|DICT|INTERRES
   101   49  174 1    
   102   50   51 2    
   103   50   52 1    
   104   52   53 1    
   105   52   54 1    
   106   52  175 1    
   107   53  176 1    
   108   53  177 1    
   109   53  178 1    
   110   54   55 am   BACKBONE|DICT|INTERRES
   111   54  179 1    
   112   55   56 2    
   113   55   57 1    
   114   57   58 1    
   115   57   59 1    
   116   57  180 1    
   117   58  181 1    
   118   58  182 1    
   119   58  183 1    
   120   59   60 am   BACKBONE|DICT|INTERRES
   121   59  184 1    
   122   60   61 2    
   123   60   62 1    
   124   62   63 1    
   125   62   64 1    
   126   62  185 1    
   127   63  186 1    
   128   63  187 1    
   129   63  188 1    
   130   64   65 am   BACKBONE|DICT|INTERRES
   131   64  189 1    
   132   65   66 2    
   133   67   68 2    
   134   67   69 am   BACKBONE|DICT|INTERRES
   135   69   70 1    
   136   69  190 1    
   137   70   71 1    
   138   70   72 1    
   139   70  191 1    
   140   71  192 1    
   141   71  193 1    
   142   71  194 1    
   143   72   73 2    
   144   72   74 am   BACKBONE|DICT|INTERRES
   145   74   75 1    
   146   74  195 1    
   147   75   76 1    
   148   75   77 1    
   149   75  196 1    
   150   76  197 1    
   151   76  198 1    
   152   76  199 1    
   153   77   78 2    
   154   77   79 am   BACKBONE|DICT|INTERRES
   155   79   80 1    
   156   79  200 1    
   157   80   81 1    
   158   80   82 1    
   159   80  201 1    
   160   81  202 1    
   161   81  203 1    
   162   81  204 1    
   163   82   83 2    
   164   82   84 am   BACKBONE|DICT|INTERRES
   165   84   85 1    
   166   84  205 1    
   167   85   86 1    
   168   85   87 1    
   169   85  206 1    
   170   86  207 1    
   171   86  208 1    
   172   86  209 1    
   173   87   88 2    
   174   87   89 am   BACKBONE|DICT|INTERRES
   175   89   90 1    
   176   89  210 1    
   177   90   91 1    
   178   90   92 1    
   179   90  211 1    
   180   91  212 1    
   181   91  213 1    
   182   91  214 1    
   183   92   93 2    
   184   92   94 am   BACKBONE|DICT|INTERRES
   185   94   95 1    
   186   94  215 1    
   187   95   96 1    
   188   95   97 1    
   189   95  216 1    
   190   96  217 1    
   191   96  218 1    
   192   96  219 1    
   193   97   98 2    
   194   97   99 am   BACKBONE|DICT|INTERRES
   195   99  100 1    
   196   99  220 1    
   197  100  101 1    
   198  100  102 1    
   199  100  221 1    
   200  101  222 1    
   201  101  223 1    
   202  101  224 1    
   203  102  103 2    
   204  102  104 am   BACKBONE|DICT|INTERRES
   205  104  105 1    
   206  104  225 1    
   207  105  106 1    
   208  105  107 1    
   209  105  226 1    
   210  106  227 1    
   211  106  228 1    
   212  106  229 1    
   213  107  108 2    
   214  107  109 am   BACKBONE|DICT|INTERRES
   215  109  110 1    
   216  109  230 1    
   217  110  111 1    
   218  110  112 1    
   219  110  231 1    
   220  111  232 1    
   221  111  233 1    
   222  111  234 1    
   223  112  113 2    
   224  112  114 am   BACKBONE|DICT|INTERRES
   225  114  115 1    
   226  114  235 1    
   227  115  116 1    
   228  115  117 1    
   229  115  236 1    
   230  116  237 1    
   231  116  238 1    
   232  116  239 1    
   233  117  118 2    
   234  117  119 am   BACKBONE|DICT|INTERRES
   235  119  120 1    
   236  119  240 1    
   237  120  121 1    
   238  120  124 1    
   239  120  241 1    
   240  121  122 am   BACKBONE|DICT|INTERRES
   241  121  123 2    
   242  122  242 1    
   243  122  243 1    
   244  124  125 1    
   245  124  244 1    
   246  124  245 1    
   247  125  126 1    
   248  126  246 1    
   249  126  247 1    
@<TRIPOS>SUBSTRUCTURE
     1 UNK         1 GROUP             0       ****    0 ROOT    
