@<TRIPOS>MOLECULE
3R540
247   249    1
SMALL
USER_CHARGES


@<TRIPOS>ATOM
      1 CA          6.9929  -18.1393  -49.0599 C.3       0 UNK        -0.1800 
      2 C           6.9334  -16.7399  -49.6709 C.2       0 UNK         0.5000 
      3 O           7.6591  -16.4679  -50.6257 O.2       0 UNK        -0.5000 
      4 N           6.0846  -15.8282  -49.1772 N.am      1 UNK        -0.5000 
      5 CA          5.2154  -15.9704  -48.0030 C.3       1 UNK         0.1400 
      6 C6          4.0971  -14.8987  -47.9787 C.3       23 UNK        -0.0398 
      7 S7          3.0427  -14.9136  -49.4686 S.3       23 UNK        -0.2404 
      8 C8          1.9907  -16.3589  -49.1385 C.3       23 UNK        -0.0205 
      9 C9          0.7263  -16.3268  -49.9795 C.ar      23 UNK        -0.0193 
     10 C10         0.6993  -16.8893  -51.2599 C.ar      23 UNK        -0.1150 
     11 C11        -0.4797  -16.8882  -52.0160 C.ar      23 UNK        -0.0193 
     12 C12        -1.6366  -16.3218  -51.4691 C.ar      23 UNK        -0.1150 
     13 C13        -1.6240  -15.7734  -50.1844 C.ar      23 UNK        -0.0193 
     14 C14        -0.4335  -15.7548  -49.4552 C.ar      23 UNK        -0.1150 
     15 C15        -2.9079  -15.2500  -49.5625 C.3       23 UNK        -0.0205 
     16 S16        -3.8886  -16.6049  -48.8371 S.3       23 UNK        -0.2404 
     17 C17        -2.7970  -17.1909  -47.4943 C.3       23 UNK        -0.0398 
     18 CA         -1.9309  -18.4171  -47.8885 C.3       11 UNK         0.1400 
     19 N          -0.7938  -18.6080  -46.9833 N.am      11 UNK        -0.5000 
     20 C           0.1866  -19.5083  -47.1519 C.2       10 UNK         0.5000 
     21 O           0.2840  -20.2401  -48.1341 O.2       10 UNK        -0.5000 
     22 CA          1.1980  -19.6697  -46.0024 C.3       10 UNK         0.1400 
     23 CB          2.3050  -18.6080  -46.0786 C.3       10 UNK        -0.1800 
     24 N           0.5600  -19.6295  -44.6873 N.am      10 UNK        -0.5000 
     25 C          -0.3512  -20.5138  -44.2559 C.2       9 UNK         0.5000 
     26 O          -0.7060  -21.5019  -44.8981 O.2       9 UNK        -0.5000 
     27 CA         -1.0249  -20.2056  -42.9083 C.3       9 UNK         0.1400 
     28 CB         -0.1376  -20.6378  -41.7309 C.3       9 UNK        -0.1800 
     29 N          -1.3616  -18.7872  -42.7834 N.am      9 UNK        -0.5000 
     30 C          -2.2942  -18.1653  -43.5189 C.2       8 UNK         0.5000 
     31 O          -3.0045  -18.7354  -44.3480 O.2       8 UNK        -0.5000 
     32 CA         -2.4177  -16.6427  -43.3276 C.3       8 UNK         0.1400 
     33 CB         -3.2749  -16.3162  -42.0961 C.3       8 UNK        -0.1800 
     34 N          -1.1133  -15.9915  -43.1984 N.am      8 UNK        -0.5000 
     35 C          -0.2175  -15.8904  -44.1916 C.2       7 UNK         0.5000 
     36 O          -0.4165  -16.2989  -45.3335 O.2       7 UNK        -0.5000 
     37 CA          1.1511  -15.2778  -43.8429 C.3       7 UNK         0.1400 
     38 CB          1.1121  -13.7553  -44.0284 C.3       7 UNK        -0.1800 
     39 N           1.5940  -15.6070  -42.4863 N.am      7 UNK        -0.5000 
     40 C           1.8139  -16.8554  -42.0445 C.2       6 UNK         0.5000 
     41 O           1.7218  -17.8471  -42.7673 O.2       6 UNK        -0.5000 
     42 CA          2.1481  -17.0531  -40.5537 C.3       6 UNK         0.1400 
     43 CB          3.6011  -17.5151  -40.3680 C.3       6 UNK        -0.1800 
     44 N           1.9036  -15.8624  -39.7390 N.am      6 UNK        -0.5000 
     45 C           0.6888  -15.4094  -39.3960 C.2       5 UNK         0.5000 
     46 O          -0.3604  -15.9610  -39.7309 O.2       5 UNK        -0.5000 
     47 CA          0.6350  -14.1074  -38.5711 C.3       5 UNK         0.1400 
     48 CB          0.5273  -14.4256  -37.0723 C.3       5 UNK        -0.1800 
     49 N           1.7901  -13.2321  -38.7935 N.am      5 UNK        -0.5000 
     50 C           2.0546  -12.6036  -39.9468 C.2       4 UNK         0.5000 
     51 O           1.3134  -12.6646  -40.9295 O.2       4 UNK        -0.5000 
     52 CA          3.3662  -11.7899  -40.0400 C.3       4 UNK         0.1400 
     53 CB          4.3482  -12.0389  -38.8724 C.3       4 UNK        -0.1800 
     54 N           4.0443  -11.9897  -41.3273 N.am      4 UNK        -0.5000 
     55 C           4.4489  -13.1586  -41.8465 C.2       3 UNK         0.5000 
     56 O           4.3108  -14.2403  -41.2720 O.2       3 UNK        -0.5000 
     57 CA          5.0709  -13.0868  -43.2580 C.3       3 UNK         0.1400 
     58 CB          6.3604  -12.2386  -43.2779 C.3       3 UNK        -0.1800 
     59 N           5.2904  -14.4046  -43.8704 N.am      3 UNK        -0.5000 
     60 C           6.1806  -15.3473  -43.5202 C.2       2 UNK         0.5000 
     61 O           7.0101  -15.2219  -42.6184 O.2       2 UNK        -0.5000 
     62 CA          6.1539  -16.6640  -44.3264 C.3       2 UNK         0.1400 
     63 CB          5.4509  -17.7712  -43.5273 C.3       2 UNK        -0.1800 
     64 N           5.5132  -16.5595  -45.6424 N.am      2 UNK        -0.5000 
     65 C           6.0342  -15.9145  -46.6949 C.2       1 UNK         0.5000 
     66 O           7.0980  -15.2922  -46.6564 O.2       1 UNK        -0.5000 
     67 C          -2.7736  -19.6987  -48.0182 C.2       11 UNK         0.5000 
     68 O          -3.0021  -20.1564  -49.1359 O.2       11 UNK        -0.5000 
     69 N          -3.1707  -20.2853  -46.8791 N.am      12 UNK        -0.5000 
     70 CA         -3.9331  -21.5342  -46.8184 C.3       12 UNK         0.1400 
     71 CB         -4.3075  -21.8381  -45.3606 C.3       12 UNK        -0.1800 
     72 C          -3.1969  -22.7274  -47.4564 C.2       12 UNK         0.5000 
     73 O          -3.8253  -23.5156  -48.1653 O.2       12 UNK        -0.5000 
     74 N          -1.8808  -22.8168  -47.2200 N.am      13 UNK        -0.5000 
     75 CA         -0.9935  -23.8153  -47.8117 C.3       13 UNK         0.1400 
     76 CB          0.3720  -23.7774  -47.1089 C.3       13 UNK        -0.1800 
     77 C          -0.8367  -23.6399  -49.3325 C.2       13 UNK         0.5000 
     78 O          -0.9939  -24.6150  -50.0672 O.2       13 UNK        -0.5000 
     79 N          -0.5616  -22.4066  -49.7823 N.am      14 UNK        -0.5000 
     80 CA         -0.4039  -22.0480  -51.1951 C.3       14 UNK         0.1400 
     81 CB          0.1067  -20.6039  -51.3100 C.3       14 UNK        -0.1800 
     82 C          -1.6968  -22.2382  -52.0083 C.2       14 UNK         0.5000 
     83 O          -1.6419  -22.7524  -53.1256 O.2       14 UNK        -0.5000 
     84 N          -2.8356  -21.8779  -51.4032 N.am      15 UNK        -0.5000 
     85 CA         -4.1777  -22.0823  -51.9437 C.3       15 UNK         0.1400 
     86 CB         -5.1621  -21.2060  -51.1546 C.3       15 UNK        -0.1800 
     87 C          -4.6417  -23.5496  -51.8980 C.2       15 UNK         0.5000 
     88 O          -5.6848  -23.8568  -52.4733 O.2       15 UNK        -0.5000 
     89 N          -3.9084  -24.4176  -51.1838 N.am      16 UNK        -0.5000 
     90 CA         -4.1998  -25.8327  -50.9349 C.3       16 UNK         0.1400 
     91 CB         -4.0317  -26.6489  -52.2334 C.3       16 UNK        -0.1800 
     92 C          -5.5786  -26.0309  -50.2716 C.2       16 UNK         0.5000 
     93 O          -6.3718  -26.8552  -50.7258 O.2       16 UNK        -0.5000 
     94 N          -5.8608  -25.2145  -49.2448 N.am      17 UNK        -0.5000 
     95 CA         -7.1507  -25.0887  -48.5532 C.3       17 UNK         0.1400 
     96 CB         -7.4763  -26.3684  -47.7553 C.3       17 UNK        -0.1800 
     97 C          -8.2939  -24.6509  -49.4993 C.2       17 UNK         0.5000 
     98 O          -9.4214  -25.1326  -49.3807 O.2       17 UNK        -0.5000 
     99 N          -7.9577  -23.7423  -50.4268 N.am      18 UNK        -0.5000 
    100 CA        -8.7971  -23.1586  -51.4801 C.3       18 UNK         0.1400 
    101 CB       -10.0230  -22.4305  -50.8893 C.3       18 UNK        -0.1800 
    102 C         -9.1648  -24.1346  -52.6187 C.2       18 UNK         0.5000 
    103 O        -10.0945  -23.8540  -53.3776 O.2       18 UNK        -0.5000 
    104 N         -8.4234  -25.2433  -52.7508 N.am      19 UNK        -0.5000 
    105 CA        -8.5449  -26.1820  -53.8679 C.3       19 UNK         0.1400 
    106 CB        -8.0669  -27.5709  -53.4192 C.3       19 UNK        -0.1800 
    107 C         -7.7595  -25.7257  -55.1139 C.2       19 UNK         0.5000 
    108 O         -8.0895  -26.1592  -56.2190 O.2       19 UNK        -0.5000 
    109 N         -6.7379  -24.8820  -54.9227 N.am      20 UNK        -0.5000 
    110 CA        -5.8624  -24.3487  -55.9631 C.3       20 UNK         0.1400 
    111 CB        -4.4158  -24.7651  -55.6381 C.3       20 UNK        -0.1800 
    112 C         -5.9932  -22.8170  -56.0526 C.2       20 UNK         0.5000 
    113 O         -6.7238  -22.1980  -55.2728 O.2       20 UNK        -0.5000 
    114 N         -5.2784  -22.2333  -57.0241 N.am      21 UNK        -0.5000 
    115 CA        -5.1752  -20.7910  -57.2569 C.3       21 UNK         0.1400 
    116 CB        -4.3800  -20.5581  -58.5517 C.3       21 UNK        -0.1800 
    117 C         -4.5225  -20.0382  -56.0791 C.2       21 UNK         0.5000 
    118 O         -3.7645  -20.6362  -55.3174 O.2       21 UNK        -0.5000 
    119 N         -4.8410  -18.7424  -55.9775 N.am      22 UNK        -0.5000 
    120 CA        -4.4788  -17.7947  -54.9048 C.3       22 UNK         0.1400 
    121 C         -5.2076  -18.0033  -53.5432 C.2       22 UNK         0.5000 
    122 N         -6.1392  -18.9419  -53.4249 N.am      22 UNK        -0.7600 
    123 O         -4.9828  -17.2520  -52.5996 O.2       22 UNK        -0.5000 
    124 C124       -2.9556  -17.4665  -54.8016 C.3       23 UNK        -0.0398 
    125 S125       -1.9159  -18.5641  -53.7671 S.3       23 UNK        -0.2404 
    126 C126       -0.4800  -17.4876  -53.4210 C.3       23 UNK        -0.0205 
    127 H127        6.0066  -18.6021  -49.0366 H         1 UNK         0.0600 
    128 H128        7.3941  -18.1065  -48.0473 H         1 UNK         0.0600 
    129 H129        7.6428  -18.7845  -49.6514 H         1 UNK         0.0600 
    130 H130        6.0698  -14.9130  -49.6029 H         1 UNK         0.3000 
    131 H131        4.7332  -16.9478  -48.0526 H         1 UNK         0.0600 
    132 H132        3.4552  -15.0211  -47.1045 H         1 UNK         0.0800 
    133 H133        4.5312  -13.9007  -47.8929 H         1 UNK         0.0800 
    134 H134        1.7202  -16.3853  -48.0823 H         1 UNK         0.0800 
    135 H135        2.5509  -17.2734  -49.3388 H         1 UNK         0.0800 
    136 H136        1.5997  -17.3289  -51.6654 H         1 UNK         0.1150 
    137 H137       -2.5601  -16.3315  -52.0289 H         1 UNK         0.1150 
    138 H138       -0.4173  -15.3318  -48.4604 H         1 UNK         0.1150 
    139 H139       -2.6919  -14.5008  -48.7993 H         1 UNK         0.0800 
    140 H140       -3.5067  -14.7489  -50.3245 H         1 UNK         0.0800 
    141 H141       -3.4126  -17.4104  -46.6214 H         1 UNK         0.0800 
    142 H142       -2.1616  -16.3588  -47.1961 H         1 UNK         0.0800 
    143 H143       -1.5011  -18.2320  -48.8739 H         1 UNK         0.0600 
    144 H144       -0.7544  -17.9930  -46.1764 H         1 UNK         0.3000 
    145 H145        1.6659  -20.6503  -46.1099 H         1 UNK         0.0600 
    146 H146        3.0472  -18.7630  -45.2956 H         1 UNK         0.0600 
    147 H147        2.8236  -18.6557  -47.0367 H         1 UNK         0.0600 
    148 H148        1.9043  -17.6017  -45.9670 H         1 UNK         0.0600 
    149 H149        0.8407  -18.8771  -44.0634 H         1 UNK         0.3000 
    150 H150       -1.9530  -20.7792  -42.8605 H         1 UNK         0.0600 
    151 H151        0.0829  -21.7047  -41.7840 H         1 UNK         0.0600 
    152 H152       -0.6323  -20.4557  -40.7768 H         1 UNK         0.0600 
    153 H153        0.8153  -20.1088  -41.7210 H         1 UNK         0.0600 
    154 H154       -0.7953  -18.2379  -42.1546 H         1 UNK         0.3000 
    155 H155       -2.9173  -16.2351  -44.2091 H         1 UNK         0.0600 
    156 H156       -2.8124  -16.6744  -41.1753 H         1 UNK         0.0600 
    157 H157       -4.2596  -16.7794  -42.1718 H         1 UNK         0.0600 
    158 H158       -3.4284  -15.2415  -41.9970 H         1 UNK         0.0600 
    159 H159       -0.8623  -15.6490  -42.2812 H         1 UNK         0.3000 
    160 H160        1.8880  -15.6849  -44.5370 H         1 UNK         0.0600 
    161 H161        0.3605  -13.2918  -43.3883 H         1 UNK         0.0600 
    162 H162        0.8690  -13.4950  -45.0594 H         1 UNK         0.0600 
    163 H163        2.0729  -13.3004  -43.7961 H         1 UNK         0.0600 
    164 H164        1.6993  -14.8371  -41.8383 H         1 UNK         0.3000 
    165 H165        1.4988  -17.8514  -40.1881 H         1 UNK         0.0600 
    166 H166        3.8230  -17.7072  -39.3183 H         1 UNK         0.0600 
    167 H167        3.7869  -18.4420  -40.9121 H         1 UNK         0.0600 
    168 H168        4.3137  -16.7754  -40.7315 H         1 UNK         0.0600 
    169 H169        2.7168  -15.3219  -39.4784 H         1 UNK         0.3000 
    170 H170       -0.2648  -13.5660  -38.8711 H         1 UNK         0.0600 
    171 H171       -0.3392  -15.0562  -36.8684 H         1 UNK         0.0600 
    172 H172        1.4099  -14.9527  -36.7078 H         1 UNK         0.0600 
    173 H173        0.4110  -13.5159  -36.4829 H         1 UNK         0.0600 
    174 H174        2.4438  -13.1399  -38.0295 H         1 UNK         0.3000 
    175 H175        3.0719  -10.7401  -40.0071 H         1 UNK         0.0600 
    176 H176        4.6416  -13.0869  -38.7997 H         1 UNK         0.0600 
    177 H177        5.2580  -11.4520  -38.9990 H         1 UNK         0.0600 
    178 H178        3.9137  -11.7443  -37.9165 H         1 UNK         0.0600 
    179 H179        4.1567  -11.1552  -41.8852 H         1 UNK         0.3000 
    180 H180        4.3422  -12.5861  -43.8965 H         1 UNK         0.0600 
    181 H181        7.0988  -12.6005  -42.5621 H         1 UNK         0.0600 
    182 H182        6.1524  -11.1983  -43.0267 H         1 UNK         0.0600 
    183 H183        6.8207  -12.2438  -44.2661 H         1 UNK         0.0600 
    184 H184        4.6506  -14.6426  -44.6118 H         1 UNK         0.3000 
    185 H185        7.1920  -16.9672  -44.4796 H         1 UNK         0.0600 
    186 H186        5.9073  -17.8963  -42.5445 H         1 UNK         0.0600 
    187 H187        4.3967  -17.5433  -43.3736 H         1 UNK         0.0600 
    188 H188        5.5160  -18.7318  -44.0384 H         1 UNK         0.0600 
    189 H189        4.6434  -17.0592  -45.7481 H         1 UNK         0.3000 
    190 H190       -2.9521  -19.8401  -45.9926 H         1 UNK         0.3000 
    191 H191       -4.8564  -21.3812  -47.3807 H         1 UNK         0.0600 
    192 H192       -3.4234  -21.9765  -44.7378 H         1 UNK         0.0600 
    193 H193       -4.9043  -22.7485  -45.2921 H         1 UNK         0.0600 
    194 H194       -4.8962  -21.0287  -44.9282 H         1 UNK         0.0600 
    195 H195       -1.4560  -22.1554  -46.5762 H         1 UNK         0.3000 
    196 H196       -1.4346  -24.7986  -47.6348 H         1 UNK         0.0600 
    197 H197        1.0455  -24.5289  -47.5224 H         1 UNK         0.0600 
    198 H198        0.2712  -23.9813  -46.0427 H         1 UNK         0.0600 
    199 H199        0.8557  -22.8065  -47.2177 H         1 UNK         0.0600 
    200 H200       -0.4248  -21.6525  -49.1122 H         1 UNK         0.3000 
    201 H201        0.3547  -22.7083  -51.6201 H         1 UNK         0.0600 
    202 H202        1.0591  -20.4770  -50.7954 H         1 UNK         0.0600 
    203 H203       -0.6016  -19.8912  -50.8846 H         1 UNK         0.0600 
    204 H204        0.2629  -20.3298  -52.3534 H         1 UNK         0.0600 
    205 H205       -2.7847  -21.4058  -50.5024 H         1 UNK         0.3000 
    206 H206       -4.1863  -21.7624  -52.9864 H         1 UNK         0.0600 
    207 H207       -4.8517  -20.1609  -51.1643 H         1 UNK         0.0600 
    208 H208       -6.1603  -21.2502  -51.5884 H         1 UNK         0.0600 
    209 H209       -5.2375  -21.5218  -50.1132 H         1 UNK         0.0600 
    210 H210       -3.0737  -24.0662  -50.7322 H         1 UNK         0.3000 
    211 H211       -3.4558  -26.1833  -50.2184 H         1 UNK         0.0600 
    212 H212       -4.7731  -26.3747  -52.9841 H         1 UNK         0.0600 
    213 H213       -4.1408  -27.7167  -52.0409 H         1 UNK         0.0600 
    214 H214       -3.0441  -26.4958  -52.6684 H         1 UNK         0.0600 
    215 H215       -5.1301  -24.5762  -48.9319 H         1 UNK         0.3000 
    216 H216       -7.0285  -24.2780  -47.8336 H         1 UNK         0.0600 
    217 H217       -8.3591  -26.2250  -47.1312 H         1 UNK         0.0600 
    218 H218       -6.6535  -26.6401  -47.0941 H         1 UNK         0.0600 
    219 H219       -7.6750  -27.2171  -48.4103 H         1 UNK         0.0600 
    220 H220       -6.9848  -23.4755  -50.4711 H         1 UNK         0.3000 
    221 H221       -8.1778  -22.3980  -51.9559 H         1 UNK         0.0600 
    222 H222      -10.7527  -23.1289  -50.4792 H         1 UNK         0.0600 
    223 H223       -9.7299  -21.7436  -50.0954 H         1 UNK         0.0600 
    224 H224      -10.5327  -21.8416  -51.6526 H         1 UNK         0.0600 
    225 H225       -7.6665  -25.4061  -52.0988 H         1 UNK         0.3000 
    226 H226       -9.5966  -26.2672  -54.1492 H         1 UNK         0.0600 
    227 H227       -8.5903  -27.9003  -52.5214 H         1 UNK         0.0600 
    228 H228       -8.2501  -28.3146  -54.1956 H         1 UNK         0.0600 
    229 H229       -6.9975  -27.5792  -53.2074 H         1 UNK         0.0600 
    230 H230       -6.5578  -24.5216  -53.9879 H         1 UNK         0.3000 
    231 H231       -6.1318  -24.7593  -56.9381 H         1 UNK         0.0600 
    232 H232       -4.3350  -25.8451  -55.5143 H         1 UNK         0.0600 
    233 H233       -4.0561  -24.2966  -54.7217 H         1 UNK         0.0600 
    234 H234       -3.7305  -24.4826  -56.4376 H         1 UNK         0.0600 
    235 H235       -4.6893  -22.8137  -57.6023 H         1 UNK         0.3000 
    236 H236       -6.1876  -20.4051  -57.3936 H         1 UNK         0.0600 
    237 H237       -3.3623  -20.9427  -58.4718 H         1 UNK         0.0600 
    238 H238       -4.8578  -21.0443  -59.4025 H         1 UNK         0.0600 
    239 H239       -4.3103  -19.4949  -58.7852 H         1 UNK         0.0600 
    240 H240       -5.4722  -18.3616  -56.6682 H         1 UNK         0.3000 
    241 H241       -4.9324  -16.8702  -55.2645 H         1 UNK         0.0600 
    242 H242       -6.6282  -19.0344  -52.5503 H         1 UNK         0.3800 
    243 H243       -6.3388  -19.5731  -54.1847 H         1 UNK         0.3800 
    244 H244       -2.5194  -17.4309  -55.8004 H         1 UNK         0.0800 
    245 H245       -2.8516  -16.4545  -54.4079 H         1 UNK         0.0800 
    246 H246        0.4200  -18.0858  -53.5691 H         1 UNK         0.0800 
    247 H247       -0.4272  -16.6807  -54.1527 H         1 UNK         0.0800 
@<TRIPOS>BOND
     1    1    2 1    
     2    1  127 1    
     3    1  128 1    
     4    1  129 1    
     5    2    3 2    
     6    2    4 am   BACKBONE|DICT|INTERRES
     7    4    5 1    
     8    4  130 1    
     9    5    6 1    
    10    5   65 1    
    11    5  131 1    
    12    6    7 1    
    13    6  132 1    
    14    6  133 1    
    15    7    8 1    
    16    8    9 1    
    17    8  134 1    
    18    8  135 1    
    19    9   10 ar   
    20    9   14 ar   
    21   10   11 ar   
    22   10  136 1    
    23   11   12 ar   
    24   11  126 1    
    25   12   13 ar   
    26   12  137 1    
    27   13   14 ar   
    28   13   15 1    
    29   14  138 1    
    30   15   16 1    
    31   15  139 1    
    32   15  140 1    
    33   16   17 1    
    34   17   18 1    
    35   17  141 1    
    36   17  142 1    
    37   18   19 1    
    38   18   67 1    
    39   18  143 1    
    40   19   20 am   BACKBONE|DICT|INTERRES
    41   19  144 1    
    42   20   21 2    
    43   20   22 1    
    44   22   23 1    
    45   22   24 1    
    46   22  145 1    
    47   23  146 1    
    48   23  147 1    
    49   23  148 1    
    50   24   25 am   BACKBONE|DICT|INTERRES
    51   24  149 1    
    52   25   26 2    
    53   25   27 1    
    54   27   28 1    
    55   27   29 1    
    56   27  150 1    
    57   28  151 1    
    58   28  152 1    
    59   28  153 1    
    60   29   30 am   BACKBONE|DICT|INTERRES
    61   29  154 1    
    62   30   31 2    
    63   30   32 1    
    64   32   33 1    
    65   32   34 1    
    66   32  155 1    
    67   33  156 1    
    68   33  157 1    
    69   33  158 1    
    70   34   35 am   BACKBONE|DICT|INTERRES
    71   34  159 1    
    72   35   36 2    
    73   35   37 1    
    74   37   38 1    
    75   37   39 1    
    76   37  160 1    
    77   38  161 1    
    78   38  162 1    
    79   38  163 1    
    80   39   40 am   BACKBONE|DICT|INTERRES
    81   39  164 1    
    82   40   41 2    
    83   40   42 1    
    84   42   43 1    
    85   42   44 1    
    86   42  165 1    
    87   43  166 1    
    88   43  167 1    
    89   43  168 1    
    90   44   45 am   BACKBONE|DICT|INTERRES
    91   44  169 1    
    92   45   46 2    
    93   45   47 1    
    94   47   48 1    
    95   47   49 1    
    96   47  170 1    
    97   48  171 1    
    98   48  172 1    
    99   48  173 1    
   100   49   50 am   BACKBONE|DICT|INTERRES
   101   49  174 1    
   102   50   51 2    
   103   50   52 1    
   104   52   53 1    
   105   52   54 1    
   106   52  175 1    
   107   53  176 1    
   108   53  177 1    
   109   53  178 1    
   110   54   55 am   BACKBONE|DICT|INTERRES
   111   54  179 1    
   112   55   56 2    
   113   55   57 1    
   114   57   58 1    
   115   57   59 1    
   116   57  180 1    
   117   58  181 1    
   118   58  182 1    
   119   58  183 1    
   120   59   60 am   BACKBONE|DICT|INTERRES
   121   59  184 1    
   122   60   61 2    
   123   60   62 1    
   124   62   63 1    
   125   62   64 1    
   126   62  185 1    
   127   63  186 1    
   128   63  187 1    
   129   63  188 1    
   130   64   65 am   BACKBONE|DICT|INTERRES
   131   64  189 1    
   132   65   66 2    
   133   67   68 2    
   134   67   69 am   BACKBONE|DICT|INTERRES
   135   69   70 1    
   136   69  190 1    
   137   70   71 1    
   138   70   72 1    
   139   70  191 1    
   140   71  192 1    
   141   71  193 1    
   142   71  194 1    
   143   72   73 2    
   144   72   74 am   BACKBONE|DICT|INTERRES
   145   74   75 1    
   146   74  195 1    
   147   75   76 1    
   148   75   77 1    
   149   75  196 1    
   150   76  197 1    
   151   76  198 1    
   152   76  199 1    
   153   77   78 2    
   154   77   79 am   BACKBONE|DICT|INTERRES
   155   79   80 1    
   156   79  200 1    
   157   80   81 1    
   158   80   82 1    
   159   80  201 1    
   160   81  202 1    
   161   81  203 1    
   162   81  204 1    
   163   82   83 2    
   164   82   84 am   BACKBONE|DICT|INTERRES
   165   84   85 1    
   166   84  205 1    
   167   85   86 1    
   168   85   87 1    
   169   85  206 1    
   170   86  207 1    
   171   86  208 1    
   172   86  209 1    
   173   87   88 2    
   174   87   89 am   BACKBONE|DICT|INTERRES
   175   89   90 1    
   176   89  210 1    
   177   90   91 1    
   178   90   92 1    
   179   90  211 1    
   180   91  212 1    
   181   91  213 1    
   182   91  214 1    
   183   92   93 2    
   184   92   94 am   BACKBONE|DICT|INTERRES
   185   94   95 1    
   186   94  215 1    
   187   95   96 1    
   188   95   97 1    
   189   95  216 1    
   190   96  217 1    
   191   96  218 1    
   192   96  219 1    
   193   97   98 2    
   194   97   99 am   BACKBONE|DICT|INTERRES
   195   99  100 1    
   196   99  220 1    
   197  100  101 1    
   198  100  102 1    
   199  100  221 1    
   200  101  222 1    
   201  101  223 1    
   202  101  224 1    
   203  102  103 2    
   204  102  104 am   BACKBONE|DICT|INTERRES
   205  104  105 1    
   206  104  225 1    
   207  105  106 1    
   208  105  107 1    
   209  105  226 1    
   210  106  227 1    
   211  106  228 1    
   212  106  229 1    
   213  107  108 2    
   214  107  109 am   BACKBONE|DICT|INTERRES
   215  109  110 1    
   216  109  230 1    
   217  110  111 1    
   218  110  112 1    
   219  110  231 1    
   220  111  232 1    
   221  111  233 1    
   222  111  234 1    
   223  112  113 2    
   224  112  114 am   BACKBONE|DICT|INTERRES
   225  114  115 1    
   226  114  235 1    
   227  115  116 1    
   228  115  117 1    
   229  115  236 1    
   230  116  237 1    
   231  116  238 1    
   232  116  239 1    
   233  117  118 2    
   234  117  119 am   BACKBONE|DICT|INTERRES
   235  119  120 1    
   236  119  240 1    
   237  120  121 1    
   238  120  124 1    
   239  120  241 1    
   240  121  122 am   BACKBONE|DICT|INTERRES
   241  121  123 2    
   242  122  242 1    
   243  122  243 1    
   244  124  125 1    
   245  124  244 1    
   246  124  245 1    
   247  125  126 1    
   248  126  246 1    
   249  126  247 1    
@<TRIPOS>SUBSTRUCTURE
     1 UNK         1 GROUP             0       ****    0 ROOT    
