@<TRIPOS>MOLECULE
3R540
247   249    1
SMALL
USER_CHARGES


@<TRIPOS>ATOM
      1 CA          6.7350  -10.6125  -46.7681 C.3       0 UNK        -0.1800 
      2 C           5.4031  -11.2039  -47.2061 C.2       0 UNK         0.5000 
      3 O           4.3761  -10.5291  -47.1278 O.2       0 UNK        -0.5000 
      4 N           5.4130  -12.4573  -47.6778 N.am      1 UNK        -0.5000 
      5 CA          4.2447  -13.2136  -48.1456 C.3       1 UNK         0.1400 
      6 C6          4.4864  -14.7421  -48.0158 C.3       23 UNK        -0.0398 
      7 S7          2.9613  -15.6978  -47.7079 S.3       23 UNK        -0.2404 
      8 C8          2.6459  -16.4196  -49.3486 C.3       23 UNK        -0.0205 
      9 C9          1.7010  -17.6077  -49.2630 C.ar      23 UNK        -0.0193 
     10 C10         0.3340  -17.4036  -49.0611 C.ar      23 UNK        -0.1150 
     11 C11        -0.5452  -18.4867  -48.9880 C.ar      23 UNK        -0.0193 
     12 C12        -0.0461  -19.7842  -49.1236 C.ar      23 UNK        -0.1150 
     13 C13         1.3190  -20.0038  -49.3313 C.ar      23 UNK        -0.0193 
     14 C14         2.1883  -18.9113  -49.3989 C.ar      23 UNK        -0.1150 
     15 C15         1.8481  -21.4228  -49.4865 C.3       23 UNK        -0.0205 
     16 S16         2.8226  -21.9862  -48.0498 S.3       23 UNK        -0.2404 
     17 C17         1.6824  -21.7118  -46.6511 C.3       23 UNK        -0.0398 
     18 CA          0.8711  -22.9593  -46.2397 C.3       11 UNK         0.1400 
     19 N           0.4089  -22.8530  -44.8538 N.am      11 UNK        -0.5000 
     20 C          -0.2577  -23.7998  -44.1786 C.2       10 UNK         0.5000 
     21 O          -0.5494  -24.9019  -44.6461 O.2       10 UNK        -0.5000 
     22 CA         -0.7123  -23.4222  -42.7596 C.3       10 UNK         0.1400 
     23 CB          0.4399  -23.5773  -41.7555 C.3       10 UNK        -0.1800 
     24 N          -1.2158  -22.0482  -42.7205 N.am      10 UNK        -0.5000 
     25 C          -2.4465  -21.6897  -43.1127 C.2       9 UNK         0.5000 
     26 O          -3.3091  -22.4924  -43.4696 O.2       9 UNK        -0.5000 
     27 CA         -2.7606  -20.1802  -43.1354 C.3       9 UNK         0.1400 
     28 CB         -3.2464  -19.7088  -41.7570 C.3       9 UNK        -0.1800 
     29 N          -1.6236  -19.3566  -43.5534 N.am      9 UNK        -0.5000 
     30 C          -1.0774  -19.3921  -44.7786 C.2       8 UNK         0.5000 
     31 O          -1.4885  -20.1139  -45.6820 O.2       8 UNK        -0.5000 
     32 CA          0.1617  -18.5147  -45.0373 C.3       8 UNK         0.1400 
     33 CB         -0.2652  -17.1257  -45.5212 C.3       8 UNK        -0.1800 
     34 N           1.0252  -18.3428  -43.8751 N.am      8 UNK        -0.5000 
     35 C           1.5125  -19.2926  -43.0667 C.2       7 UNK         0.5000 
     36 O           1.3982  -20.5018  -43.2756 O.2       7 UNK        -0.5000 
     37 CA          2.1713  -18.7838  -41.7679 C.3       7 UNK         0.1400 
     38 CB          3.7007  -18.8561  -41.8778 C.3       7 UNK        -0.1800 
     39 N           1.7794  -17.4078  -41.4261 N.am      7 UNK        -0.5000 
     40 C           0.5385  -16.9932  -41.1329 C.2       6 UNK         0.5000 
     41 O          -0.4297  -17.7515  -41.0642 O.2       6 UNK        -0.5000 
     42 CA          0.3249  -15.4754  -40.9694 C.3       6 UNK         0.1400 
     43 CB          0.9880  -14.9474  -39.6823 C.3       6 UNK        -0.1800 
     44 N           0.7057  -14.6749  -42.1477 N.am      6 UNK        -0.5000 
     45 C           1.9288  -14.4595  -42.6568 C.2       5 UNK         0.5000 
     46 O           2.9512  -14.9953  -42.2260 O.2       5 UNK        -0.5000 
     47 CA          2.0055  -13.5051  -43.8632 C.3       5 UNK         0.1400 
     48 CB          3.4318  -13.3753  -44.4377 C.3       5 UNK        -0.1800 
     49 N           1.0641  -13.9175  -44.9079 N.am      5 UNK        -0.5000 
     50 C           0.5994  -13.1207  -45.8784 C.2       4 UNK         0.5000 
     51 O           0.8959  -11.9279  -45.9890 O.2       4 UNK        -0.5000 
     52 CA         -0.3581  -13.7537  -46.9023 C.3       4 UNK         0.1400 
     53 CB         -1.7861  -13.8703  -46.3376 C.3       4 UNK        -0.1800 
     54 N          -0.3510  -12.9264  -48.1029 N.am      4 UNK        -0.5000 
     55 C          -0.7893  -13.2790  -49.3184 C.2       3 UNK         0.5000 
     56 O          -1.3360  -14.3523  -49.5721 O.2       3 UNK        -0.5000 
     57 CA         -0.5389  -12.2774  -50.4528 C.3       3 UNK         0.1400 
     58 CB         -1.6023  -11.1666  -50.4668 C.3       3 UNK        -0.1800 
     59 N           0.7991  -11.7088  -50.3184 N.am      3 UNK        -0.5000 
     60 C           1.5721  -11.2749  -51.3190 C.2       2 UNK         0.5000 
     61 O           1.2071  -11.2112  -52.4935 O.2       2 UNK        -0.5000 
     62 CA          3.0054  -10.8521  -50.9394 C.3       2 UNK         0.1400 
     63 CB          3.0952   -9.3260  -50.7884 C.3       2 UNK        -0.1800 
     64 N           3.4754  -11.4783  -49.6997 N.am      2 UNK        -0.5000 
     65 C           3.8224  -12.7651  -49.5656 C.2       1 UNK         0.5000 
     66 O           3.8340  -13.5593  -50.5065 O.2       1 UNK        -0.5000 
     67 C          -0.2886  -23.2307  -47.2222 C.2       11 UNK         0.5000 
     68 O          -0.1392  -24.0613  -48.1155 O.2       11 UNK        -0.5000 
     69 N          -1.4370  -22.5710  -47.0121 N.am      12 UNK        -0.5000 
     70 CA         -2.6700  -22.7413  -47.7801 C.3       12 UNK         0.1400 
     71 CB         -3.7470  -21.7874  -47.2443 C.3       12 UNK        -0.1800 
     72 C          -3.2087  -24.1800  -47.7894 C.2       12 UNK         0.5000 
     73 O          -3.7239  -24.6169  -48.8189 O.2       12 UNK        -0.5000 
     74 N          -3.0713  -24.8859  -46.6607 N.am      13 UNK        -0.5000 
     75 CA         -3.4412  -26.2924  -46.5299 C.3       13 UNK         0.1400 
     76 CB         -3.6459  -26.6332  -45.0458 C.3       13 UNK        -0.1800 
     77 C          -2.3890  -27.2151  -47.1680 C.2       13 UNK         0.5000 
     78 O          -2.7574  -28.1723  -47.8483 O.2       13 UNK        -0.5000 
     79 N          -1.1036  -26.9025  -46.9504 N.am      14 UNK        -0.5000 
     80 CA          0.0390  -27.6686  -47.4517 C.3       14 UNK         0.1400 
     81 CB          1.3228  -27.1660  -46.7733 C.3       14 UNK        -0.1800 
     82 C           0.1780  -27.6224  -48.9852 C.2       14 UNK         0.5000 
     83 O           0.3811  -28.6636  -49.6108 O.2       14 UNK        -0.5000 
     84 N           0.0572  -26.4198  -49.5607 N.am      15 UNK        -0.5000 
     85 CA          0.1542  -26.1647  -50.9996 C.3       15 UNK         0.1400 
     86 CB          0.6332  -24.7189  -51.2107 C.3       15 UNK        -0.1800 
     87 C          -1.1756  -26.3928  -51.7428 C.2       15 UNK         0.5000 
     88 O          -1.1761  -26.4118  -52.9740 O.2       15 UNK        -0.5000 
     89 N          -2.2786  -26.5271  -50.9906 N.am      16 UNK        -0.5000 
     90 CA         -3.6668  -26.6478  -51.4525 C.3       16 UNK         0.1400 
     91 CB         -3.8745  -27.9358  -52.2761 C.3       16 UNK        -0.1800 
     92 C          -4.1865  -25.3793  -52.1670 C.2       16 UNK         0.5000 
     93 O          -5.1014  -25.4633  -52.9880 O.2       16 UNK        -0.5000 
     94 N          -3.6123  -24.2183  -51.8183 N.am      17 UNK        -0.5000 
     95 CA         -4.0525  -22.8933  -52.2611 C.3       17 UNK         0.1400 
     96 CB         -2.9163  -21.8849  -52.0346 C.3       17 UNK        -0.1800 
     97 C          -5.3452  -22.4352  -51.5557 C.2       17 UNK         0.5000 
     98 O          -6.0552  -21.5789  -52.0893 O.2       17 UNK        -0.5000 
     99 N          -5.6203  -23.0169  -50.3752 N.am      18 UNK        -0.5000 
    100 CA        -6.8741  -22.9902  -49.6088 C.3       18 UNK         0.1400 
    101 CB        -7.9570  -23.7731  -50.3792 C.3       18 UNK        -0.1800 
    102 C         -7.3793  -21.5941  -49.1839 C.2       18 UNK         0.5000 
    103 O         -8.5449  -21.4669  -48.8067 O.2       18 UNK        -0.5000 
    104 N         -6.5138  -20.5724  -49.2770 N.am      19 UNK        -0.5000 
    105 CA        -6.8269  -19.1423  -49.1578 C.3       19 UNK         0.1400 
    106 CB        -7.2549  -18.7794  -47.7210 C.3       19 UNK        -0.1800 
    107 C         -7.8254  -18.6612  -50.2377 C.2       19 UNK         0.5000 
    108 O         -8.5644  -17.7004  -50.0166 O.2       19 UNK        -0.5000 
    109 N         -7.8217  -19.3481  -51.3881 N.am      20 UNK        -0.5000 
    110 CA        -8.5926  -19.0229  -52.5843 C.3       20 UNK         0.1400 
    111 CB        -9.3715  -20.2686  -53.0356 C.3       20 UNK        -0.1800 
    112 C         -7.6443  -18.5417  -53.6922 C.2       20 UNK         0.5000 
    113 O         -7.9481  -17.5599  -54.3698 O.2       20 UNK        -0.5000 
    114 N         -6.4917  -19.2143  -53.8255 N.am      21 UNK        -0.5000 
    115 CA        -5.4007  -18.8401  -54.7292 C.3       21 UNK         0.1400 
    116 CB        -4.7334  -20.1245  -55.2476 C.3       21 UNK        -0.1800 
    117 C         -4.3705  -17.9049  -54.0579 C.2       21 UNK         0.5000 
    118 O         -3.3732  -17.5509  -54.6882 O.2       21 UNK        -0.5000 
    119 N         -4.6162  -17.5244  -52.8003 N.am      22 UNK        -0.5000 
    120 CA        -3.7751  -16.6525  -51.9727 C.3       22 UNK         0.1400 
    121 C         -4.6269  -15.8872  -50.9192 C.2       22 UNK         0.5000 
    122 N         -4.0213  -15.0853  -50.0545 N.am      22 UNK        -0.7600 
    123 O         -5.8494  -16.0037  -50.8788 O.2       22 UNK        -0.5000 
    124 C124       -2.5615  -17.4165  -51.3788 C.3       23 UNK        -0.0398 
    125 S125       -3.0223  -18.7389  -50.2019 S.3       23 UNK        -0.2404 
    126 C126       -2.0317  -18.2597  -48.7546 C.3       23 UNK        -0.0205 
    127 H127        7.5549  -11.3195  -46.8966 H         1 UNK         0.0600 
    128 H128        6.6912  -10.3299  -45.7164 H         1 UNK         0.0600 
    129 H129        6.9596   -9.7206  -47.3531 H         1 UNK         0.0600 
    130 H130        6.2978  -12.9393  -47.7519 H         1 UNK         0.3000 
    131 H131        3.4110  -12.9587  -47.4887 H         1 UNK         0.0600 
    132 H132        5.1221  -14.9362  -47.1507 H         1 UNK         0.0800 
    133 H133        5.0395  -15.1450  -48.8656 H         1 UNK         0.0800 
    134 H134        3.5874  -16.7248  -49.8073 H         1 UNK         0.0800 
    135 H135        2.2155  -15.6592  -50.0016 H         1 UNK         0.0800 
    136 H136       -0.0412  -16.3981  -48.9539 H         1 UNK         0.1150 
    137 H137       -0.7268  -20.6214  -49.0684 H         1 UNK         0.1150 
    138 H138        3.2446  -19.0797  -49.5554 H         1 UNK         0.1150 
    139 H139        1.0277  -22.1192  -49.6598 H         1 UNK         0.0800 
    140 H140        2.4759  -21.4741  -50.3770 H         1 UNK         0.0800 
    141 H141        1.0196  -20.8755  -46.8542 H         1 UNK         0.0800 
    142 H142        2.3071  -21.3897  -45.8166 H         1 UNK         0.0800 
    143 H143        1.5364  -23.8239  -46.2726 H         1 UNK         0.0600 
    144 H144        0.6308  -21.9897  -44.3684 H         1 UNK         0.3000 
    145 H145       -1.5108  -24.1075  -42.4667 H         1 UNK         0.0600 
    146 H146        1.2772  -22.9195  -41.9908 H         1 UNK         0.0600 
    147 H147        0.1106  -23.3499  -40.7415 H         1 UNK         0.0600 
    148 H148        0.8177  -24.6005  -41.7528 H         1 UNK         0.0600 
    149 H149       -0.5458  -21.3253  -42.4940 H         1 UNK         0.3000 
    150 H150       -3.5685  -20.0234  -43.8533 H         1 UNK         0.0600 
    151 H151       -4.1127  -20.2849  -41.4292 H         1 UNK         0.0600 
    152 H152       -3.5432  -18.6601  -41.7810 H         1 UNK         0.0600 
    153 H153       -2.4709  -19.8191  -40.9979 H         1 UNK         0.0600 
    154 H154       -1.2174  -18.7540  -42.8474 H         1 UNK         0.3000 
    155 H155        0.7540  -18.9765  -45.8252 H         1 UNK         0.0600 
    156 H156       -0.9689  -17.1914  -46.3498 H         1 UNK         0.0600 
    157 H157        0.6011  -16.5694  -45.8748 H         1 UNK         0.0600 
    158 H158       -0.7493  -16.5552  -44.7279 H         1 UNK         0.0600 
    159 H159        1.1987  -17.3921  -43.5898 H         1 UNK         0.3000 
    160 H160        1.8480  -19.4402  -40.9577 H         1 UNK         0.0600 
    161 H161        4.0785  -18.1970  -42.6606 H         1 UNK         0.0600 
    162 H162        4.0290  -19.8696  -42.1128 H         1 UNK         0.0600 
    163 H163        4.1769  -18.5700  -40.9398 H         1 UNK         0.0600 
    164 H164        2.4917  -16.6888  -41.5286 H         1 UNK         0.3000 
    165 H165       -0.7504  -15.3287  -40.8543 H         1 UNK         0.0600 
    166 H166        0.7594  -13.8931  -39.5271 H         1 UNK         0.0600 
    167 H167        0.6248  -15.4898  -38.8085 H         1 UNK         0.0600 
    168 H168        2.0727  -15.0546  -39.7016 H         1 UNK         0.0600 
    169 H169       -0.0652  -14.1953  -42.5922 H         1 UNK         0.3000 
    170 H170        1.7043  -12.5244  -43.4889 H         1 UNK         0.0600 
    171 H171        4.1521  -13.1237  -43.6584 H         1 UNK         0.0600 
    172 H172        3.7617  -14.3024  -44.9070 H         1 UNK         0.0600 
    173 H173        3.4854  -12.5806  -45.1798 H         1 UNK         0.0600 
    174 H174        0.7797  -14.8851  -44.8836 H         1 UNK         0.3000 
    175 H175        0.0188  -14.7420  -47.1654 H         1 UNK         0.0600 
    176 H176       -2.2171  -12.8887  -46.1381 H         1 UNK         0.0600 
    177 H177       -2.4463  -14.3905  -47.0318 H         1 UNK         0.0600 
    178 H178       -1.7999  -14.4298  -45.4023 H         1 UNK         0.0600 
    179 H179        0.0469  -12.0093  -47.9450 H         1 UNK         0.3000 
    180 H180       -0.5980  -12.8318  -51.3921 H         1 UNK         0.0600 
    181 H181       -1.5666  -10.5628  -49.5593 H         1 UNK         0.0600 
    182 H182       -2.6052  -11.5887  -50.5436 H         1 UNK         0.0600 
    183 H183       -1.4645  -10.4997  -51.3179 H         1 UNK         0.0600 
    184 H184        1.2173  -11.7639  -49.4023 H         1 UNK         0.3000 
    185 H185        3.6670  -11.1563  -51.7532 H         1 UNK         0.0600 
    186 H186        4.1181   -9.0098  -50.5830 H         1 UNK         0.0600 
    187 H187        2.7774   -8.8230  -51.7027 H         1 UNK         0.0600 
    188 H188        2.4625   -8.9641  -49.9769 H         1 UNK         0.0600 
    189 H189        3.5556  -10.8829  -48.8800 H         1 UNK         0.3000 
    190 H190       -1.4569  -21.8386  -46.3056 H         1 UNK         0.3000 
    191 H191       -2.4519  -22.4706  -48.8128 H         1 UNK         0.0600 
    192 H192       -3.4942  -20.7491  -47.4486 H         1 UNK         0.0600 
    193 H193       -4.7131  -21.9803  -47.7071 H         1 UNK         0.0600 
    194 H194       -3.8779  -21.8940  -46.1671 H         1 UNK         0.0600 
    195 H195       -2.6109  -24.4571  -45.8695 H         1 UNK         0.3000 
    196 H196       -4.3900  -26.4559  -47.0460 H         1 UNK         0.0600 
    197 H197       -3.9571  -27.6714  -44.9245 H         1 UNK         0.0600 
    198 H198       -4.4201  -26.0072  -44.6018 H         1 UNK         0.0600 
    199 H199       -2.7323  -26.4954  -44.4668 H         1 UNK         0.0600 
    200 H200       -0.8927  -26.1048  -46.3613 H         1 UNK         0.3000 
    201 H201       -0.1080  -28.7115  -47.1632 H         1 UNK         0.0600 
    202 H202        1.2521  -27.2421  -45.6880 H         1 UNK         0.0600 
    203 H203        1.5289  -26.1250  -47.0226 H         1 UNK         0.0600 
    204 H204        2.1857  -27.7550  -47.0864 H         1 UNK         0.0600 
    205 H205       -0.0774  -25.6004  -48.9677 H         1 UNK         0.3000 
    206 H206        0.8973  -26.8370  -51.4332 H         1 UNK         0.0600 
    207 H207        1.5690  -24.5309  -50.6839 H         1 UNK         0.0600 
    208 H208        0.8079  -24.5142  -52.2676 H         1 UNK         0.0600 
    209 H209       -0.1029  -23.9967  -50.8556 H         1 UNK         0.0600 
    210 H210       -2.1599  -26.4943  -49.9876 H         1 UNK         0.3000 
    211 H211       -4.2698  -26.7440  -50.5484 H         1 UNK         0.0600 
    212 H212       -3.3730  -27.8871  -53.2428 H         1 UNK         0.0600 
    213 H213       -4.9338  -28.1094  -52.4683 H         1 UNK         0.0600 
    214 H214       -3.4959  -28.8085  -51.7439 H         1 UNK         0.0600 
    215 H215       -2.8918  -24.2502  -51.1121 H         1 UNK         0.3000 
    216 H216       -4.2624  -22.9379  -53.3316 H         1 UNK         0.0600 
    217 H217       -3.2039  -20.8866  -52.3652 H         1 UNK         0.0600 
    218 H218       -2.0234  -22.1655  -52.5934 H         1 UNK         0.0600 
    219 H219       -2.6420  -21.8092  -50.9837 H         1 UNK         0.0600 
    220 H220       -4.9294  -23.6687  -50.0141 H         1 UNK         0.3000 
    221 H221       -6.6709  -23.5297  -48.6826 H         1 UNK         0.0600 
    222 H222       -8.2521  -23.2557  -51.2930 H         1 UNK         0.0600 
    223 H223       -7.6029  -24.7661  -50.6568 H         1 UNK         0.0600 
    224 H224       -8.8544  -23.9095  -49.7748 H         1 UNK         0.0600 
    225 H225       -5.5846  -20.7860  -49.6097 H         1 UNK         0.3000 
    226 H226       -5.8968  -18.6107  -49.3596 H         1 UNK         0.0600 
    227 H227       -6.5293  -19.1399  -46.9918 H         1 UNK         0.0600 
    228 H228       -7.3266  -17.6981  -47.5989 H         1 UNK         0.0600 
    229 H229       -8.2274  -19.2008  -47.4660 H         1 UNK         0.0600 
    230 H230       -7.1987  -20.1462  -51.4665 H         1 UNK         0.3000 
    231 H231       -9.3077  -18.2238  -52.3786 H         1 UNK         0.0600 
    232 H232       -8.7067  -21.1042  -53.2593 H         1 UNK         0.0600 
    233 H233       -9.9545  -20.0606  -53.9335 H         1 UNK         0.0600 
    234 H234      -10.0674  -20.5957  -52.2629 H         1 UNK         0.0600 
    235 H235       -6.3266  -20.0291  -53.2423 H         1 UNK         0.3000 
    236 H236       -5.8058  -18.3045  -55.5901 H         1 UNK         0.0600 
    237 H237       -5.4557  -20.7677  -55.7506 H         1 UNK         0.0600 
    238 H238       -3.9467  -19.8969  -55.9680 H         1 UNK         0.0600 
    239 H239       -4.2822  -20.6976  -54.4396 H         1 UNK         0.0600 
    240 H240       -5.4860  -17.8001  -52.3676 H         1 UNK         0.3000 
    241 H241       -3.3860  -15.8718  -52.6287 H         1 UNK         0.0600 
    242 H242       -4.5905  -14.5951  -49.3843 H         1 UNK         0.3800 
    243 H243       -3.0126  -14.9536  -50.0280 H         1 UNK         0.3800 
    244 H244       -1.9823  -17.8735  -52.1818 H         1 UNK         0.0800 
    245 H245       -1.8784  -16.7128  -50.9030 H         1 UNK         0.0800 
    246 H246       -2.3488  -18.8430  -47.8918 H         1 UNK         0.0800 
    247 H247       -2.2370  -17.2166  -48.5077 H         1 UNK         0.0800 
@<TRIPOS>BOND
     1    1    2 1    
     2    1  127 1    
     3    1  128 1    
     4    1  129 1    
     5    2    3 2    
     6    2    4 am   BACKBONE|DICT|INTERRES
     7    4    5 1    
     8    4  130 1    
     9    5    6 1    
    10    5   65 1    
    11    5  131 1    
    12    6    7 1    
    13    6  132 1    
    14    6  133 1    
    15    7    8 1    
    16    8    9 1    
    17    8  134 1    
    18    8  135 1    
    19    9   10 ar   
    20    9   14 ar   
    21   10   11 ar   
    22   10  136 1    
    23   11   12 ar   
    24   11  126 1    
    25   12   13 ar   
    26   12  137 1    
    27   13   14 ar   
    28   13   15 1    
    29   14  138 1    
    30   15   16 1    
    31   15  139 1    
    32   15  140 1    
    33   16   17 1    
    34   17   18 1    
    35   17  141 1    
    36   17  142 1    
    37   18   19 1    
    38   18   67 1    
    39   18  143 1    
    40   19   20 am   BACKBONE|DICT|INTERRES
    41   19  144 1    
    42   20   21 2    
    43   20   22 1    
    44   22   23 1    
    45   22   24 1    
    46   22  145 1    
    47   23  146 1    
    48   23  147 1    
    49   23  148 1    
    50   24   25 am   BACKBONE|DICT|INTERRES
    51   24  149 1    
    52   25   26 2    
    53   25   27 1    
    54   27   28 1    
    55   27   29 1    
    56   27  150 1    
    57   28  151 1    
    58   28  152 1    
    59   28  153 1    
    60   29   30 am   BACKBONE|DICT|INTERRES
    61   29  154 1    
    62   30   31 2    
    63   30   32 1    
    64   32   33 1    
    65   32   34 1    
    66   32  155 1    
    67   33  156 1    
    68   33  157 1    
    69   33  158 1    
    70   34   35 am   BACKBONE|DICT|INTERRES
    71   34  159 1    
    72   35   36 2    
    73   35   37 1    
    74   37   38 1    
    75   37   39 1    
    76   37  160 1    
    77   38  161 1    
    78   38  162 1    
    79   38  163 1    
    80   39   40 am   BACKBONE|DICT|INTERRES
    81   39  164 1    
    82   40   41 2    
    83   40   42 1    
    84   42   43 1    
    85   42   44 1    
    86   42  165 1    
    87   43  166 1    
    88   43  167 1    
    89   43  168 1    
    90   44   45 am   BACKBONE|DICT|INTERRES
    91   44  169 1    
    92   45   46 2    
    93   45   47 1    
    94   47   48 1    
    95   47   49 1    
    96   47  170 1    
    97   48  171 1    
    98   48  172 1    
    99   48  173 1    
   100   49   50 am   BACKBONE|DICT|INTERRES
   101   49  174 1    
   102   50   51 2    
   103   50   52 1    
   104   52   53 1    
   105   52   54 1    
   106   52  175 1    
   107   53  176 1    
   108   53  177 1    
   109   53  178 1    
   110   54   55 am   BACKBONE|DICT|INTERRES
   111   54  179 1    
   112   55   56 2    
   113   55   57 1    
   114   57   58 1    
   115   57   59 1    
   116   57  180 1    
   117   58  181 1    
   118   58  182 1    
   119   58  183 1    
   120   59   60 am   BACKBONE|DICT|INTERRES
   121   59  184 1    
   122   60   61 2    
   123   60   62 1    
   124   62   63 1    
   125   62   64 1    
   126   62  185 1    
   127   63  186 1    
   128   63  187 1    
   129   63  188 1    
   130   64   65 am   BACKBONE|DICT|INTERRES
   131   64  189 1    
   132   65   66 2    
   133   67   68 2    
   134   67   69 am   BACKBONE|DICT|INTERRES
   135   69   70 1    
   136   69  190 1    
   137   70   71 1    
   138   70   72 1    
   139   70  191 1    
   140   71  192 1    
   141   71  193 1    
   142   71  194 1    
   143   72   73 2    
   144   72   74 am   BACKBONE|DICT|INTERRES
   145   74   75 1    
   146   74  195 1    
   147   75   76 1    
   148   75   77 1    
   149   75  196 1    
   150   76  197 1    
   151   76  198 1    
   152   76  199 1    
   153   77   78 2    
   154   77   79 am   BACKBONE|DICT|INTERRES
   155   79   80 1    
   156   79  200 1    
   157   80   81 1    
   158   80   82 1    
   159   80  201 1    
   160   81  202 1    
   161   81  203 1    
   162   81  204 1    
   163   82   83 2    
   164   82   84 am   BACKBONE|DICT|INTERRES
   165   84   85 1    
   166   84  205 1    
   167   85   86 1    
   168   85   87 1    
   169   85  206 1    
   170   86  207 1    
   171   86  208 1    
   172   86  209 1    
   173   87   88 2    
   174   87   89 am   BACKBONE|DICT|INTERRES
   175   89   90 1    
   176   89  210 1    
   177   90   91 1    
   178   90   92 1    
   179   90  211 1    
   180   91  212 1    
   181   91  213 1    
   182   91  214 1    
   183   92   93 2    
   184   92   94 am   BACKBONE|DICT|INTERRES
   185   94   95 1    
   186   94  215 1    
   187   95   96 1    
   188   95   97 1    
   189   95  216 1    
   190   96  217 1    
   191   96  218 1    
   192   96  219 1    
   193   97   98 2    
   194   97   99 am   BACKBONE|DICT|INTERRES
   195   99  100 1    
   196   99  220 1    
   197  100  101 1    
   198  100  102 1    
   199  100  221 1    
   200  101  222 1    
   201  101  223 1    
   202  101  224 1    
   203  102  103 2    
   204  102  104 am   BACKBONE|DICT|INTERRES
   205  104  105 1    
   206  104  225 1    
   207  105  106 1    
   208  105  107 1    
   209  105  226 1    
   210  106  227 1    
   211  106  228 1    
   212  106  229 1    
   213  107  108 2    
   214  107  109 am   BACKBONE|DICT|INTERRES
   215  109  110 1    
   216  109  230 1    
   217  110  111 1    
   218  110  112 1    
   219  110  231 1    
   220  111  232 1    
   221  111  233 1    
   222  111  234 1    
   223  112  113 2    
   224  112  114 am   BACKBONE|DICT|INTERRES
   225  114  115 1    
   226  114  235 1    
   227  115  116 1    
   228  115  117 1    
   229  115  236 1    
   230  116  237 1    
   231  116  238 1    
   232  116  239 1    
   233  117  118 2    
   234  117  119 am   BACKBONE|DICT|INTERRES
   235  119  120 1    
   236  119  240 1    
   237  120  121 1    
   238  120  124 1    
   239  120  241 1    
   240  121  122 am   BACKBONE|DICT|INTERRES
   241  121  123 2    
   242  122  242 1    
   243  122  243 1    
   244  124  125 1    
   245  124  244 1    
   246  124  245 1    
   247  125  126 1    
   248  126  246 1    
   249  126  247 1    
@<TRIPOS>SUBSTRUCTURE
     1 UNK         1 GROUP             0       ****    0 ROOT    
