@<TRIPOS>MOLECULE
3R540
247   249    1
SMALL
USER_CHARGES


@<TRIPOS>ATOM
      1 CA          0.5587  -14.6262  -45.6711 C.3       0 UNK        -0.1800 
      2 C           1.6128  -14.5212  -46.7625 C.2       0 UNK         0.5000 
      3 O           1.6217  -13.5350  -47.4983 O.2       0 UNK        -0.5000 
      4 N           2.4972  -15.5246  -46.8730 N.am      1 UNK        -0.5000 
      5 CA          3.6039  -15.5548  -47.8443 C.3       1 UNK         0.1400 
      6 C6          4.3413  -16.9184  -47.9019 C.3       23 UNK        -0.0398 
      7 S7          3.2641  -18.3812  -48.0673 S.3       23 UNK        -0.2404 
      8 C8          2.9943  -18.4796  -49.8745 C.3       23 UNK        -0.0205 
      9 C9          1.7811  -17.7155  -50.4116 C.ar      23 UNK        -0.0193 
     10 C10         1.5563  -17.6956  -51.7920 C.ar      23 UNK        -0.1150 
     11 C11         0.4366  -17.0531  -52.3335 C.ar      23 UNK        -0.0193 
     12 C12        -0.4658  -16.4166  -51.4736 C.ar      23 UNK        -0.1150 
     13 C13        -0.2673  -16.4418  -50.0917 C.ar      23 UNK        -0.0193 
     14 C14         0.8617  -17.0746  -49.5745 C.ar      23 UNK        -0.1150 
     15 C15        -1.2738  -15.7985  -49.1513 C.3       23 UNK        -0.0205 
     16 S16        -2.4177  -17.0231  -48.4325 S.3       23 UNK        -0.2404 
     17 C17        -1.4183  -17.8470  -47.1358 C.3       23 UNK        -0.0398 
     18 CA         -0.9568  -19.2808  -47.5081 C.3       11 UNK         0.1400 
     19 N           0.0224  -19.8131  -46.5533 N.am      11 UNK        -0.5000 
     20 C           0.6750  -20.9781  -46.6944 C.2       10 UNK         0.5000 
     21 O           0.5914  -21.6938  -47.6911 O.2       10 UNK        -0.5000 
     22 CA          1.4964  -21.4723  -45.4904 C.3       10 UNK         0.1400 
     23 CB          2.9031  -20.8585  -45.4684 C.3       10 UNK        -0.1800 
     24 N           0.8170  -21.2107  -44.2223 N.am      10 UNK        -0.5000 
     25 C          -0.2923  -21.8461  -43.8177 C.2       9 UNK         0.5000 
     26 O          -0.8293  -22.7527  -44.4523 O.2       9 UNK        -0.5000 
     27 CA         -0.9331  -21.3567  -42.5061 C.3       9 UNK         0.1400 
     28 CB         -0.2868  -22.0478  -41.2966 C.3       9 UNK        -0.1800 
     29 N          -0.8366  -19.9055  -42.3453 N.am      9 UNK        -0.5000 
     30 C          -1.4604  -19.0140  -43.1282 C.2       8 UNK         0.5000 
     31 O          -2.2325  -19.3236  -44.0358 O.2       8 UNK        -0.5000 
     32 CA         -1.1081  -17.5326  -42.8976 C.3       8 UNK         0.1400 
     33 CB         -2.0086  -16.9192  -41.8174 C.3       8 UNK        -0.1800 
     34 N           0.3021  -17.3324  -42.5453 N.am      8 UNK        -0.5000 
     35 C           1.3221  -17.6003  -43.3744 C.2       7 UNK         0.5000 
     36 O           1.1546  -18.0146  -44.5231 O.2       7 UNK        -0.5000 
     37 CA          2.7526  -17.3830  -42.8501 C.3       7 UNK         0.1400 
     38 CB          3.6934  -16.8558  -43.9439 C.3       7 UNK        -0.1800 
     39 N           2.7816  -16.4601  -41.7163 N.am      7 UNK        -0.5000 
     40 C           3.3440  -16.7201  -40.5280 C.2       6 UNK         0.5000 
     41 O           3.8924  -17.7876  -40.2510 O.2       6 UNK        -0.5000 
     42 CA          3.2864  -15.6123  -39.4548 C.3       6 UNK         0.1400 
     43 CB          4.6188  -14.8515  -39.4100 C.3       6 UNK        -0.1800 
     44 N           2.2025  -14.6479  -39.6477 N.am      6 UNK        -0.5000 
     45 C           0.8949  -14.9395  -39.6103 C.2       5 UNK         0.5000 
     46 O           0.4535  -16.0636  -39.3697 O.2       5 UNK        -0.5000 
     47 CA         -0.0893  -13.8007  -39.9399 C.3       5 UNK         0.1400 
     48 CB         -0.6370  -13.1787  -38.6468 C.3       5 UNK        -0.1800 
     49 N           0.4541  -12.7338  -40.7853 N.am      5 UNK        -0.5000 
     50 C           1.0226  -12.8746  -41.9919 C.2       4 UNK         0.5000 
     51 O           1.2291  -13.9648  -42.5285 O.2       4 UNK        -0.5000 
     52 CA          1.4448  -11.5802  -42.7203 C.3       4 UNK         0.1400 
     53 CB          0.8926  -10.2869  -42.0789 C.3       4 UNK        -0.1800 
     54 N           2.8964  -11.4704  -42.8858 N.am      4 UNK        -0.5000 
     55 C           3.8415  -11.5462  -41.9353 C.2       3 UNK         0.5000 
     56 O           3.6033  -11.7694  -40.7462 O.2       3 UNK        -0.5000 
     57 CA          5.2958  -11.2970  -42.4041 C.3       3 UNK         0.1400 
     58 CB          6.3556  -11.8919  -41.4527 C.3       3 UNK        -0.1800 
     59 N           5.5582  -11.7040  -43.7935 N.am      3 UNK        -0.5000 
     60 C           5.4337  -12.9399  -44.2957 C.2       2 UNK         0.5000 
     61 O           5.0687  -13.9173  -43.6394 O.2       2 UNK        -0.5000 
     62 CA          5.7687  -13.1184  -45.7823 C.3       2 UNK         0.1400 
     63 CB          7.2488  -13.4970  -45.9706 C.3       2 UNK        -0.1800 
     64 N           4.9020  -14.1688  -46.2989 N.am      2 UNK        -0.5000 
     65 C           4.6307  -14.4299  -47.5828 C.2       1 UNK         0.5000 
     66 O           5.1368  -13.8267  -48.5299 O.2       1 UNK        -0.5000 
     67 C          -2.1459  -20.2487  -47.6861 C.2       11 UNK         0.5000 
     68 O          -2.4818  -20.5877  -48.8196 O.2       11 UNK        -0.5000 
     69 N          -2.7210  -20.7222  -46.5703 N.am      12 UNK        -0.5000 
     70 CA         -3.8142  -21.6966  -46.5538 C.3       12 UNK         0.1400 
     71 CB         -4.3096  -21.8920  -45.1135 C.3       12 UNK        -0.1800 
     72 C          -3.4346  -23.0459  -47.1939 C.2       12 UNK         0.5000 
     73 O          -4.2193  -23.5870  -47.9752 O.2       12 UNK        -0.5000 
     74 N          -2.2292  -23.5438  -46.8834 N.am      13 UNK        -0.5000 
     75 CA         -1.6614  -24.7658  -47.4543 C.3       13 UNK         0.1400 
     76 CB         -0.3753  -25.1402  -46.7026 C.3       13 UNK        -0.1800 
     77 C          -1.3964  -24.6542  -48.9666 C.2       13 UNK         0.5000 
     78 O          -1.6953  -25.5969  -49.7002 O.2       13 UNK        -0.5000 
     79 N          -0.8681  -23.5031  -49.4078 N.am      14 UNK        -0.5000 
     80 CA         -0.6486  -23.1782  -50.8178 C.3       14 UNK         0.1400 
     81 CB          0.1909  -21.8946  -50.9314 C.3       14 UNK        -0.1800 
     82 C          -1.9670  -23.0333  -51.5971 C.2       14 UNK         0.5000 
     83 O          -2.0549  -23.4994  -52.7324 O.2       14 UNK        -0.5000 
     84 N          -2.9639  -22.3925  -50.9726 N.am      15 UNK        -0.5000 
     85 CA         -4.2979  -22.1816  -51.5266 C.3       15 UNK         0.1400 
     86 CB         -5.0437  -21.1401  -50.6794 C.3       15 UNK        -0.1800 
     87 C          -5.1209  -23.4684  -51.6563 C.2       15 UNK         0.5000 
     88 O          -5.8716  -23.5981  -52.6240 O.2       15 UNK        -0.5000 
     89 N          -4.9862  -24.3740  -50.6762 N.am      16 UNK        -0.5000 
     90 CA         -5.7070  -25.6449  -50.5511 C.3       16 UNK         0.1400 
     91 CB         -5.2822  -26.6209  -51.6688 C.3       16 UNK        -0.1800 
     92 C          -7.2317  -25.4195  -50.4894 C.2       16 UNK         0.5000 
     93 O          -7.9787  -25.9814  -51.2905 O.2       16 UNK        -0.5000 
     94 N          -7.6512  -24.5273  -49.5780 N.am      17 UNK        -0.5000 
     95 CA         -9.0191  -24.0068  -49.4269 C.3       17 UNK         0.1400 
     96 CB         -9.9911  -25.1176  -48.9762 C.3       17 UNK        -0.1800 
     97 C          -9.5048  -23.2461  -50.6830 C.2       17 UNK         0.5000 
     98 O         -10.6779  -23.3264  -51.0490 O.2       17 UNK        -0.5000 
     99 N          -8.5633  -22.5355  -51.3212 N.am      18 UNK        -0.5000 
    100 CA        -8.6767  -21.7498  -52.5563 C.3       18 UNK         0.1400 
    101 CB        -9.7380  -20.6388  -52.4227 C.3       18 UNK        -0.1800 
    102 C         -8.8601  -22.5838  -53.8417 C.2       18 UNK         0.5000 
    103 O         -9.0258  -21.9959  -54.9115 O.2       18 UNK        -0.5000 
    104 N         -8.7807  -23.9198  -53.7516 N.am      19 UNK        -0.5000 
    105 CA        -8.8935  -24.8340  -54.8911 C.3       19 UNK         0.1400 
    106 CB        -9.0651  -26.2709  -54.3779 C.3       19 UNK        -0.1800 
    107 C         -7.6984  -24.7523  -55.8606 C.2       19 UNK         0.5000 
    108 O         -7.8719  -25.0116  -57.0520 O.2       19 UNK        -0.5000 
    109 N         -6.5198  -24.3841  -55.3420 N.am      20 UNK        -0.5000 
    110 CA        -5.2788  -24.2189  -56.1003 C.3       20 UNK         0.1400 
    111 CB        -4.1576  -24.9703  -55.3622 C.3       20 UNK        -0.1800 
    112 C         -4.9144  -22.7338  -56.3007 C.2       20 UNK         0.5000 
    113 O         -3.7996  -22.4484  -56.7446 O.2       20 UNK        -0.5000 
    114 N         -5.8373  -21.8181  -55.9577 N.am      21 UNK        -0.5000 
    115 CA        -5.6860  -20.3589  -55.8822 C.3       21 UNK         0.1400 
    116 CB        -5.3980  -19.7359  -57.2649 C.3       21 UNK        -0.1800 
    117 C         -4.6511  -19.9765  -54.8084 C.2       21 UNK         0.5000 
    118 O         -5.0389  -19.7055  -53.6731 O.2       21 UNK        -0.5000 
    119 N         -3.3679  -20.0440  -55.1719 N.am      22 UNK        -0.5000 
    120 CA        -2.2108  -20.1521  -54.2743 C.3       22 UNK         0.1400 
    121 C         -0.9673  -20.7686  -54.9785 C.2       22 UNK         0.5000 
    122 N         -1.1374  -21.5573  -56.0354 N.am      22 UNK        -0.7600 
    123 O          0.1671  -20.5502  -54.5643 O.2       22 UNK        -0.5000 
    124 C124       -1.9315  -18.8960  -53.4090 C.3       23 UNK        -0.0398 
    125 S125       -1.5229  -17.3820  -54.3471 S.3       23 UNK        -0.2404 
    126 C126        0.2100  -17.0770  -53.8453 C.3       23 UNK        -0.0205 
    127 H127        0.4100  -13.6549  -45.2004 H         1 UNK         0.0600 
    128 H128        0.8574  -15.3249  -44.8948 H         1 UNK         0.0600 
    129 H129       -0.3964  -14.9515  -46.0797 H         1 UNK         0.0600 
    130 H130        2.4108  -16.3369  -46.2778 H         1 UNK         0.3000 
    131 H131        3.1707  -15.3720  -48.8299 H         1 UNK         0.0600 
    132 H132        5.0631  -16.9230  -48.7206 H         1 UNK         0.0800 
    133 H133        4.9280  -17.0675  -46.9936 H         1 UNK         0.0800 
    134 H134        2.8596  -19.5325  -50.1267 H         1 UNK         0.0800 
    135 H135        3.8938  -18.1534  -50.3980 H         1 UNK         0.0800 
    136 H136        2.2515  -18.1996  -52.4491 H         1 UNK         0.1150 
    137 H137       -1.3379  -15.9229  -51.8783 H         1 UNK         0.1150 
    138 H138        0.9978  -17.0841  -48.5067 H         1 UNK         0.1150 
    139 H139       -0.7594  -15.2522  -48.3629 H         1 UNK         0.0800 
    140 H140       -1.8615  -15.0555  -49.6924 H         1 UNK         0.0800 
    141 H141       -2.0137  -17.8649  -46.2227 H         1 UNK         0.0800 
    142 H142       -0.5543  -17.2275  -46.8996 H         1 UNK         0.0800 
    143 H143       -0.4477  -19.2300  -48.4720 H         1 UNK         0.0600 
    144 H144        0.2025  -19.2601  -45.7217 H         1 UNK         0.3000 
    145 H145        1.6117  -22.5534  -45.5926 H         1 UNK         0.0600 
    146 H146        3.4962  -21.2587  -44.6463 H         1 UNK         0.0600 
    147 H147        3.4368  -21.0819  -46.3930 H         1 UNK         0.0600 
    148 H148        2.8736  -19.7752  -45.3639 H         1 UNK         0.0600 
    149 H149        1.1692  -20.4465  -43.6672 H         1 UNK         0.3000 
    150 H150       -1.9909  -21.6269  -42.5301 H         1 UNK         0.0600 
    151 H151       -0.3609  -23.1327  -41.3824 H         1 UNK         0.0600 
    152 H152       -0.7819  -21.7620  -40.3683 H         1 UNK         0.0600 
    153 H153        0.7707  -21.7970  -41.2047 H         1 UNK         0.0600 
    154 H154       -0.2230  -19.5644  -41.6202 H         1 UNK         0.3000 
    155 H155       -1.2987  -17.0039  -43.8340 H         1 UNK         0.0600 
    156 H156       -1.7818  -17.3147  -40.8266 H         1 UNK         0.0600 
    157 H157       -3.0609  -17.1222  -42.0213 H         1 UNK         0.0600 
    158 H158       -1.8928  -15.8372  -41.7869 H         1 UNK         0.0600 
    159 H159        0.5032  -16.9939  -41.6139 H         1 UNK         0.3000 
    160 H160        3.1086  -18.3704  -42.5509 H         1 UNK         0.0600 
    161 H161        4.7133  -16.7606  -43.5709 H         1 UNK         0.0600 
    162 H162        3.3731  -15.8737  -44.2881 H         1 UNK         0.0600 
    163 H163        3.7264  -17.5250  -44.8038 H         1 UNK         0.0600 
    164 H164        2.3455  -15.5549  -41.8702 H         1 UNK         0.3000 
    165 H165        3.1332  -16.0973  -38.4887 H         1 UNK         0.0600 
    166 H166        4.6180  -14.0907  -38.6293 H         1 UNK         0.0600 
    167 H167        5.4511  -15.5269  -39.2079 H         1 UNK         0.0600 
    168 H168        4.8190  -14.3581  -40.3608 H         1 UNK         0.0600 
    169 H169        2.4767  -13.7028  -39.8861 H         1 UNK         0.3000 
    170 H170       -0.9256  -14.2426  -40.4812 H         1 UNK         0.0600 
    171 H171       -1.0786  -13.9400  -38.0021 H         1 UNK         0.0600 
    172 H172        0.1487  -12.6811  -38.0769 H         1 UNK         0.0600 
    173 H173       -1.4152  -12.4453  -38.8591 H         1 UNK         0.0600 
    174 H174        0.3664  -11.7967  -40.4203 H         1 UNK         0.3000 
    175 H175        1.0245  -11.6522  -43.7243 H         1 UNK         0.0600 
    176 H176        1.3029  -10.1113  -41.0837 H         1 UNK         0.0600 
    177 H177        1.1373   -9.4179  -42.6898 H         1 UNK         0.0600 
    178 H178       -0.1946  -10.3186  -41.9949 H         1 UNK         0.0600 
    179 H179        3.2117  -11.3180  -43.8325 H         1 UNK         0.3000 
    180 H180        5.4198  -10.2135  -42.3807 H         1 UNK         0.0600 
    181 H181        6.3258  -12.9806  -41.4388 H         1 UNK         0.0600 
    182 H182        6.2106  -11.5453  -40.4289 H         1 UNK         0.0600 
    183 H183        7.3598  -11.5935  -41.7530 H         1 UNK         0.0600 
    184 H184        5.8617  -10.9628  -44.4105 H         1 UNK         0.3000 
    185 H185        5.5539  -12.1878  -46.3116 H         1 UNK         0.0600 
    186 H186        7.9038  -12.7310  -45.5541 H         1 UNK         0.0600 
    187 H187        7.4868  -14.4388  -45.4744 H         1 UNK         0.0600 
    188 H188        7.5035  -13.6008  -47.0253 H         1 UNK         0.0600 
    189 H189        4.4304  -14.6924  -45.5722 H         1 UNK         0.3000 
    190 H190       -2.4098  -20.3707  -45.6693 H         1 UNK         0.3000 
    191 H191       -4.6352  -21.2759  -47.1378 H         1 UNK         0.0600 
    192 H192       -3.5289  -22.2956  -44.4690 H         1 UNK         0.0600 
    193 H193       -5.1523  -22.5837  -45.0812 H         1 UNK         0.0600 
    194 H194       -4.6450  -20.9492  -44.6809 H         1 UNK         0.0600 
    195 H195       -1.6666  -23.0658  -46.1856 H         1 UNK         0.3000 
    196 H196       -2.3858  -25.5689  -47.3040 H         1 UNK         0.0600 
    197 H197        0.0542  -26.0616  -47.0977 H         1 UNK         0.0600 
    198 H198       -0.5711  -25.3012  -45.6424 H         1 UNK         0.0600 
    199 H199        0.3821  -24.3610  -46.7887 H         1 UNK         0.0600 
    200 H200       -0.5933  -22.7945  -48.7325 H         1 UNK         0.3000 
    201 H201       -0.0822  -23.9957  -51.2683 H         1 UNK         0.0600 
    202 H202        1.1593  -22.0121  -50.4450 H         1 UNK         0.0600 
    203 H203       -0.3095  -21.0405  -50.4737 H         1 UNK         0.0600 
    204 H204        0.3805  -21.6421  -51.9751 H         1 UNK         0.0600 
    205 H205       -2.7790  -21.9670  -50.0671 H         1 UNK         0.3000 
    206 H206       -4.1874  -21.7921  -52.5344 H         1 UNK         0.0600 
    207 H207       -4.5019  -20.1941  -50.6600 H         1 UNK         0.0600 
    208 H208       -6.0309  -20.9297  -51.0879 H         1 UNK         0.0600 
    209 H209       -5.1734  -21.4733  -49.6495 H         1 UNK         0.0600 
    210 H210       -4.3958  -24.1315  -49.8860 H         1 UNK         0.3000 
    211 H211       -5.4121  -26.0808  -49.5956 H         1 UNK         0.0600 
    212 H212       -5.7353  -27.6017  -51.5216 H         1 UNK         0.0600 
    213 H213       -4.2009  -26.7588  -51.6780 H         1 UNK         0.0600 
    214 H214       -5.5820  -26.2685  -52.6564 H         1 UNK         0.0600 
    215 H215       -6.9551  -24.1169  -48.9697 H         1 UNK         0.3000 
    216 H216       -8.9768  -23.2671  -48.6262 H         1 UNK         0.0600 
    217 H217      -10.9666  -24.7020  -48.7215 H         1 UNK         0.0600 
    218 H218       -9.6180  -25.6326  -48.0910 H         1 UNK         0.0600 
    219 H219      -10.1494  -25.8627  -49.7563 H         1 UNK         0.0600 
    220 H220       -7.6282  -22.5963  -50.9479 H         1 UNK         0.3000 
    221 H221       -7.7127  -21.2552  -52.6791 H         1 UNK         0.0600 
    222 H222      -10.7495  -21.0436  -52.3862 H         1 UNK         0.0600 
    223 H223       -9.5787  -20.0469  -51.5215 H         1 UNK         0.0600 
    224 H224       -9.6948  -19.9535  -53.2699 H         1 UNK         0.0600 
    225 H225       -8.5955  -24.3403  -52.8497 H         1 UNK         0.3000 
    226 H226       -9.7925  -24.5640  -55.4491 H         1 UNK         0.0600 
    227 H227       -9.9023  -26.3479  -53.6838 H         1 UNK         0.0600 
    228 H228       -9.2600  -26.9578  -55.2023 H         1 UNK         0.0600 
    229 H229       -8.1693  -26.6232  -53.8654 H         1 UNK         0.0600 
    230 H230       -6.4600  -24.1759  -54.3470 H         1 UNK         0.3000 
    231 H231       -5.3768  -24.6571  -57.0951 H         1 UNK         0.0600 
    232 H232       -4.4102  -26.0221  -55.2276 H         1 UNK         0.0600 
    233 H233       -3.9699  -24.5441  -54.3767 H         1 UNK         0.0600 
    234 H234       -3.2207  -24.9313  -55.9190 H         1 UNK         0.0600 
    235 H235       -6.7217  -22.1709  -55.6175 H         1 UNK         0.3000 
    236 H236       -6.6479  -19.9695  -55.5444 H         1 UNK         0.0600 
    237 H237       -4.4772  -20.1063  -57.7146 H         1 UNK         0.0600 
    238 H238       -6.2104  -19.9460  -57.9606 H         1 UNK         0.0600 
    239 H239       -5.3101  -18.6515  -57.1890 H         1 UNK         0.0600 
    240 H240       -3.1685  -20.2814  -56.1339 H         1 UNK         0.3000 
    241 H241       -2.4700  -20.9311  -53.5632 H         1 UNK         0.0600 
    242 H242       -2.0607  -21.8625  -56.3332 H         1 UNK         0.3800 
    243 H243       -0.3239  -21.9516  -56.4802 H         1 UNK         0.3800 
    244 H244       -1.1420  -19.1259  -52.6933 H         1 UNK         0.0800 
    245 H245       -2.8017  -18.6709  -52.7923 H         1 UNK         0.0800 
    246 H246        0.8350  -17.8417  -54.3092 H         1 UNK         0.0800 
    247 H247        0.5325  -16.1220  -54.2613 H         1 UNK         0.0800 
@<TRIPOS>BOND
     1    1    2 1    
     2    1  127 1    
     3    1  128 1    
     4    1  129 1    
     5    2    3 2    
     6    2    4 am   BACKBONE|DICT|INTERRES
     7    4    5 1    
     8    4  130 1    
     9    5    6 1    
    10    5   65 1    
    11    5  131 1    
    12    6    7 1    
    13    6  132 1    
    14    6  133 1    
    15    7    8 1    
    16    8    9 1    
    17    8  134 1    
    18    8  135 1    
    19    9   10 ar   
    20    9   14 ar   
    21   10   11 ar   
    22   10  136 1    
    23   11   12 ar   
    24   11  126 1    
    25   12   13 ar   
    26   12  137 1    
    27   13   14 ar   
    28   13   15 1    
    29   14  138 1    
    30   15   16 1    
    31   15  139 1    
    32   15  140 1    
    33   16   17 1    
    34   17   18 1    
    35   17  141 1    
    36   17  142 1    
    37   18   19 1    
    38   18   67 1    
    39   18  143 1    
    40   19   20 am   BACKBONE|DICT|INTERRES
    41   19  144 1    
    42   20   21 2    
    43   20   22 1    
    44   22   23 1    
    45   22   24 1    
    46   22  145 1    
    47   23  146 1    
    48   23  147 1    
    49   23  148 1    
    50   24   25 am   BACKBONE|DICT|INTERRES
    51   24  149 1    
    52   25   26 2    
    53   25   27 1    
    54   27   28 1    
    55   27   29 1    
    56   27  150 1    
    57   28  151 1    
    58   28  152 1    
    59   28  153 1    
    60   29   30 am   BACKBONE|DICT|INTERRES
    61   29  154 1    
    62   30   31 2    
    63   30   32 1    
    64   32   33 1    
    65   32   34 1    
    66   32  155 1    
    67   33  156 1    
    68   33  157 1    
    69   33  158 1    
    70   34   35 am   BACKBONE|DICT|INTERRES
    71   34  159 1    
    72   35   36 2    
    73   35   37 1    
    74   37   38 1    
    75   37   39 1    
    76   37  160 1    
    77   38  161 1    
    78   38  162 1    
    79   38  163 1    
    80   39   40 am   BACKBONE|DICT|INTERRES
    81   39  164 1    
    82   40   41 2    
    83   40   42 1    
    84   42   43 1    
    85   42   44 1    
    86   42  165 1    
    87   43  166 1    
    88   43  167 1    
    89   43  168 1    
    90   44   45 am   BACKBONE|DICT|INTERRES
    91   44  169 1    
    92   45   46 2    
    93   45   47 1    
    94   47   48 1    
    95   47   49 1    
    96   47  170 1    
    97   48  171 1    
    98   48  172 1    
    99   48  173 1    
   100   49   50 am   BACKBONE|DICT|INTERRES
   101   49  174 1    
   102   50   51 2    
   103   50   52 1    
   104   52   53 1    
   105   52   54 1    
   106   52  175 1    
   107   53  176 1    
   108   53  177 1    
   109   53  178 1    
   110   54   55 am   BACKBONE|DICT|INTERRES
   111   54  179 1    
   112   55   56 2    
   113   55   57 1    
   114   57   58 1    
   115   57   59 1    
   116   57  180 1    
   117   58  181 1    
   118   58  182 1    
   119   58  183 1    
   120   59   60 am   BACKBONE|DICT|INTERRES
   121   59  184 1    
   122   60   61 2    
   123   60   62 1    
   124   62   63 1    
   125   62   64 1    
   126   62  185 1    
   127   63  186 1    
   128   63  187 1    
   129   63  188 1    
   130   64   65 am   BACKBONE|DICT|INTERRES
   131   64  189 1    
   132   65   66 2    
   133   67   68 2    
   134   67   69 am   BACKBONE|DICT|INTERRES
   135   69   70 1    
   136   69  190 1    
   137   70   71 1    
   138   70   72 1    
   139   70  191 1    
   140   71  192 1    
   141   71  193 1    
   142   71  194 1    
   143   72   73 2    
   144   72   74 am   BACKBONE|DICT|INTERRES
   145   74   75 1    
   146   74  195 1    
   147   75   76 1    
   148   75   77 1    
   149   75  196 1    
   150   76  197 1    
   151   76  198 1    
   152   76  199 1    
   153   77   78 2    
   154   77   79 am   BACKBONE|DICT|INTERRES
   155   79   80 1    
   156   79  200 1    
   157   80   81 1    
   158   80   82 1    
   159   80  201 1    
   160   81  202 1    
   161   81  203 1    
   162   81  204 1    
   163   82   83 2    
   164   82   84 am   BACKBONE|DICT|INTERRES
   165   84   85 1    
   166   84  205 1    
   167   85   86 1    
   168   85   87 1    
   169   85  206 1    
   170   86  207 1    
   171   86  208 1    
   172   86  209 1    
   173   87   88 2    
   174   87   89 am   BACKBONE|DICT|INTERRES
   175   89   90 1    
   176   89  210 1    
   177   90   91 1    
   178   90   92 1    
   179   90  211 1    
   180   91  212 1    
   181   91  213 1    
   182   91  214 1    
   183   92   93 2    
   184   92   94 am   BACKBONE|DICT|INTERRES
   185   94   95 1    
   186   94  215 1    
   187   95   96 1    
   188   95   97 1    
   189   95  216 1    
   190   96  217 1    
   191   96  218 1    
   192   96  219 1    
   193   97   98 2    
   194   97   99 am   BACKBONE|DICT|INTERRES
   195   99  100 1    
   196   99  220 1    
   197  100  101 1    
   198  100  102 1    
   199  100  221 1    
   200  101  222 1    
   201  101  223 1    
   202  101  224 1    
   203  102  103 2    
   204  102  104 am   BACKBONE|DICT|INTERRES
   205  104  105 1    
   206  104  225 1    
   207  105  106 1    
   208  105  107 1    
   209  105  226 1    
   210  106  227 1    
   211  106  228 1    
   212  106  229 1    
   213  107  108 2    
   214  107  109 am   BACKBONE|DICT|INTERRES
   215  109  110 1    
   216  109  230 1    
   217  110  111 1    
   218  110  112 1    
   219  110  231 1    
   220  111  232 1    
   221  111  233 1    
   222  111  234 1    
   223  112  113 2    
   224  112  114 am   BACKBONE|DICT|INTERRES
   225  114  115 1    
   226  114  235 1    
   227  115  116 1    
   228  115  117 1    
   229  115  236 1    
   230  116  237 1    
   231  116  238 1    
   232  116  239 1    
   233  117  118 2    
   234  117  119 am   BACKBONE|DICT|INTERRES
   235  119  120 1    
   236  119  240 1    
   237  120  121 1    
   238  120  124 1    
   239  120  241 1    
   240  121  122 am   BACKBONE|DICT|INTERRES
   241  121  123 2    
   242  122  242 1    
   243  122  243 1    
   244  124  125 1    
   245  124  244 1    
   246  124  245 1    
   247  125  126 1    
   248  126  246 1    
   249  126  247 1    
@<TRIPOS>SUBSTRUCTURE
     1 UNK         1 GROUP             0       ****    0 ROOT    
