@<TRIPOS>MOLECULE
3R540
247   249    1
SMALL
USER_CHARGES


@<TRIPOS>ATOM
      1 CA         -0.7749  -11.0662  -52.5358 C.3       0 UNK        -0.1800 
      2 C           0.5903  -11.4002  -51.9506 C.2       0 UNK         0.5000 
      3 O           1.5061  -10.5803  -52.0258 O.2       0 UNK        -0.5000 
      4 N           0.7299  -12.6040  -51.3836 N.am      1 UNK        -0.5000 
      5 CA          1.9422  -13.1129  -50.7365 C.3       1 UNK         0.1400 
      6 C6          1.7609  -14.6013  -50.3728 C.3       23 UNK        -0.0398 
      7 S7          3.3267  -15.4846  -50.0654 S.3       23 UNK        -0.2404 
      8 C8          2.8414  -16.5758  -48.6929 C.3       23 UNK        -0.0205 
      9 C9          2.0139  -17.7708  -49.1470 C.ar      23 UNK        -0.0193 
     10 C10         0.6552  -17.6203  -49.4353 C.ar      23 UNK        -0.1150 
     11 C11        -0.1349  -18.7237  -49.7568 C.ar      23 UNK        -0.0193 
     12 C12         0.4417  -19.9957  -49.7835 C.ar      23 UNK        -0.1150 
     13 C13         1.8021  -20.1638  -49.5079 C.ar      23 UNK        -0.0193 
     14 C14         2.5868  -19.0443  -49.2086 C.ar      23 UNK        -0.1150 
     15 C15         2.4039  -21.5634  -49.4836 C.3       23 UNK        -0.0205 
     16 S16         3.1952  -21.9795  -47.8894 S.3       23 UNK        -0.2404 
     17 C17         1.9150  -21.5285  -46.6644 C.3       23 UNK        -0.0398 
     18 CA          1.1032  -22.7242  -46.1206 C.3       11 UNK         0.1400 
     19 N           0.3417  -22.3369  -44.9339 N.am      11 UNK        -0.5000 
     20 C          -0.3420  -23.1722  -44.1421 C.2       10 UNK         0.5000 
     21 O          -0.3777  -24.3932  -44.2982 O.2       10 UNK        -0.5000 
     22 CA         -1.1582  -22.5197  -43.0121 C.3       10 UNK         0.1400 
     23 CB         -0.2552  -22.1384  -41.8293 C.3       10 UNK        -0.1800 
     24 N          -1.8892  -21.3363  -43.4684 N.am      10 UNK        -0.5000 
     25 C          -2.8990  -21.3665  -44.3498 C.2       9 UNK         0.5000 
     26 O          -3.3346  -22.3997  -44.8567 O.2       9 UNK        -0.5000 
     27 CA         -3.4978  -20.0114  -44.7652 C.3       9 UNK         0.1400 
     28 CB         -4.4821  -19.5028  -43.7020 C.3       9 UNK        -0.1800 
     29 N          -2.4787  -18.9927  -45.0189 N.am      9 UNK        -0.5000 
     30 C          -1.5577  -19.0770  -45.9891 C.2       8 UNK         0.5000 
     31 O          -1.4730  -20.0216  -46.7711 O.2       8 UNK        -0.5000 
     32 CA         -0.5288  -17.9399  -46.0758 C.3       8 UNK         0.1400 
     33 CB         -1.1521  -16.6923  -46.7168 C.3       8 UNK        -0.1800 
     34 N           0.0490  -17.5806  -44.7837 N.am      8 UNK        -0.5000 
     35 C           0.7128  -18.4147  -43.9711 C.2       7 UNK         0.5000 
     36 O           0.8956  -19.6087  -44.2065 O.2       7 UNK        -0.5000 
     37 CA          1.2374  -17.8138  -42.6595 C.3       7 UNK         0.1400 
     38 CB          2.5348  -17.0331  -42.9044 C.3       7 UNK        -0.1800 
     39 N           0.2462  -16.9324  -42.0478 N.am      7 UNK        -0.5000 
     40 C          -0.8279  -17.3687  -41.3776 C.2       6 UNK         0.5000 
     41 O          -1.0660  -18.5575  -41.1595 O.2       6 UNK        -0.5000 
     42 CA         -1.8170  -16.2916  -40.8970 C.3       6 UNK         0.1400 
     43 CB         -1.3229  -15.6393  -39.5968 C.3       6 UNK        -0.1800 
     44 N          -2.0653  -15.2515  -41.8980 N.am      6 UNK        -0.5000 
     45 C          -2.6511  -15.4690  -43.0831 C.2       5 UNK         0.5000 
     46 O          -3.0100  -16.5779  -43.4790 O.2       5 UNK        -0.5000 
     47 CA         -2.8623  -14.2434  -43.9893 C.3       5 UNK         0.1400 
     48 CB         -4.1371  -13.4917  -43.5766 C.3       5 UNK        -0.1800 
     49 N          -1.7442  -13.2960  -44.0457 N.am      5 UNK        -0.5000 
     50 C          -0.4627  -13.5783  -44.3222 C.2       4 UNK         0.5000 
     51 O          -0.0104  -14.7230  -44.4039 O.2       4 UNK        -0.5000 
     52 CA          0.4322  -12.3514  -44.5900 C.3       4 UNK         0.1400 
     53 CB          0.5710  -11.4510  -43.3437 C.3       4 UNK        -0.1800 
     54 N           1.7381  -12.6969  -45.1639 N.am      4 UNK        -0.5000 
     55 C           2.7966  -13.2547  -44.5560 C.2       3 UNK         0.5000 
     56 O           2.8417  -13.5308  -43.3568 O.2       3 UNK        -0.5000 
     57 CA          4.0328  -13.5534  -45.4333 C.3       3 UNK         0.1400 
     58 CB          4.2015  -15.0679  -45.6299 C.3       3 UNK        -0.1800 
     59 N           4.0148  -12.8951  -46.7460 N.am      3 UNK        -0.5000 
     60 C           4.2044  -11.5810  -46.9353 C.2       2 UNK         0.5000 
     61 O           4.3888  -10.7855  -46.0132 O.2       2 UNK        -0.5000 
     62 CA          4.2032  -11.0530  -48.3844 C.3       2 UNK         0.1400 
     63 CB          5.6313  -10.6871  -48.8194 C.3       2 UNK        -0.1800 
     64 N           3.6339  -11.9645  -49.3811 N.am      2 UNK        -0.5000 
     65 C           2.3348  -12.2665  -49.5020 C.2       1 UNK         0.5000 
     66 O           1.4732  -11.9187  -48.6901 O.2       1 UNK        -0.5000 
     67 C           0.1923  -23.3503  -47.1956 C.2       11 UNK         0.5000 
     68 O           0.5071  -24.4273  -47.7006 O.2       11 UNK        -0.5000 
     69 N          -0.9420  -22.7005  -47.4924 N.am      12 UNK        -0.5000 
     70 CA         -1.9447  -23.1909  -48.4357 C.3       12 UNK         0.1400 
     71 CB         -3.0046  -22.1153  -48.6862 C.3       12 UNK        -0.1800 
     72 C          -2.6037  -24.5058  -47.9961 C.2       12 UNK         0.5000 
     73 O          -2.8155  -25.3717  -48.8423 O.2       12 UNK        -0.5000 
     74 N          -2.8779  -24.6577  -46.6929 N.am      13 UNK        -0.5000 
     75 CA         -3.3978  -25.8937  -46.1055 C.3       13 UNK         0.1400 
     76 CB         -3.7836  -25.6540  -44.6382 C.3       13 UNK        -0.1800 
     77 C          -2.4114  -27.0700  -46.2289 C.2       13 UNK         0.5000 
     78 O          -2.8359  -28.1834  -46.5389 O.2       13 UNK        -0.5000 
     79 N          -1.1154  -26.7975  -46.0203 N.am      14 UNK        -0.5000 
     80 CA         -0.0303  -27.7642  -46.1916 C.3       14 UNK         0.1400 
     81 CB          1.2538  -27.2099  -45.5553 C.3       14 UNK        -0.1800 
     82 C           0.2034  -28.1384  -47.6683 C.2       14 UNK         0.5000 
     83 O           0.3995  -29.3153  -47.9737 O.2       14 UNK        -0.5000 
     84 N           0.1676  -27.1356  -48.5560 N.am      15 UNK        -0.5000 
     85 CA          0.3545  -27.2869  -50.0011 C.3       15 UNK         0.1400 
     86 CB          0.6834  -25.9101  -50.6014 C.3       15 UNK        -0.1800 
     87 C          -0.8583  -27.9002  -50.7293 C.2       15 UNK         0.5000 
     88 O          -0.6969  -28.3872  -51.8490 O.2       15 UNK        -0.5000 
     89 N          -2.0415  -27.8339  -50.1013 N.am      16 UNK        -0.5000 
     90 CA         -3.3679  -28.1329  -50.6528 C.3       16 UNK         0.1400 
     91 CB         -3.5013  -29.6229  -51.0312 C.3       16 UNK        -0.1800 
     92 C          -3.7366  -27.1650  -51.7991 C.2       16 UNK         0.5000 
     93 O          -4.2361  -27.5888  -52.8435 O.2       16 UNK        -0.5000 
     94 N          -3.4559  -25.8761  -51.5765 N.am      17 UNK        -0.5000 
     95 CA         -3.6932  -24.7726  -52.5027 C.3       17 UNK         0.1400 
     96 CB         -2.4357  -23.8874  -52.5301 C.3       17 UNK        -0.1800 
     97 C          -4.9133  -23.9469  -52.0614 C.2       17 UNK         0.5000 
     98 O          -5.3433  -24.0330  -50.9084 O.2       17 UNK        -0.5000 
     99 N          -5.4350  -23.1334  -52.9867 N.am      18 UNK        -0.5000 
    100 CA        -6.4995  -22.1662  -52.7335 C.3       18 UNK         0.1400 
    101 CB        -7.2017  -21.8295  -54.0604 C.3       18 UNK        -0.1800 
    102 C         -5.9099  -20.9073  -52.0755 C.2       18 UNK         0.5000 
    103 O         -5.3284  -20.0742  -52.7730 O.2       18 UNK        -0.5000 
    104 N         -6.0664  -20.7907  -50.7494 N.am      19 UNK        -0.5000 
    105 CA        -5.5263  -19.7020  -49.9247 C.3       19 UNK         0.1400 
    106 CB        -5.9185  -19.9342  -48.4570 C.3       19 UNK        -0.1800 
    107 C         -5.9647  -18.2939  -50.3714 C.2       19 UNK         0.5000 
    108 O         -5.1857  -17.3474  -50.2647 O.2       19 UNK        -0.5000 
    109 N         -7.1932  -18.1911  -50.8951 N.am      20 UNK        -0.5000 
    110 CA        -7.7823  -16.9592  -51.4183 C.3       20 UNK         0.1400 
    111 CB        -9.2811  -17.1944  -51.6622 C.3       20 UNK        -0.1800 
    112 C         -7.1057  -16.4327  -52.7003 C.2       20 UNK         0.5000 
    113 O         -7.2188  -15.2391  -52.9824 O.2       20 UNK        -0.5000 
    114 N         -6.4312  -17.3109  -53.4577 N.am      21 UNK        -0.5000 
    115 CA        -5.7183  -16.9445  -54.6810 C.3       21 UNK         0.1400 
    116 CB        -5.5671  -18.1793  -55.5841 C.3       21 UNK        -0.1800 
    117 C         -4.3490  -16.3165  -54.3719 C.2       21 UNK         0.5000 
    118 O         -4.0012  -15.2953  -54.9664 O.2       21 UNK        -0.5000 
    119 N         -3.6013  -16.9398  -53.4538 N.am      22 UNK        -0.5000 
    120 CA        -2.2667  -16.4983  -53.0188 C.3       22 UNK         0.1400 
    121 C         -2.2746  -15.4371  -51.8814 C.2       22 UNK         0.5000 
    122 N         -3.3151  -15.3356  -51.0654 N.am      22 UNK        -0.7600 
    123 O         -1.3210  -14.6751  -51.7454 O.2       22 UNK        -0.5000 
    124 C124       -1.3310  -17.6961  -52.7011 C.3       23 UNK        -0.0398 
    125 S125       -2.0949  -19.0267  -51.7048 S.3       23 UNK        -0.2404 
    126 C126       -1.6206  -18.5377  -50.0214 C.3       23 UNK        -0.0205 
    127 H127       -1.1850  -10.1807  -52.0503 H         1 UNK         0.0600 
    128 H128       -1.4832  -11.8849  -52.4038 H         1 UNK         0.0600 
    129 H129       -0.6867  -10.8624  -53.6029 H         1 UNK         0.0600 
    130 H130       -0.0626  -13.2418  -51.3862 H         1 UNK         0.3000 
    131 H131        2.7406  -13.0366  -51.4778 H         1 UNK         0.0600 
    132 H132        1.0964  -14.6829  -49.5122 H         1 UNK         0.0800 
    133 H133        1.2679  -15.1300  -51.1900 H         1 UNK         0.0800 
    134 H134        3.7452  -16.9177  -48.1865 H         1 UNK         0.0800 
    135 H135        2.2760  -16.0077  -47.9540 H         1 UNK         0.0800 
    136 H136        0.1922  -16.6484  -49.3771 H         1 UNK         0.1150 
    137 H137       -0.1770  -20.8540  -50.0045 H         1 UNK         0.1150 
    138 H138        3.6344  -19.1748  -48.9766 H         1 UNK         0.1150 
    139 H139        1.6433  -22.3152  -49.7009 H         1 UNK         0.0800 
    140 H140        3.1471  -21.6424  -50.2778 H         1 UNK         0.0800 
    141 H141        2.4512  -21.0592  -45.8387 H         1 UNK         0.0800 
    142 H142        1.2493  -20.7539  -47.0441 H         1 UNK         0.0800 
    143 H143        1.8096  -23.4945  -45.8037 H         1 UNK         0.0600 
    144 H144        0.3411  -21.3451  -44.7081 H         1 UNK         0.3000 
    145 H145       -1.8872  -23.2533  -42.6614 H         1 UNK         0.0600 
    146 H146        0.2880  -23.0079  -41.4569 H         1 UNK         0.0600 
    147 H147        0.4818  -21.3847  -42.1086 H         1 UNK         0.0600 
    148 H148       -0.8401  -21.7398  -41.0002 H         1 UNK         0.0600 
    149 H149       -1.5749  -20.4417  -43.1189 H         1 UNK         0.3000 
    150 H150       -4.0513  -20.1663  -45.6937 H         1 UNK         0.0600 
    151 H151       -5.2533  -20.2457  -43.4942 H         1 UNK         0.0600 
    152 H152       -4.9859  -18.5955  -44.0356 H         1 UNK         0.0600 
    153 H153       -3.9772  -19.2773  -42.7616 H         1 UNK         0.0600 
    154 H154       -2.5014  -18.1669  -44.4257 H         1 UNK         0.3000 
    155 H155        0.2880  -18.2864  -46.7108 H         1 UNK         0.0600 
    156 H156       -0.3976  -15.9322  -46.9203 H         1 UNK         0.0600 
    157 H157       -1.6420  -16.9311  -47.6585 H         1 UNK         0.0600 
    158 H158       -1.9080  -16.2522  -46.0708 H         1 UNK         0.0600 
    159 H159       -0.0307  -16.6024  -44.5165 H         1 UNK         0.3000 
    160 H160        1.4576  -18.6344  -41.9732 H         1 UNK         0.0600 
    161 H161        2.3682  -16.1946  -43.5799 H         1 UNK         0.0600 
    162 H162        3.2982  -17.6709  -43.3516 H         1 UNK         0.0600 
    163 H163        2.9417  -16.6374  -41.9738 H         1 UNK         0.0600 
    164 H164        0.3352  -15.9438  -42.2380 H         1 UNK         0.3000 
    165 H165       -2.7675  -16.7874  -40.6884 H         1 UNK         0.0600 
    166 H166       -2.0606  -14.9412  -39.2008 H         1 UNK         0.0600 
    167 H167       -1.1427  -16.3911  -38.8272 H         1 UNK         0.0600 
    168 H168       -0.3906  -15.0935  -39.7475 H         1 UNK         0.0600 
    169 H169       -1.7878  -14.3100  -41.6628 H         1 UNK         0.3000 
    170 H170       -3.0173  -14.6114  -45.0039 H         1 UNK         0.0600 
    171 H171       -4.9949  -14.1649  -43.5420 H         1 UNK         0.0600 
    172 H172       -4.0359  -13.0380  -42.5899 H         1 UNK         0.0600 
    173 H173       -4.3775  -12.7006  -44.2871 H         1 UNK         0.0600 
    174 H174       -2.0058  -12.3229  -43.9828 H         1 UNK         0.3000 
    175 H175       -0.0686  -11.7669  -45.3634 H         1 UNK         0.0600 
    176 H176        0.9317  -12.0045  -42.4764 H         1 UNK         0.0600 
    177 H177        1.2609  -10.6271  -43.5270 H         1 UNK         0.0600 
    178 H178       -0.3872  -11.0107  -43.0669 H         1 UNK         0.0600 
    179 H179        1.8181  -12.5392  -46.1592 H         1 UNK         0.3000 
    180 H180        4.9091  -13.1890  -44.8929 H         1 UNK         0.0600 
    181 H181        3.2780  -15.5335  -45.9713 H         1 UNK         0.0600 
    182 H182        4.4748  -15.5471  -44.6895 H         1 UNK         0.0600 
    183 H183        4.9891  -15.2976  -46.3478 H         1 UNK         0.0600 
    184 H184        3.8775  -13.4823  -47.5553 H         1 UNK         0.3000 
    185 H185        3.6046  -10.1396  -48.3888 H         1 UNK         0.0600 
    186 H186        6.0833   -9.9757  -48.1268 H         1 UNK         0.0600 
    187 H187        6.2775  -11.5651  -48.8556 H         1 UNK         0.0600 
    188 H188        5.6375  -10.2232  -49.8060 H         1 UNK         0.0600 
    189 H189        4.2788  -12.3167  -50.0743 H         1 UNK         0.3000 
    190 H190       -1.1293  -21.7953  -47.0647 H         1 UNK         0.3000 
    191 H191       -1.4335  -23.3852  -49.3795 H         1 UNK         0.0600 
    192 H192       -2.5723  -21.2715  -49.2166 H         1 UNK         0.0600 
    193 H193       -3.4322  -21.7515  -47.7520 H         1 UNK         0.0600 
    194 H194       -3.8205  -22.4947  -49.3015 H         1 UNK         0.0600 
    195 H195       -2.7339  -23.8762  -46.0608 H         1 UNK         0.3000 
    196 H196       -4.3037  -26.1647  -46.6517 H         1 UNK         0.0600 
    197 H197       -4.1771  -26.5639  -44.1836 H         1 UNK         0.0600 
    198 H198       -4.5560  -24.8894  -44.5547 H         1 UNK         0.0600 
    199 H199       -2.9289  -25.3321  -44.0431 H         1 UNK         0.0600 
    200 H200       -0.8530  -25.8617  -45.7292 H         1 UNK         0.3000 
    201 H201       -0.3031  -28.6766  -45.6570 H         1 UNK         0.0600 
    202 H202        1.1113  -27.0092  -44.4933 H         1 UNK         0.0600 
    203 H203        1.5726  -26.2812  -46.0292 H         1 UNK         0.0600 
    204 H204        2.0738  -27.9234  -45.6455 H         1 UNK         0.0600 
    205 H205        0.0742  -26.1831  -48.2104 H         1 UNK         0.3000 
    206 H206        1.2084  -27.9460  -50.1707 H         1 UNK         0.0600 
    207 H207        1.5756  -25.4818  -50.1440 H         1 UNK         0.0600 
    208 H208        0.8705  -25.9826  -51.6734 H         1 UNK         0.0600 
    209 H209       -0.1368  -25.2058  -50.4586 H         1 UNK         0.0600 
    210 H210       -2.0559  -27.3436  -49.2152 H         1 UNK         0.3000 
    211 H211       -4.0786  -27.9354  -49.8489 H         1 UNK         0.0600 
    212 H212       -2.8716  -29.8882  -51.8806 H         1 UNK         0.0600 
    213 H213       -4.5298  -29.8631  -51.3025 H         1 UNK         0.0600 
    214 H214       -3.2272  -30.2667  -50.1955 H         1 UNK         0.0600 
    215 H215       -3.1487  -25.6161  -50.6416 H         1 UNK         0.3000 
    216 H216       -3.8756  -25.1551  -53.5090 H         1 UNK         0.0600 
    217 H217       -1.5508  -24.4665  -52.7953 H         1 UNK         0.0600 
    218 H218       -2.2519  -23.4186  -51.5638 H         1 UNK         0.0600 
    219 H219       -2.5322  -23.0878  -53.2654 H         1 UNK         0.0600 
    220 H220       -5.0039  -23.0879  -53.8987 H         1 UNK         0.3000 
    221 H221       -7.2419  -22.6059  -52.0638 H         1 UNK         0.0600 
    222 H222       -6.5086  -21.4195  -54.7963 H         1 UNK         0.0600 
    223 H223       -7.6647  -22.7153  -54.4956 H         1 UNK         0.0600 
    224 H224       -7.9907  -21.0921  -53.9077 H         1 UNK         0.0600 
    225 H225       -6.5293  -21.5395  -50.2539 H         1 UNK         0.3000 
    226 H226       -4.4401  -19.7485  -50.0007 H         1 UNK         0.0600 
    227 H227       -5.6153  -20.9215  -48.1110 H         1 UNK         0.0600 
    228 H228       -5.4402  -19.2006  -47.8064 H         1 UNK         0.0600 
    229 H229       -6.9961  -19.8502  -48.3111 H         1 UNK         0.0600 
    230 H230       -7.7597  -19.0244  -50.9503 H         1 UNK         0.3000 
    231 H231       -7.6774  -16.1861  -50.6542 H         1 UNK         0.0600 
    232 H232       -9.7659  -16.2866  -52.0241 H         1 UNK         0.0600 
    233 H233       -9.7898  -17.4878  -50.7437 H         1 UNK         0.0600 
    234 H234       -9.4498  -17.9749  -52.4052 H         1 UNK         0.0600 
    235 H235       -6.3310  -18.2691  -53.1430 H         1 UNK         0.3000 
    236 H236       -6.3113  -16.2079  -55.2277 H         1 UNK         0.0600 
    237 H237       -6.5358  -18.6265  -55.8076 H         1 UNK         0.0600 
    238 H238       -5.1059  -17.9091  -56.5348 H         1 UNK         0.0600 
    239 H239       -4.9420  -18.9461  -55.1264 H         1 UNK         0.0600 
    240 H240       -3.9577  -17.7740  -53.0068 H         1 UNK         0.3000 
    241 H241       -1.8033  -15.9845  -53.8636 H         1 UNK         0.0600 
    242 H242       -4.0629  -16.0227  -51.0704 H         1 UNK         0.3800 
    243 H243       -3.3048  -14.6288  -50.3494 H         1 UNK         0.3800 
    244 H244       -1.0269  -18.1554  -53.6423 H         1 UNK         0.0800 
    245 H245       -0.4010  -17.3630  -52.2372 H         1 UNK         0.0800 
    246 H246       -1.9212  -17.5026  -49.8651 H         1 UNK         0.0800 
    247 H247       -2.1860  -19.1165  -49.2940 H         1 UNK         0.0800 
@<TRIPOS>BOND
     1    1    2 1    
     2    1  127 1    
     3    1  128 1    
     4    1  129 1    
     5    2    3 2    
     6    2    4 am   BACKBONE|DICT|INTERRES
     7    4    5 1    
     8    4  130 1    
     9    5    6 1    
    10    5   65 1    
    11    5  131 1    
    12    6    7 1    
    13    6  132 1    
    14    6  133 1    
    15    7    8 1    
    16    8    9 1    
    17    8  134 1    
    18    8  135 1    
    19    9   10 ar   
    20    9   14 ar   
    21   10   11 ar   
    22   10  136 1    
    23   11   12 ar   
    24   11  126 1    
    25   12   13 ar   
    26   12  137 1    
    27   13   14 ar   
    28   13   15 1    
    29   14  138 1    
    30   15   16 1    
    31   15  139 1    
    32   15  140 1    
    33   16   17 1    
    34   17   18 1    
    35   17  141 1    
    36   17  142 1    
    37   18   19 1    
    38   18   67 1    
    39   18  143 1    
    40   19   20 am   BACKBONE|DICT|INTERRES
    41   19  144 1    
    42   20   21 2    
    43   20   22 1    
    44   22   23 1    
    45   22   24 1    
    46   22  145 1    
    47   23  146 1    
    48   23  147 1    
    49   23  148 1    
    50   24   25 am   BACKBONE|DICT|INTERRES
    51   24  149 1    
    52   25   26 2    
    53   25   27 1    
    54   27   28 1    
    55   27   29 1    
    56   27  150 1    
    57   28  151 1    
    58   28  152 1    
    59   28  153 1    
    60   29   30 am   BACKBONE|DICT|INTERRES
    61   29  154 1    
    62   30   31 2    
    63   30   32 1    
    64   32   33 1    
    65   32   34 1    
    66   32  155 1    
    67   33  156 1    
    68   33  157 1    
    69   33  158 1    
    70   34   35 am   BACKBONE|DICT|INTERRES
    71   34  159 1    
    72   35   36 2    
    73   35   37 1    
    74   37   38 1    
    75   37   39 1    
    76   37  160 1    
    77   38  161 1    
    78   38  162 1    
    79   38  163 1    
    80   39   40 am   BACKBONE|DICT|INTERRES
    81   39  164 1    
    82   40   41 2    
    83   40   42 1    
    84   42   43 1    
    85   42   44 1    
    86   42  165 1    
    87   43  166 1    
    88   43  167 1    
    89   43  168 1    
    90   44   45 am   BACKBONE|DICT|INTERRES
    91   44  169 1    
    92   45   46 2    
    93   45   47 1    
    94   47   48 1    
    95   47   49 1    
    96   47  170 1    
    97   48  171 1    
    98   48  172 1    
    99   48  173 1    
   100   49   50 am   BACKBONE|DICT|INTERRES
   101   49  174 1    
   102   50   51 2    
   103   50   52 1    
   104   52   53 1    
   105   52   54 1    
   106   52  175 1    
   107   53  176 1    
   108   53  177 1    
   109   53  178 1    
   110   54   55 am   BACKBONE|DICT|INTERRES
   111   54  179 1    
   112   55   56 2    
   113   55   57 1    
   114   57   58 1    
   115   57   59 1    
   116   57  180 1    
   117   58  181 1    
   118   58  182 1    
   119   58  183 1    
   120   59   60 am   BACKBONE|DICT|INTERRES
   121   59  184 1    
   122   60   61 2    
   123   60   62 1    
   124   62   63 1    
   125   62   64 1    
   126   62  185 1    
   127   63  186 1    
   128   63  187 1    
   129   63  188 1    
   130   64   65 am   BACKBONE|DICT|INTERRES
   131   64  189 1    
   132   65   66 2    
   133   67   68 2    
   134   67   69 am   BACKBONE|DICT|INTERRES
   135   69   70 1    
   136   69  190 1    
   137   70   71 1    
   138   70   72 1    
   139   70  191 1    
   140   71  192 1    
   141   71  193 1    
   142   71  194 1    
   143   72   73 2    
   144   72   74 am   BACKBONE|DICT|INTERRES
   145   74   75 1    
   146   74  195 1    
   147   75   76 1    
   148   75   77 1    
   149   75  196 1    
   150   76  197 1    
   151   76  198 1    
   152   76  199 1    
   153   77   78 2    
   154   77   79 am   BACKBONE|DICT|INTERRES
   155   79   80 1    
   156   79  200 1    
   157   80   81 1    
   158   80   82 1    
   159   80  201 1    
   160   81  202 1    
   161   81  203 1    
   162   81  204 1    
   163   82   83 2    
   164   82   84 am   BACKBONE|DICT|INTERRES
   165   84   85 1    
   166   84  205 1    
   167   85   86 1    
   168   85   87 1    
   169   85  206 1    
   170   86  207 1    
   171   86  208 1    
   172   86  209 1    
   173   87   88 2    
   174   87   89 am   BACKBONE|DICT|INTERRES
   175   89   90 1    
   176   89  210 1    
   177   90   91 1    
   178   90   92 1    
   179   90  211 1    
   180   91  212 1    
   181   91  213 1    
   182   91  214 1    
   183   92   93 2    
   184   92   94 am   BACKBONE|DICT|INTERRES
   185   94   95 1    
   186   94  215 1    
   187   95   96 1    
   188   95   97 1    
   189   95  216 1    
   190   96  217 1    
   191   96  218 1    
   192   96  219 1    
   193   97   98 2    
   194   97   99 am   BACKBONE|DICT|INTERRES
   195   99  100 1    
   196   99  220 1    
   197  100  101 1    
   198  100  102 1    
   199  100  221 1    
   200  101  222 1    
   201  101  223 1    
   202  101  224 1    
   203  102  103 2    
   204  102  104 am   BACKBONE|DICT|INTERRES
   205  104  105 1    
   206  104  225 1    
   207  105  106 1    
   208  105  107 1    
   209  105  226 1    
   210  106  227 1    
   211  106  228 1    
   212  106  229 1    
   213  107  108 2    
   214  107  109 am   BACKBONE|DICT|INTERRES
   215  109  110 1    
   216  109  230 1    
   217  110  111 1    
   218  110  112 1    
   219  110  231 1    
   220  111  232 1    
   221  111  233 1    
   222  111  234 1    
   223  112  113 2    
   224  112  114 am   BACKBONE|DICT|INTERRES
   225  114  115 1    
   226  114  235 1    
   227  115  116 1    
   228  115  117 1    
   229  115  236 1    
   230  116  237 1    
   231  116  238 1    
   232  116  239 1    
   233  117  118 2    
   234  117  119 am   BACKBONE|DICT|INTERRES
   235  119  120 1    
   236  119  240 1    
   237  120  121 1    
   238  120  124 1    
   239  120  241 1    
   240  121  122 am   BACKBONE|DICT|INTERRES
   241  121  123 2    
   242  122  242 1    
   243  122  243 1    
   244  124  125 1    
   245  124  244 1    
   246  124  245 1    
   247  125  126 1    
   248  126  246 1    
   249  126  247 1    
@<TRIPOS>SUBSTRUCTURE
     1 UNK         1 GROUP             0       ****    0 ROOT    
