@<TRIPOS>MOLECULE
3R540
247   249    1
SMALL
USER_CHARGES


@<TRIPOS>ATOM
      1 CA          1.8579  -10.9277  -50.4536 C.3       0 UNK        -0.1800 
      2 C           3.2316  -10.2598  -50.5169 C.2       0 UNK         0.5000 
      3 O           3.2950   -9.0326  -50.5511 O.2       0 UNK        -0.5000 
      4 N           4.3544  -10.9941  -50.5502 N.am      1 UNK        -0.5000 
      5 CA          4.5138  -12.4504  -50.4484 C.3       1 UNK         0.1400 
      6 C6          3.8140  -13.2282  -51.6005 C.3       23 UNK        -0.0398 
      7 S7          4.7387  -14.7216  -52.0842 S.3       23 UNK        -0.2404 
      8 C8          3.4708  -15.6407  -53.0100 C.3       23 UNK        -0.0205 
      9 C9          2.5562  -16.4215  -52.0803 C.ar      23 UNK        -0.0193 
     10 C10         1.2716  -15.9552  -51.7839 C.ar      23 UNK        -0.1150 
     11 C11         0.4386  -16.6846  -50.9323 C.ar      23 UNK        -0.0193 
     12 C12         0.8978  -17.8837  -50.3847 C.ar      23 UNK        -0.1150 
     13 C13         2.1825  -18.3625  -50.6624 C.ar      23 UNK        -0.0193 
     14 C14         3.0020  -17.6226  -51.5197 C.ar      23 UNK        -0.1150 
     15 C15         2.6993  -19.6755  -50.0712 C.3       23 UNK        -0.0205 
     16 S16         2.3804  -19.8712  -48.2817 S.3       23 UNK        -0.2404 
     17 C17         0.6747  -20.5171  -48.2793 C.3       23 UNK        -0.0398 
     18 CA          0.5346  -21.8808  -47.5685 C.3       11 UNK         0.1400 
     19 N           0.5959  -21.7650  -46.1098 N.am      11 UNK        -0.5000 
     20 C           0.5620  -22.7964  -45.2539 C.2       10 UNK         0.5000 
     21 O           0.5455  -23.9777  -45.6013 O.2       10 UNK        -0.5000 
     22 CA          0.4708  -22.4502  -43.7570 C.3       10 UNK         0.1400 
     23 CB          1.8417  -22.0379  -43.2004 C.3       10 UNK        -0.1800 
     24 N          -0.5173  -21.4049  -43.4817 N.am      10 UNK        -0.5000 
     25 C          -1.8327  -21.5304  -43.7139 C.2       9 UNK         0.5000 
     26 O          -2.3550  -22.5564  -44.1486 O.2       9 UNK        -0.5000 
     27 CA         -2.7132  -20.2950  -43.4554 C.3       9 UNK         0.1400 
     28 CB         -3.0171  -20.1476  -41.9572 C.3       9 UNK        -0.1800 
     29 N          -2.1277  -19.0564  -43.9690 N.am      9 UNK        -0.5000 
     30 C          -1.8575  -18.8226  -45.2623 C.2       8 UNK         0.5000 
     31 O          -2.0997  -19.6236  -46.1640 O.2       8 UNK        -0.5000 
     32 CA         -1.1329  -17.5047  -45.5929 C.3       8 UNK         0.1400 
     33 CB         -2.0978  -16.3112  -45.5273 C.3       8 UNK        -0.1800 
     34 N           0.0024  -17.2572  -44.7049 N.am      8 UNK        -0.5000 
     35 C           1.0566  -18.0710  -44.5551 C.2       7 UNK         0.5000 
     36 O           1.2141  -19.1159  -45.1832 O.2       7 UNK        -0.5000 
     37 CA          2.0747  -17.6822  -43.4715 C.3       7 UNK         0.1400 
     38 CB          3.0054  -16.5582  -43.9541 C.3       7 UNK        -0.1800 
     39 N           1.4094  -17.2822  -42.2320 N.am      7 UNK        -0.5000 
     40 C           0.7376  -18.1228  -41.4320 C.2       6 UNK         0.5000 
     41 O           0.6363  -19.3319  -41.6388 O.2       6 UNK        -0.5000 
     42 CA          0.0318  -17.4999  -40.2141 C.3       6 UNK         0.1400 
     43 CB          1.0159  -17.3234  -39.0481 C.3       6 UNK        -0.1800 
     44 N          -0.5911  -16.2123  -40.5234 N.am      6 UNK        -0.5000 
     45 C          -1.6409  -16.0605  -41.3426 C.2       5 UNK         0.5000 
     46 O          -2.2118  -16.9943  -41.9043 O.2       5 UNK        -0.5000 
     47 CA         -2.1005  -14.6170  -41.6163 C.3       5 UNK         0.1400 
     48 CB         -3.0573  -14.1364  -40.5150 C.3       5 UNK        -0.1800 
     49 N          -0.9963  -13.6620  -41.7545 N.am      5 UNK        -0.5000 
     50 C          -0.0341  -13.7422  -42.6825 C.2       4 UNK         0.5000 
     51 O           0.0813  -14.6824  -43.4707 O.2       4 UNK        -0.5000 
     52 CA          0.9981  -12.6035  -42.7127 C.3       4 UNK         0.1400 
     53 CB          2.2743  -13.0174  -41.9639 C.3       4 UNK        -0.1800 
     54 N           1.3425  -12.2514  -44.0893 N.am      4 UNK        -0.5000 
     55 C           0.5164  -11.6330  -44.9446 C.2       3 UNK         0.5000 
     56 O          -0.5942  -11.2021  -44.6303 O.2       3 UNK        -0.5000 
     57 CA          1.0135  -11.4512  -46.3907 C.3       3 UNK         0.1400 
     58 CB          1.6094  -10.0476  -46.5806 C.3       3 UNK        -0.1800 
     59 N           2.0109  -12.4444  -46.7915 N.am      3 UNK        -0.5000 
     60 C           1.7492  -13.7192  -47.1054 C.2       2 UNK         0.5000 
     61 O           0.6199  -14.2078  -47.0757 O.2       2 UNK        -0.5000 
     62 CA          2.9552  -14.5585  -47.5856 C.3       2 UNK         0.1400 
     63 CB          2.6038  -16.0457  -47.7502 C.3       2 UNK        -0.1800 
     64 N           3.4798  -14.0562  -48.8596 N.am      2 UNK        -0.5000 
     65 C           4.1963  -12.9338  -49.0130 C.2       1 UNK         0.5000 
     66 O           4.5855  -12.2564  -48.0576 O.2       1 UNK        -0.5000 
     67 C          -0.7611  -22.5734  -48.0286 C.2       11 UNK         0.5000 
     68 O          -0.6851  -23.5278  -48.8001 O.2       11 UNK        -0.5000 
     69 N          -1.9162  -22.1006  -47.5393 N.am      12 UNK        -0.5000 
     70 CA         -3.2328  -22.6476  -47.8646 C.3       12 UNK         0.1400 
     71 CB         -4.3316  -21.7752  -47.2427 C.3       12 UNK        -0.1800 
     72 C          -3.3930  -24.1171  -47.4438 C.2       12 UNK         0.5000 
     73 O          -3.9437  -24.9004  -48.2153 O.2       12 UNK        -0.5000 
     74 N          -2.8770  -24.4767  -46.2610 N.am      13 UNK        -0.5000 
     75 CA         -2.8441  -25.8502  -45.7604 C.3       13 UNK         0.1400 
     76 CB         -2.3917  -25.8548  -44.2924 C.3       13 UNK        -0.1800 
     77 C          -1.9512  -26.7719  -46.6115 C.2       13 UNK         0.5000 
     78 O          -2.3658  -27.8865  -46.9307 O.2       13 UNK        -0.5000 
     79 N          -0.7559  -26.2882  -46.9777 N.am      14 UNK        -0.5000 
     80 CA          0.2151  -27.0154  -47.7966 C.3       14 UNK         0.1400 
     81 CB          1.5691  -26.2908  -47.7473 C.3       14 UNK        -0.1800 
     82 C          -0.2460  -27.2039  -49.2533 C.2       14 UNK         0.5000 
     83 O          -0.0997  -28.2966  -49.8024 O.2       14 UNK        -0.5000 
     84 N          -0.7944  -26.1385  -49.8499 N.am      15 UNK        -0.5000 
     85 CA         -1.2565  -26.1048  -51.2383 C.3       15 UNK         0.1400 
     86 CB         -1.2436  -24.6457  -51.7177 C.3       15 UNK        -0.1800 
     87 C          -2.6568  -26.7154  -51.4376 C.2       15 UNK         0.5000 
     88 O          -3.0477  -26.9426  -52.5828 O.2       15 UNK        -0.5000 
     89 N          -3.3887  -26.9397  -50.3361 N.am      16 UNK        -0.5000 
     90 CA         -4.7884  -27.3728  -50.2677 C.3       16 UNK         0.1400 
     91 CB         -4.9597  -28.8010  -50.8267 C.3       16 UNK        -0.1800 
     92 C          -5.7407  -26.3391  -50.9076 C.2       16 UNK         0.5000 
     93 O          -6.6223  -26.7038  -51.6877 O.2       16 UNK        -0.5000 
     94 N          -5.5214  -25.0634  -50.5523 N.am      17 UNK        -0.5000 
     95 CA         -6.2273  -23.8599  -51.0031 C.3       17 UNK         0.1400 
     96 CB         -7.6431  -23.8109  -50.3947 C.3       17 UNK        -0.1800 
     97 C          -6.2224  -23.7165  -52.5388 C.2       17 UNK         0.5000 
     98 O          -7.2806  -23.7192  -53.1718 O.2       17 UNK        -0.5000 
     99 N          -5.0148  -23.6179  -53.1116 N.am      18 UNK        -0.5000 
    100 CA        -4.7821  -23.4715  -54.5525 C.3       18 UNK         0.1400 
    101 CB        -3.2857  -23.6504  -54.8444 C.3       18 UNK        -0.1800 
    102 C         -5.2890  -22.1320  -55.1226 C.2       18 UNK         0.5000 
    103 O         -5.6461  -22.0657  -56.2997 O.2       18 UNK        -0.5000 
    104 N         -5.3373  -21.1050  -54.2708 N.am      19 UNK        -0.5000 
    105 CA        -5.9728  -19.8164  -54.5092 C.3       19 UNK         0.1400 
    106 CB        -5.0060  -18.8725  -55.2465 C.3       19 UNK        -0.1800 
    107 C         -6.4358  -19.2621  -53.1525 C.2       19 UNK         0.5000 
    108 O         -6.1836  -19.8911  -52.1199 O.2       19 UNK        -0.5000 
    109 N         -7.1224  -18.1122  -53.1776 N.am      20 UNK        -0.5000 
    110 CA        -7.7027  -17.4252  -52.0199 C.3       20 UNK         0.1400 
    111 CB        -8.4221  -16.1551  -52.5055 C.3       20 UNK        -0.1800 
    112 C         -6.6622  -17.1066  -50.9260 C.2       20 UNK         0.5000 
    113 O         -5.9504  -16.1064  -51.0281 O.2       20 UNK        -0.5000 
    114 N         -6.5903  -17.9947  -49.9243 N.am      21 UNK        -0.5000 
    115 CA        -5.6410  -18.0134  -48.8077 C.3       21 UNK         0.1400 
    116 CB        -5.8527  -16.7957  -47.8833 C.3       21 UNK        -0.1800 
    117 C         -4.1685  -18.1928  -49.2412 C.2       21 UNK         0.5000 
    118 O         -3.2748  -17.7306  -48.5332 O.2       21 UNK        -0.5000 
    119 N         -3.9361  -18.8756  -50.3705 N.am      22 UNK        -0.5000 
    120 CA        -2.6022  -19.2167  -50.8872 C.3       22 UNK         0.1400 
    121 C         -2.5182  -20.7152  -51.2939 C.2       22 UNK         0.5000 
    122 N         -1.3226  -21.2177  -51.5724 N.am      22 UNK        -0.7600 
    123 O         -3.5149  -21.4291  -51.3874 O.2       22 UNK        -0.5000 
    124 C124       -2.1435  -18.3071  -52.0637 C.3       23 UNK        -0.0398 
    125 S125       -2.2237  -16.4990  -51.8013 S.3       23 UNK        -0.2404 
    126 C126       -0.9392  -16.1646  -50.5500 C.3       23 UNK        -0.0205 
    127 H127        1.8097  -11.7105  -49.6997 H         1 UNK         0.0600 
    128 H128        1.5951  -11.3517  -51.4222 H         1 UNK         0.0600 
    129 H129        1.0943  -10.1923  -50.1993 H         1 UNK         0.0600 
    130 H130        5.2310  -10.4923  -50.5701 H         1 UNK         0.3000 
    131 H131        5.5892  -12.5988  -50.5587 H         1 UNK         0.0600 
    132 H132        3.7645  -12.6015  -52.4923 H         1 UNK         0.0800 
    133 H133        2.7800  -13.4784  -51.3630 H         1 UNK         0.0800 
    134 H134        3.9673  -16.3347  -53.6899 H         1 UNK         0.0800 
    135 H135        2.8990  -14.9571  -53.6397 H         1 UNK         0.0800 
    136 H136        0.9198  -15.0259  -52.2093 H         1 UNK         0.1150 
    137 H137        0.2491  -18.4169  -49.7136 H         1 UNK         0.1150 
    138 H138        3.9965  -17.9775  -51.7519 H         1 UNK         0.1150 
    139 H139        2.2768  -20.5151  -50.6241 H         1 UNK         0.0800 
    140 H140        3.7792  -19.7402  -50.2123 H         1 UNK         0.0800 
    141 H141        0.3450  -20.6046  -49.3148 H         1 UNK         0.0800 
    142 H142        0.0237  -19.7747  -47.8155 H         1 UNK         0.0800 
    143 H143        1.3635  -22.5198  -47.8806 H         1 UNK         0.0600 
    144 H144        0.6577  -20.8198  -45.7369 H         1 UNK         0.3000 
    145 H145        0.1522  -23.3519  -43.2300 H         1 UNK         0.0600 
    146 H146        1.7967  -21.8782  -42.1231 H         1 UNK         0.0600 
    147 H147        2.2054  -21.1184  -43.6591 H         1 UNK         0.0600 
    148 H148        2.5863  -22.8134  -43.3837 H         1 UNK         0.0600 
    149 H149       -0.1650  -20.5371  -43.0916 H         1 UNK         0.3000 
    150 H150       -3.6595  -20.4510  -43.9772 H         1 UNK         0.0600 
    151 H151       -2.1156  -19.9335  -41.3824 H         1 UNK         0.0600 
    152 H152       -3.4553  -21.0618  -41.5549 H         1 UNK         0.0600 
    153 H153       -3.7277  -19.3408  -41.7776 H         1 UNK         0.0600 
    154 H154       -1.9310  -18.3310  -43.2852 H         1 UNK         0.3000 
    155 H155       -0.7484  -17.5779  -46.6124 H         1 UNK         0.0600 
    156 H156       -2.4983  -16.1694  -44.5240 H         1 UNK         0.0600 
    157 H157       -2.9425  -16.4536  -46.2008 H         1 UNK         0.0600 
    158 H158       -1.5997  -15.3872  -45.8217 H         1 UNK         0.0600 
    159 H159       -0.0229  -16.3911  -44.1709 H         1 UNK         0.3000 
    160 H160        2.6894  -18.5592  -43.2574 H         1 UNK         0.0600 
    161 H161        2.4516  -15.6650  -44.2441 H         1 UNK         0.0600 
    162 H162        3.5825  -16.8817  -44.8210 H         1 UNK         0.0600 
    163 H163        3.7184  -16.2758  -43.1796 H         1 UNK         0.0600 
    164 H164        1.3856  -16.2948  -42.0269 H         1 UNK         0.3000 
    165 H165       -0.7531  -18.1896  -39.8962 H         1 UNK         0.0600 
    166 H166        0.5082  -16.9558  -38.1562 H         1 UNK         0.0600 
    167 H167        1.4839  -18.2733  -38.7862 H         1 UNK         0.0600 
    168 H168        1.8134  -16.6213  -39.2946 H         1 UNK         0.0600 
    169 H169       -0.1810  -15.3899  -40.1062 H         1 UNK         0.3000 
    170 H170       -2.6480  -14.6227  -42.5610 H         1 UNK         0.0600 
    171 H171       -3.8992  -14.8211  -40.4033 H         1 UNK         0.0600 
    172 H172       -2.5582  -14.0691  -39.5475 H         1 UNK         0.0600 
    173 H173       -3.4686  -13.1546  -40.7503 H         1 UNK         0.0600 
    174 H174       -1.0135  -12.8649  -41.1346 H         1 UNK         0.3000 
    175 H175        0.5756  -11.7228  -42.2244 H         1 UNK         0.0600 
    176 H176        2.7494  -13.8851  -42.4224 H         1 UNK         0.0600 
    177 H177        3.0025  -12.2062  -41.9494 H         1 UNK         0.0600 
    178 H178        2.0541  -13.2732  -40.9267 H         1 UNK         0.0600 
    179 H179        2.2207  -12.5986  -44.4427 H         1 UNK         0.3000 
    180 H180        0.1486  -11.5461  -47.0508 H         1 UNK         0.0600 
    181 H181        1.9029   -9.8783  -47.6164 H         1 UNK         0.0600 
    182 H182        2.4897   -9.8965  -45.9545 H         1 UNK         0.0600 
    183 H183        0.8840   -9.2759  -46.3198 H         1 UNK         0.0600 
    184 H184        2.9647  -12.1178  -46.9108 H         1 UNK         0.3000 
    185 H185        3.7352  -14.4837  -46.8250 H         1 UNK         0.0600 
    186 H186        3.4697  -16.6324  -48.0574 H         1 UNK         0.0600 
    187 H187        2.2344  -16.4704  -46.8177 H         1 UNK         0.0600 
    188 H188        1.8225  -16.1843  -48.4942 H         1 UNK         0.0600 
    189 H189        3.2094  -14.5785  -49.6808 H         1 UNK         0.3000 
    190 H190       -1.9036  -21.2882  -46.9247 H         1 UNK         0.3000 
    191 H191       -3.3442  -22.6069  -48.9494 H         1 UNK         0.0600 
    192 H192       -4.2619  -20.7478  -47.5978 H         1 UNK         0.0600 
    193 H193       -4.2629  -21.7576  -46.1546 H         1 UNK         0.0600 
    194 H194       -5.3227  -22.1460  -47.5073 H         1 UNK         0.0600 
    195 H195       -2.4836  -23.7606  -45.6561 H         1 UNK         0.3000 
    196 H196       -3.8617  -26.2445  -45.8011 H         1 UNK         0.0600 
    197 H197       -3.0758  -25.2794  -43.6686 H         1 UNK         0.0600 
    198 H198       -1.3953  -25.4271  -44.1761 H         1 UNK         0.0600 
    199 H199       -2.3635  -26.8698  -43.8942 H         1 UNK         0.0600 
    200 H200       -0.4749  -25.3689  -46.6498 H         1 UNK         0.3000 
    201 H201        0.3482  -28.0074  -47.3599 H         1 UNK         0.0600 
    202 H202        1.9483  -26.2353  -46.7267 H         1 UNK         0.0600 
    203 H203        1.4951  -25.2724  -48.1307 H         1 UNK         0.0600 
    204 H204        2.3164  -26.8148  -48.3444 H         1 UNK         0.0600 
    205 H205       -0.8366  -25.2564  -49.3411 H         1 UNK         0.3000 
    206 H206       -0.5565  -26.6718  -51.8553 H         1 UNK         0.0600 
    207 H207       -1.9940  -24.0500  -51.1959 H         1 UNK         0.0600 
    208 H208       -0.2689  -24.1860  -51.5524 H         1 UNK         0.0600 
    209 H209       -1.4507  -24.5860  -52.7850 H         1 UNK         0.0600 
    210 H210       -2.9801  -26.6725  -49.4501 H         1 UNK         0.3000 
    211 H211       -5.0431  -27.4055  -49.2073 H         1 UNK         0.0600 
    212 H212       -4.7807  -28.8441  -51.9012 H         1 UNK         0.0600 
    213 H213       -5.9714  -29.1679  -50.6507 H         1 UNK         0.0600 
    214 H214       -4.2737  -29.4969  -50.3438 H         1 UNK         0.0600 
    215 H215       -4.8007  -24.9107  -49.8504 H         1 UNK         0.3000 
    216 H216       -5.6732  -23.0066  -50.6085 H         1 UNK         0.0600 
    217 H217       -8.1503  -22.8841  -50.6655 H         1 UNK         0.0600 
    218 H218       -7.6042  -23.8538  -49.3063 H         1 UNK         0.0600 
    219 H219       -8.2632  -24.6384  -50.7411 H         1 UNK         0.0600 
    220 H220       -4.2013  -23.5786  -52.5141 H         1 UNK         0.3000 
    221 H221       -5.3259  -24.2690  -55.0631 H         1 UNK         0.0600 
    222 H222       -2.6794  -22.9300  -54.2937 H         1 UNK         0.0600 
    223 H223       -2.9550  -24.6539  -54.5768 H         1 UNK         0.0600 
    224 H224       -3.0741  -23.5154  -55.9059 H         1 UNK         0.0600 
    225 H225       -5.0716  -21.2590  -53.3033 H         1 UNK         0.3000 
    226 H226       -6.8661  -19.9657  -55.1193 H         1 UNK         0.0600 
    227 H227       -4.7300  -19.2777  -56.2201 H         1 UNK         0.0600 
    228 H228       -5.4571  -17.8958  -55.4234 H         1 UNK         0.0600 
    229 H229       -4.0883  -18.7143  -54.6849 H         1 UNK         0.0600 
    230 H230       -7.2658  -17.6599  -54.0685 H         1 UNK         0.3000 
    231 H231       -8.4585  -18.0860  -51.5903 H         1 UNK         0.0600 
    232 H232       -8.8627  -15.6123  -51.6682 H         1 UNK         0.0600 
    233 H233       -9.2308  -16.3981  -53.1950 H         1 UNK         0.0600 
    234 H234       -7.7396  -15.4740  -53.0155 H         1 UNK         0.0600 
    235 H235       -7.1825  -18.8112  -49.9907 H         1 UNK         0.3000 
    236 H236       -5.8860  -18.9038  -48.2273 H         1 UNK         0.0600 
    237 H237       -5.5369  -15.8669  -48.3592 H         1 UNK         0.0600 
    238 H238       -6.9001  -16.6905  -47.6008 H         1 UNK         0.0600 
    239 H239       -5.2797  -16.9012  -46.9616 H         1 UNK         0.0600 
    240 H240       -4.7166  -19.2776  -50.8816 H         1 UNK         0.3000 
    241 H241       -1.8848  -19.1094  -50.0739 H         1 UNK         0.0600 
    242 H242       -1.2613  -22.1864  -51.8374 H         1 UNK         0.3800 
    243 H243       -0.4886  -20.6548  -51.5695 H         1 UNK         0.3800 
    244 H244       -2.7589  -18.5174  -52.9359 H         1 UNK         0.0800 
    245 H245       -1.1248  -18.5524  -52.3661 H         1 UNK         0.0800 
    246 H246       -1.2467  -16.5862  -49.5932 H         1 UNK         0.0800 
    247 H247       -0.8839  -15.0871  -50.3889 H         1 UNK         0.0800 
@<TRIPOS>BOND
     1    1    2 1    
     2    1  127 1    
     3    1  128 1    
     4    1  129 1    
     5    2    3 2    
     6    2    4 am   BACKBONE|DICT|INTERRES
     7    4    5 1    
     8    4  130 1    
     9    5    6 1    
    10    5   65 1    
    11    5  131 1    
    12    6    7 1    
    13    6  132 1    
    14    6  133 1    
    15    7    8 1    
    16    8    9 1    
    17    8  134 1    
    18    8  135 1    
    19    9   10 ar   
    20    9   14 ar   
    21   10   11 ar   
    22   10  136 1    
    23   11   12 ar   
    24   11  126 1    
    25   12   13 ar   
    26   12  137 1    
    27   13   14 ar   
    28   13   15 1    
    29   14  138 1    
    30   15   16 1    
    31   15  139 1    
    32   15  140 1    
    33   16   17 1    
    34   17   18 1    
    35   17  141 1    
    36   17  142 1    
    37   18   19 1    
    38   18   67 1    
    39   18  143 1    
    40   19   20 am   BACKBONE|DICT|INTERRES
    41   19  144 1    
    42   20   21 2    
    43   20   22 1    
    44   22   23 1    
    45   22   24 1    
    46   22  145 1    
    47   23  146 1    
    48   23  147 1    
    49   23  148 1    
    50   24   25 am   BACKBONE|DICT|INTERRES
    51   24  149 1    
    52   25   26 2    
    53   25   27 1    
    54   27   28 1    
    55   27   29 1    
    56   27  150 1    
    57   28  151 1    
    58   28  152 1    
    59   28  153 1    
    60   29   30 am   BACKBONE|DICT|INTERRES
    61   29  154 1    
    62   30   31 2    
    63   30   32 1    
    64   32   33 1    
    65   32   34 1    
    66   32  155 1    
    67   33  156 1    
    68   33  157 1    
    69   33  158 1    
    70   34   35 am   BACKBONE|DICT|INTERRES
    71   34  159 1    
    72   35   36 2    
    73   35   37 1    
    74   37   38 1    
    75   37   39 1    
    76   37  160 1    
    77   38  161 1    
    78   38  162 1    
    79   38  163 1    
    80   39   40 am   BACKBONE|DICT|INTERRES
    81   39  164 1    
    82   40   41 2    
    83   40   42 1    
    84   42   43 1    
    85   42   44 1    
    86   42  165 1    
    87   43  166 1    
    88   43  167 1    
    89   43  168 1    
    90   44   45 am   BACKBONE|DICT|INTERRES
    91   44  169 1    
    92   45   46 2    
    93   45   47 1    
    94   47   48 1    
    95   47   49 1    
    96   47  170 1    
    97   48  171 1    
    98   48  172 1    
    99   48  173 1    
   100   49   50 am   BACKBONE|DICT|INTERRES
   101   49  174 1    
   102   50   51 2    
   103   50   52 1    
   104   52   53 1    
   105   52   54 1    
   106   52  175 1    
   107   53  176 1    
   108   53  177 1    
   109   53  178 1    
   110   54   55 am   BACKBONE|DICT|INTERRES
   111   54  179 1    
   112   55   56 2    
   113   55   57 1    
   114   57   58 1    
   115   57   59 1    
   116   57  180 1    
   117   58  181 1    
   118   58  182 1    
   119   58  183 1    
   120   59   60 am   BACKBONE|DICT|INTERRES
   121   59  184 1    
   122   60   61 2    
   123   60   62 1    
   124   62   63 1    
   125   62   64 1    
   126   62  185 1    
   127   63  186 1    
   128   63  187 1    
   129   63  188 1    
   130   64   65 am   BACKBONE|DICT|INTERRES
   131   64  189 1    
   132   65   66 2    
   133   67   68 2    
   134   67   69 am   BACKBONE|DICT|INTERRES
   135   69   70 1    
   136   69  190 1    
   137   70   71 1    
   138   70   72 1    
   139   70  191 1    
   140   71  192 1    
   141   71  193 1    
   142   71  194 1    
   143   72   73 2    
   144   72   74 am   BACKBONE|DICT|INTERRES
   145   74   75 1    
   146   74  195 1    
   147   75   76 1    
   148   75   77 1    
   149   75  196 1    
   150   76  197 1    
   151   76  198 1    
   152   76  199 1    
   153   77   78 2    
   154   77   79 am   BACKBONE|DICT|INTERRES
   155   79   80 1    
   156   79  200 1    
   157   80   81 1    
   158   80   82 1    
   159   80  201 1    
   160   81  202 1    
   161   81  203 1    
   162   81  204 1    
   163   82   83 2    
   164   82   84 am   BACKBONE|DICT|INTERRES
   165   84   85 1    
   166   84  205 1    
   167   85   86 1    
   168   85   87 1    
   169   85  206 1    
   170   86  207 1    
   171   86  208 1    
   172   86  209 1    
   173   87   88 2    
   174   87   89 am   BACKBONE|DICT|INTERRES
   175   89   90 1    
   176   89  210 1    
   177   90   91 1    
   178   90   92 1    
   179   90  211 1    
   180   91  212 1    
   181   91  213 1    
   182   91  214 1    
   183   92   93 2    
   184   92   94 am   BACKBONE|DICT|INTERRES
   185   94   95 1    
   186   94  215 1    
   187   95   96 1    
   188   95   97 1    
   189   95  216 1    
   190   96  217 1    
   191   96  218 1    
   192   96  219 1    
   193   97   98 2    
   194   97   99 am   BACKBONE|DICT|INTERRES
   195   99  100 1    
   196   99  220 1    
   197  100  101 1    
   198  100  102 1    
   199  100  221 1    
   200  101  222 1    
   201  101  223 1    
   202  101  224 1    
   203  102  103 2    
   204  102  104 am   BACKBONE|DICT|INTERRES
   205  104  105 1    
   206  104  225 1    
   207  105  106 1    
   208  105  107 1    
   209  105  226 1    
   210  106  227 1    
   211  106  228 1    
   212  106  229 1    
   213  107  108 2    
   214  107  109 am   BACKBONE|DICT|INTERRES
   215  109  110 1    
   216  109  230 1    
   217  110  111 1    
   218  110  112 1    
   219  110  231 1    
   220  111  232 1    
   221  111  233 1    
   222  111  234 1    
   223  112  113 2    
   224  112  114 am   BACKBONE|DICT|INTERRES
   225  114  115 1    
   226  114  235 1    
   227  115  116 1    
   228  115  117 1    
   229  115  236 1    
   230  116  237 1    
   231  116  238 1    
   232  116  239 1    
   233  117  118 2    
   234  117  119 am   BACKBONE|DICT|INTERRES
   235  119  120 1    
   236  119  240 1    
   237  120  121 1    
   238  120  124 1    
   239  120  241 1    
   240  121  122 am   BACKBONE|DICT|INTERRES
   241  121  123 2    
   242  122  242 1    
   243  122  243 1    
   244  124  125 1    
   245  124  244 1    
   246  124  245 1    
   247  125  126 1    
   248  126  246 1    
   249  126  247 1    
@<TRIPOS>SUBSTRUCTURE
     1 UNK         1 GROUP             0       ****    0 ROOT    
