@<TRIPOS>MOLECULE
3R540
247   249    1
SMALL
USER_CHARGES


@<TRIPOS>ATOM
      1 CA          4.6712  -14.8031  -44.5664 C.3       0 UNK        -0.1800 
      2 C           3.6479  -13.7495  -44.9612 C.2       0 UNK         0.5000 
      3 O           3.2374  -12.9428  -44.1259 O.2       0 UNK        -0.5000 
      4 N           3.2367  -13.7343  -46.2357 N.am      1 UNK        -0.5000 
      5 CA          2.1957  -12.8470  -46.7702 C.3       1 UNK         0.1400 
      6 C6          1.6797  -13.3100  -48.1501 C.3       23 UNK        -0.0398 
      7 S7          2.9549  -13.4074  -49.4564 S.3       23 UNK        -0.2404 
      8 C8          1.9996  -14.1292  -50.8328 C.3       23 UNK        -0.0205 
      9 C9          1.7572  -15.6171  -50.6284 C.ar      23 UNK        -0.0193 
     10 C10         2.6732  -16.5550  -51.1172 C.ar      23 UNK        -0.1150 
     11 C11         2.4761  -17.9206  -50.8915 C.ar      23 UNK        -0.0193 
     12 C12         1.3697  -18.3394  -50.1500 C.ar      23 UNK        -0.1150 
     13 C13         0.4532  -17.4127  -49.6515 C.ar      23 UNK        -0.0193 
     14 C14         0.6315  -16.0559  -49.9243 C.ar      23 UNK        -0.1150 
     15 C15        -0.6708  -17.8775  -48.7443 C.3       23 UNK        -0.0205 
     16 S16        -1.8240  -18.9804  -49.5983 S.3       23 UNK        -0.2404 
     17 C17        -2.6335  -19.7694  -48.1730 C.3       23 UNK        -0.0398 
     18 CA         -2.0593  -21.1816  -47.9107 C.3       11 UNK         0.1400 
     19 N          -0.7546  -21.1574  -47.2249 N.am      11 UNK        -0.5000 
     20 C           0.0417  -22.2323  -47.1186 C.2       10 UNK         0.5000 
     21 O          -0.2352  -23.3152  -47.6351 O.2       10 UNK        -0.5000 
     22 CA          1.2892  -22.1383  -46.2201 C.3       10 UNK         0.1400 
     23 CB          2.4359  -23.0661  -46.6782 C.3       10 UNK        -0.1800 
     24 N           1.7656  -20.7802  -45.9493 N.am      10 UNK        -0.5000 
     25 C           2.4886  -19.9767  -46.7438 C.2       9 UNK         0.5000 
     26 O           2.7480  -20.2312  -47.9189 O.2       9 UNK        -0.5000 
     27 CA          3.0647  -18.6888  -46.1064 C.3       9 UNK         0.1400 
     28 CB          2.5226  -17.4230  -46.7825 C.3       9 UNK        -0.1800 
     29 N           2.8214  -18.5884  -44.6655 N.am      9 UNK        -0.5000 
     30 C           3.4551  -19.2972  -43.7208 C.2       8 UNK         0.5000 
     31 O           4.4002  -20.0529  -43.9464 O.2       8 UNK        -0.5000 
     32 CA          2.8917  -19.1845  -42.2930 C.3       8 UNK         0.1400 
     33 CB          3.5404  -18.0116  -41.5433 C.3       8 UNK        -0.1800 
     34 N           1.4330  -19.0302  -42.2914 N.am      8 UNK        -0.5000 
     35 C           0.5672  -20.0135  -42.5811 C.2       7 UNK         0.5000 
     36 O           0.9078  -21.1647  -42.8501 O.2       7 UNK        -0.5000 
     37 CA         -0.9262  -19.6413  -42.6291 C.3       7 UNK         0.1400 
     38 CB         -1.5434  -19.6720  -41.2237 C.3       7 UNK        -0.1800 
     39 N          -1.1572  -18.3312  -43.2363 N.am      7 UNK        -0.5000 
     40 C          -0.9841  -18.0585  -44.5370 C.2       6 UNK         0.5000 
     41 O          -0.6846  -18.9088  -45.3762 O.2       6 UNK        -0.5000 
     42 CA         -1.1380  -16.5850  -44.9668 C.3       6 UNK         0.1400 
     43 CB         -2.5715  -16.3080  -45.4403 C.3       6 UNK        -0.1800 
     44 N          -0.7799  -15.6188  -43.9226 N.am      6 UNK        -0.5000 
     45 C           0.4256  -15.5173  -43.3476 C.2       5 UNK         0.5000 
     46 O           1.3792  -16.2398  -43.6421 O.2       5 UNK        -0.5000 
     47 CA          0.5734  -14.4243  -42.2758 C.3       5 UNK         0.1400 
     48 CB          1.8438  -14.5886  -41.4236 C.3       5 UNK        -0.1800 
     49 N           0.5926  -13.1089  -42.9069 N.am      5 UNK        -0.5000 
     50 C          -0.4894  -12.3645  -43.1703 C.2       4 UNK         0.5000 
     51 O          -1.6366  -12.7448  -42.9283 O.2       4 UNK        -0.5000 
     52 CA         -0.2642  -10.9879  -43.8364 C.3       4 UNK         0.1400 
     53 CB         -1.2977   -9.9350  -43.3858 C.3       4 UNK        -0.1800 
     54 N           1.1044  -10.4731  -43.7032 N.am      4 UNK        -0.5000 
     55 C           1.7556  -10.1256  -42.5805 C.2       3 UNK         0.5000 
     56 O           1.2399  -10.1367  -41.4622 O.2       3 UNK        -0.5000 
     57 CA          3.2403   -9.7244  -42.7235 C.3       3 UNK         0.1400 
     58 CB          4.1142  -10.4663  -41.6967 C.3       3 UNK        -0.1800 
     59 N           3.7507  -10.0261  -44.0619 N.am      3 UNK        -0.5000 
     60 C           4.0104   -9.1310  -45.0249 C.2       2 UNK         0.5000 
     61 O           3.9295   -7.9125  -44.8674 O.2       2 UNK        -0.5000 
     62 CA          4.3975   -9.6918  -46.4114 C.3       2 UNK         0.1400 
     63 CB          5.9247   -9.7176  -46.5734 C.3       2 UNK        -0.1800 
     64 N           3.8704  -11.0369  -46.6604 N.am      2 UNK        -0.5000 
     65 C           2.5692  -11.3490  -46.7470 C.2       1 UNK         0.5000 
     66 O           1.6698  -10.5089  -46.7235 O.2       1 UNK        -0.5000 
     67 C          -3.0882  -22.0502  -47.1578 C.2       11 UNK         0.5000 
     68 O          -3.9349  -22.6773  -47.7972 O.2       11 UNK        -0.5000 
     69 N          -2.9743  -22.1021  -45.8229 N.am      12 UNK        -0.5000 
     70 CA         -3.7789  -22.9652  -44.9578 C.3       12 UNK         0.1400 
     71 CB         -3.5729  -22.5477  -43.4934 C.3       12 UNK        -0.1800 
     72 C          -3.4495  -24.4579  -45.1505 C.2       12 UNK         0.5000 
     73 O          -4.3604  -25.2854  -45.1525 O.2       12 UNK        -0.5000 
     74 N          -2.1579  -24.7675  -45.3345 N.am      13 UNK        -0.5000 
     75 CA         -1.6534  -26.1199  -45.5781 C.3       13 UNK         0.1400 
     76 CB         -0.1451  -26.1615  -45.2927 C.3       13 UNK        -0.1800 
     77 C          -1.9532  -26.6025  -47.0081 C.2       13 UNK         0.5000 
     78 O          -2.3122  -27.7655  -47.1939 O.2       13 UNK        -0.5000 
     79 N          -1.8296  -25.6940  -47.9868 N.am      14 UNK        -0.5000 
     80 CA         -2.1693  -25.9262  -49.3927 C.3       14 UNK         0.1400 
     81 CB         -1.5991  -24.7778  -50.2411 C.3       14 UNK        -0.1800 
     82 C          -3.6840  -26.0603  -49.6432 C.2       14 UNK         0.5000 
     83 O          -4.0703  -26.6096  -50.6746 O.2       14 UNK        -0.5000 
     84 N          -4.4987  -25.5438  -48.7092 N.am      15 UNK        -0.5000 
     85 CA         -5.9566  -25.4181  -48.7624 C.3       15 UNK         0.1400 
     86 CB         -6.6417  -26.8003  -48.7888 C.3       15 UNK        -0.1800 
     87 C          -6.3815  -24.5048  -49.9257 C.2       15 UNK         0.5000 
     88 O          -7.1673  -24.9075  -50.7844 O.2       15 UNK        -0.5000 
     89 N          -5.8235  -23.2863  -49.9392 N.am      16 UNK        -0.5000 
     90 CA         -5.9238  -22.2917  -51.0132 C.3       16 UNK         0.1400 
     91 CB         -5.1331  -21.0443  -50.5999 C.3       16 UNK        -0.1800 
     92 C          -7.3505  -21.8932  -51.4418 C.2       16 UNK         0.5000 
     93 O          -7.5288  -21.4340  -52.5692 O.2       16 UNK        -0.5000 
     94 N          -8.3362  -22.0818  -50.5543 N.am      17 UNK        -0.5000 
     95 CA         -9.7588  -21.8891  -50.8406 C.3       17 UNK         0.1400 
     96 CB        -10.5382  -21.8864  -49.5166 C.3       17 UNK        -0.1800 
     97 C         -10.3337  -22.9503  -51.8024 C.2       17 UNK         0.5000 
     98 O         -11.2700  -22.6457  -52.5424 O.2       17 UNK        -0.5000 
     99 N          -9.7705  -24.1657  -51.7745 N.am      18 UNK        -0.5000 
    100 CA       -10.1254  -25.2761  -52.6580 C.3       18 UNK         0.1400 
    101 CB       -10.1617  -26.5772  -51.8400 C.3       18 UNK        -0.1800 
    102 C         -9.1249  -25.3967  -53.8200 C.2       18 UNK         0.5000 
    103 O         -9.5379  -25.6576  -54.9509 O.2       18 UNK        -0.5000 
    104 N         -7.8344  -25.2050  -53.5175 N.am      19 UNK        -0.5000 
    105 CA        -6.7256  -25.1870  -54.4663 C.3       19 UNK         0.1400 
    106 CB        -5.4772  -25.7631  -53.7663 C.3       19 UNK        -0.1800 
    107 C         -6.5345  -23.7590  -55.0198 C.2       19 UNK         0.5000 
    108 O         -7.4502  -23.2224  -55.6463 O.2       19 UNK        -0.5000 
    109 N         -5.3595  -23.1651  -54.7888 N.am      20 UNK        -0.5000 
    110 CA        -5.0157  -21.7922  -55.1368 C.3       20 UNK         0.1400 
    111 CB        -4.5075  -21.7303  -56.5877 C.3       20 UNK        -0.1800 
    112 C         -3.9447  -21.3006  -54.1554 C.2       20 UNK         0.5000 
    113 O         -3.2168  -22.1187  -53.5820 O.2       20 UNK        -0.5000 
    114 N         -3.8605  -19.9762  -53.9805 N.am      21 UNK        -0.5000 
    115 CA        -2.8682  -19.3209  -53.1292 C.3       21 UNK         0.1400 
    116 CB        -3.1897  -17.8231  -53.0192 C.3       21 UNK        -0.1800 
    117 C         -1.4409  -19.5444  -53.6561 C.2       21 UNK         0.5000 
    118 O         -1.1973  -19.3466  -54.8487 O.2       21 UNK        -0.5000 
    119 N         -0.5412  -19.9695  -52.7611 N.am      22 UNK        -0.5000 
    120 CA         0.8464  -20.3604  -53.0646 C.3       22 UNK         0.1400 
    121 C          0.9793  -21.6856  -53.8824 C.2       22 UNK         0.5000 
    122 N         -0.0740  -22.4811  -54.0417 N.am      22 UNK        -0.7600 
    123 O          2.0598  -22.0230  -54.3575 O.2       22 UNK        -0.5000 
    124 C124        1.6655  -19.1728  -53.6544 C.3       23 UNK        -0.0398 
    125 S125        3.4433  -19.1449  -53.2253 S.3       23 UNK        -0.2404 
    126 C126        3.4697  -18.9504  -51.4096 C.3       23 UNK        -0.0205 
    127 H127        5.4869  -14.3452  -44.0073 H         1 UNK         0.0600 
    128 H128        4.2020  -15.5571  -43.9346 H         1 UNK         0.0600 
    129 H129        5.0932  -15.3034  -45.4381 H         1 UNK         0.0600 
    130 H130        3.6285  -14.3894  -46.8975 H         1 UNK         0.3000 
    131 H131        1.3489  -12.9384  -46.0859 H         1 UNK         0.0600 
    132 H132        0.8673  -12.6673  -48.4942 H         1 UNK         0.0800 
    133 H133        1.2436  -14.2984  -48.0188 H         1 UNK         0.0800 
    134 H134        2.5482  -13.9702  -51.7624 H         1 UNK         0.0800 
    135 H135        1.0523  -13.5996  -50.9453 H         1 UNK         0.0800 
    136 H136        3.5438  -16.2240  -51.6658 H         1 UNK         0.1150 
    137 H137        1.2318  -19.3890  -49.9323 H         1 UNK         0.1150 
    138 H138       -0.0805  -15.3367  -49.5459 H         1 UNK         0.1150 
    139 H139       -0.2262  -18.4107  -47.9058 H         1 UNK         0.0800 
    140 H140       -1.2202  -17.0326  -48.3271 H         1 UNK         0.0800 
    141 H141       -2.5546  -19.1413  -47.2858 H         1 UNK         0.0800 
    142 H142       -3.6976  -19.8089  -48.4073 H         1 UNK         0.0800 
    143 H143       -1.9124  -21.6679  -48.8775 H         1 UNK         0.0600 
    144 H144       -0.5130  -20.3102  -46.7185 H         1 UNK         0.3000 
    145 H145        0.9597  -22.5147  -45.2512 H         1 UNK         0.0600 
    146 H146        3.2969  -22.9869  -46.0143 H         1 UNK         0.0600 
    147 H147        2.1258  -24.1105  -46.6774 H         1 UNK         0.0600 
    148 H148        2.7676  -22.8337  -47.6903 H         1 UNK         0.0600 
    149 H149        1.5907  -20.4522  -45.0094 H         1 UNK         0.3000 
    150 H150        4.1446  -18.7128  -46.2659 H         1 UNK         0.0600 
    151 H151        2.9465  -16.5277  -46.3324 H         1 UNK         0.0600 
    152 H152        1.4408  -17.3550  -46.6957 H         1 UNK         0.0600 
    153 H153        2.7780  -17.4037  -47.8418 H         1 UNK         0.0600 
    154 H154        2.1083  -17.9286  -44.3700 H         1 UNK         0.3000 
    155 H155        3.1394  -20.1052  -41.7603 H         1 UNK         0.0600 
    156 H156        3.1424  -17.9171  -40.5329 H         1 UNK         0.0600 
    157 H157        3.3820  -17.0652  -42.0593 H         1 UNK         0.0600 
    158 H158        4.6178  -18.1564  -41.4565 H         1 UNK         0.0600 
    159 H159        1.0804  -18.0952  -42.1488 H         1 UNK         0.3000 
    160 H160       -1.4341  -20.3914  -43.2381 H         1 UNK         0.0600 
    161 H161       -1.0942  -18.9251  -40.5678 H         1 UNK         0.0600 
    162 H162       -1.4015  -20.6477  -40.7570 H         1 UNK         0.0600 
    163 H163       -2.6167  -19.4848  -41.2612 H         1 UNK         0.0600 
    164 H164       -1.4201  -17.5782  -42.6180 H         1 UNK         0.3000 
    165 H165       -0.4670  -16.4176  -45.8102 H         1 UNK         0.0600 
    166 H166       -3.2931  -16.4307  -44.6316 H         1 UNK         0.0600 
    167 H167       -2.6695  -15.2931  -45.8262 H         1 UNK         0.0600 
    168 H168       -2.8597  -16.9867  -46.2434 H         1 UNK         0.0600 
    169 H169       -1.4964  -14.9602  -43.6439 H         1 UNK         0.3000 
    170 H170       -0.2821  -14.4986  -41.6012 H         1 UNK         0.0600 
    171 H171        1.8312  -15.5380  -40.8879 H         1 UNK         0.0600 
    172 H172        2.7503  -14.5618  -42.0280 H         1 UNK         0.0600 
    173 H173        1.9202  -13.7974  -40.6777 H         1 UNK         0.0600 
    174 H174        1.5051  -12.7786  -43.2060 H         1 UNK         0.3000 
    175 H175       -0.4157  -11.1518  -44.9040 H         1 UNK         0.0600 
    176 H176       -1.1228   -8.9766  -43.8747 H         1 UNK         0.0600 
    177 H177       -2.3112  -10.2464  -43.6410 H         1 UNK         0.0600 
    178 H178       -1.2697   -9.7729  -42.3081 H         1 UNK         0.0600 
    179 H179        1.6117  -10.3954  -44.5757 H         1 UNK         0.3000 
    180 H180        3.3064   -8.6540  -42.5202 H         1 UNK         0.0600 
    181 H181        5.1633  -10.1887  -41.7994 H         1 UNK         0.0600 
    182 H182        3.8151  -10.2250  -40.6761 H         1 UNK         0.0600 
    183 H183        4.0407  -11.5484  -41.8141 H         1 UNK         0.0600 
    184 H184        3.8177  -11.0152  -44.2799 H         1 UNK         0.3000 
    185 H185        3.9820   -9.0212  -47.1665 H         1 UNK         0.0600 
    186 H186        6.2101  -10.0431  -47.5740 H         1 UNK         0.0600 
    187 H187        6.3505   -8.7248  -46.4222 H         1 UNK         0.0600 
    188 H188        6.3943  -10.3894  -45.8537 H         1 UNK         0.0600 
    189 H189        4.5414  -11.7910  -46.6842 H         1 UNK         0.3000 
    190 H190       -2.2621  -21.5414  -45.3800 H         1 UNK         0.3000 
    191 H191       -4.8311  -22.8184  -45.2114 H         1 UNK         0.0600 
    192 H192       -4.1889  -23.1524  -42.8265 H         1 UNK         0.0600 
    193 H193       -3.8532  -21.5059  -43.3362 H         1 UNK         0.0600 
    194 H194       -2.5354  -22.6688  -43.1794 H         1 UNK         0.0600 
    195 H195       -1.4792  -24.0225  -45.3473 H         1 UNK         0.3000 
    196 H196       -2.1473  -26.8029  -44.8834 H         1 UNK         0.0600 
    197 H197        0.2475  -27.1709  -45.4213 H         1 UNK         0.0600 
    198 H198        0.0732  -25.8553  -44.2695 H         1 UNK         0.0600 
    199 H199        0.4082  -25.5077  -45.9656 H         1 UNK         0.0600 
    200 H200       -1.4422  -24.7810  -47.7641 H         1 UNK         0.3000 
    201 H201       -1.6961  -26.8575  -49.7104 H         1 UNK         0.0600 
    202 H202       -0.5197  -24.6903  -50.1160 H         1 UNK         0.0600 
    203 H203       -2.0472  -23.8210  -49.9716 H         1 UNK         0.0600 
    204 H204       -1.7913  -24.9405  -51.3025 H         1 UNK         0.0600 
    205 H205       -4.0572  -25.0800  -47.9272 H         1 UNK         0.3000 
    206 H206       -6.2583  -24.9162  -47.8419 H         1 UNK         0.0600 
    207 H207       -6.3170  -27.4156  -47.9498 H         1 UNK         0.0600 
    208 H208       -7.7250  -26.6968  -48.7174 H         1 UNK         0.0600 
    209 H209       -6.4292  -27.3468  -49.7080 H         1 UNK         0.0600 
    210 H210       -5.1822  -23.0566  -49.1834 H         1 UNK         0.3000 
    211 H211       -5.4423  -22.7266  -51.8897 H         1 UNK         0.0600 
    212 H212       -5.5130  -20.6278  -49.6668 H         1 UNK         0.0600 
    213 H213       -5.2021  -20.2623  -51.3566 H         1 UNK         0.0600 
    214 H214       -4.0768  -21.2777  -50.4666 H         1 UNK         0.0600 
    215 H215       -8.0980  -22.4509  -49.6459 H         1 UNK         0.3000 
    216 H216       -9.8837  -20.9121  -51.3124 H         1 UNK         0.0600 
    217 H217      -11.6020  -21.7188  -49.6904 H         1 UNK         0.0600 
    218 H218      -10.1895  -21.0934  -48.8548 H         1 UNK         0.0600 
    219 H219      -10.4375  -22.8352  -48.9880 H         1 UNK         0.0600 
    220 H220       -8.9659  -24.3171  -51.1747 H         1 UNK         0.3000 
    221 H221      -11.1187  -25.1190  -53.0836 H         1 UNK         0.0600 
    222 H222       -9.1957  -26.7960  -51.3827 H         1 UNK         0.0600 
    223 H223      -10.9028  -26.5189  -51.0428 H         1 UNK         0.0600 
    224 H224      -10.4273  -27.4268  -52.4701 H         1 UNK         0.0600 
    225 H225       -7.5901  -25.0274  -52.5463 H         1 UNK         0.3000 
    226 H226       -6.9597  -25.8331  -55.3148 H         1 UNK         0.0600 
    227 H227       -4.6269  -25.8142  -54.4474 H         1 UNK         0.0600 
    228 H228       -5.1815  -25.1700  -52.8998 H         1 UNK         0.0600 
    229 H229       -5.6632  -26.7779  -53.4138 H         1 UNK         0.0600 
    230 H230       -4.6497  -23.6406  -54.2455 H         1 UNK         0.3000 
    231 H231       -5.8985  -21.1582  -55.0270 H         1 UNK         0.0600 
    232 H232       -4.2323  -20.7117  -56.8640 H         1 UNK         0.0600 
    233 H233       -5.2730  -22.0609  -57.2898 H         1 UNK         0.0600 
    234 H234       -3.6276  -22.3588  -56.7305 H         1 UNK         0.0600 
    235 H235       -4.4670  -19.3689  -54.5118 H         1 UNK         0.3000 
    236 H236       -2.9480  -19.7626  -52.1360 H         1 UNK         0.0600 
    237 H237       -3.1593  -17.3316  -53.9924 H         1 UNK         0.0600 
    238 H238       -4.1787  -17.6626  -52.5897 H         1 UNK         0.0600 
    239 H239       -2.4700  -17.3184  -52.3729 H         1 UNK         0.0600 
    240 H240       -0.8294  -20.0897  -51.8001 H         1 UNK         0.3000 
    241 H241        1.2682  -20.6076  -52.0917 H         1 UNK         0.0600 
    242 H242        0.0341  -23.3372  -54.5616 H         1 UNK         0.3800 
    243 H243       -0.9852  -22.2302  -53.6809 H         1 UNK         0.3800 
    244 H244        1.2459  -18.2228  -53.3211 H         1 UNK         0.0800 
    245 H245        1.5753  -19.1526  -54.7416 H         1 UNK         0.0800 
    246 H246        3.2898  -19.9220  -50.9466 H         1 UNK         0.0800 
    247 H247        4.4751  -18.6587  -51.1035 H         1 UNK         0.0800 
@<TRIPOS>BOND
     1    1    2 1    
     2    1  127 1    
     3    1  128 1    
     4    1  129 1    
     5    2    3 2    
     6    2    4 am   BACKBONE|DICT|INTERRES
     7    4    5 1    
     8    4  130 1    
     9    5    6 1    
    10    5   65 1    
    11    5  131 1    
    12    6    7 1    
    13    6  132 1    
    14    6  133 1    
    15    7    8 1    
    16    8    9 1    
    17    8  134 1    
    18    8  135 1    
    19    9   10 ar   
    20    9   14 ar   
    21   10   11 ar   
    22   10  136 1    
    23   11   12 ar   
    24   11  126 1    
    25   12   13 ar   
    26   12  137 1    
    27   13   14 ar   
    28   13   15 1    
    29   14  138 1    
    30   15   16 1    
    31   15  139 1    
    32   15  140 1    
    33   16   17 1    
    34   17   18 1    
    35   17  141 1    
    36   17  142 1    
    37   18   19 1    
    38   18   67 1    
    39   18  143 1    
    40   19   20 am   BACKBONE|DICT|INTERRES
    41   19  144 1    
    42   20   21 2    
    43   20   22 1    
    44   22   23 1    
    45   22   24 1    
    46   22  145 1    
    47   23  146 1    
    48   23  147 1    
    49   23  148 1    
    50   24   25 am   BACKBONE|DICT|INTERRES
    51   24  149 1    
    52   25   26 2    
    53   25   27 1    
    54   27   28 1    
    55   27   29 1    
    56   27  150 1    
    57   28  151 1    
    58   28  152 1    
    59   28  153 1    
    60   29   30 am   BACKBONE|DICT|INTERRES
    61   29  154 1    
    62   30   31 2    
    63   30   32 1    
    64   32   33 1    
    65   32   34 1    
    66   32  155 1    
    67   33  156 1    
    68   33  157 1    
    69   33  158 1    
    70   34   35 am   BACKBONE|DICT|INTERRES
    71   34  159 1    
    72   35   36 2    
    73   35   37 1    
    74   37   38 1    
    75   37   39 1    
    76   37  160 1    
    77   38  161 1    
    78   38  162 1    
    79   38  163 1    
    80   39   40 am   BACKBONE|DICT|INTERRES
    81   39  164 1    
    82   40   41 2    
    83   40   42 1    
    84   42   43 1    
    85   42   44 1    
    86   42  165 1    
    87   43  166 1    
    88   43  167 1    
    89   43  168 1    
    90   44   45 am   BACKBONE|DICT|INTERRES
    91   44  169 1    
    92   45   46 2    
    93   45   47 1    
    94   47   48 1    
    95   47   49 1    
    96   47  170 1    
    97   48  171 1    
    98   48  172 1    
    99   48  173 1    
   100   49   50 am   BACKBONE|DICT|INTERRES
   101   49  174 1    
   102   50   51 2    
   103   50   52 1    
   104   52   53 1    
   105   52   54 1    
   106   52  175 1    
   107   53  176 1    
   108   53  177 1    
   109   53  178 1    
   110   54   55 am   BACKBONE|DICT|INTERRES
   111   54  179 1    
   112   55   56 2    
   113   55   57 1    
   114   57   58 1    
   115   57   59 1    
   116   57  180 1    
   117   58  181 1    
   118   58  182 1    
   119   58  183 1    
   120   59   60 am   BACKBONE|DICT|INTERRES
   121   59  184 1    
   122   60   61 2    
   123   60   62 1    
   124   62   63 1    
   125   62   64 1    
   126   62  185 1    
   127   63  186 1    
   128   63  187 1    
   129   63  188 1    
   130   64   65 am   BACKBONE|DICT|INTERRES
   131   64  189 1    
   132   65   66 2    
   133   67   68 2    
   134   67   69 am   BACKBONE|DICT|INTERRES
   135   69   70 1    
   136   69  190 1    
   137   70   71 1    
   138   70   72 1    
   139   70  191 1    
   140   71  192 1    
   141   71  193 1    
   142   71  194 1    
   143   72   73 2    
   144   72   74 am   BACKBONE|DICT|INTERRES
   145   74   75 1    
   146   74  195 1    
   147   75   76 1    
   148   75   77 1    
   149   75  196 1    
   150   76  197 1    
   151   76  198 1    
   152   76  199 1    
   153   77   78 2    
   154   77   79 am   BACKBONE|DICT|INTERRES
   155   79   80 1    
   156   79  200 1    
   157   80   81 1    
   158   80   82 1    
   159   80  201 1    
   160   81  202 1    
   161   81  203 1    
   162   81  204 1    
   163   82   83 2    
   164   82   84 am   BACKBONE|DICT|INTERRES
   165   84   85 1    
   166   84  205 1    
   167   85   86 1    
   168   85   87 1    
   169   85  206 1    
   170   86  207 1    
   171   86  208 1    
   172   86  209 1    
   173   87   88 2    
   174   87   89 am   BACKBONE|DICT|INTERRES
   175   89   90 1    
   176   89  210 1    
   177   90   91 1    
   178   90   92 1    
   179   90  211 1    
   180   91  212 1    
   181   91  213 1    
   182   91  214 1    
   183   92   93 2    
   184   92   94 am   BACKBONE|DICT|INTERRES
   185   94   95 1    
   186   94  215 1    
   187   95   96 1    
   188   95   97 1    
   189   95  216 1    
   190   96  217 1    
   191   96  218 1    
   192   96  219 1    
   193   97   98 2    
   194   97   99 am   BACKBONE|DICT|INTERRES
   195   99  100 1    
   196   99  220 1    
   197  100  101 1    
   198  100  102 1    
   199  100  221 1    
   200  101  222 1    
   201  101  223 1    
   202  101  224 1    
   203  102  103 2    
   204  102  104 am   BACKBONE|DICT|INTERRES
   205  104  105 1    
   206  104  225 1    
   207  105  106 1    
   208  105  107 1    
   209  105  226 1    
   210  106  227 1    
   211  106  228 1    
   212  106  229 1    
   213  107  108 2    
   214  107  109 am   BACKBONE|DICT|INTERRES
   215  109  110 1    
   216  109  230 1    
   217  110  111 1    
   218  110  112 1    
   219  110  231 1    
   220  111  232 1    
   221  111  233 1    
   222  111  234 1    
   223  112  113 2    
   224  112  114 am   BACKBONE|DICT|INTERRES
   225  114  115 1    
   226  114  235 1    
   227  115  116 1    
   228  115  117 1    
   229  115  236 1    
   230  116  237 1    
   231  116  238 1    
   232  116  239 1    
   233  117  118 2    
   234  117  119 am   BACKBONE|DICT|INTERRES
   235  119  120 1    
   236  119  240 1    
   237  120  121 1    
   238  120  124 1    
   239  120  241 1    
   240  121  122 am   BACKBONE|DICT|INTERRES
   241  121  123 2    
   242  122  242 1    
   243  122  243 1    
   244  124  125 1    
   245  124  244 1    
   246  124  245 1    
   247  125  126 1    
   248  126  246 1    
   249  126  247 1    
@<TRIPOS>SUBSTRUCTURE
     1 UNK         1 GROUP             0       ****    0 ROOT    
