@<TRIPOS>MOLECULE
3R540
247   249    1
SMALL
USER_CHARGES


@<TRIPOS>ATOM
      1 CA          7.1419   -9.7129  -49.3025 C.3       0 UNK        -0.1800 
      2 C           5.9947  -10.5209  -48.7118 C.2       0 UNK         0.5000 
      3 O           5.6068  -10.2863  -47.5669 O.2       0 UNK        -0.5000 
      4 N           5.4596  -11.4749  -49.4833 N.am      1 UNK        -0.5000 
      5 CA          4.3152  -12.3118  -49.1112 C.3       1 UNK         0.1400 
      6 C6          4.1527  -13.5224  -50.0698 C.3       23 UNK        -0.0398 
      7 S7          5.0533  -14.9877  -49.4663 S.3       23 UNK        -0.2404 
      8 C8          3.7694  -15.8044  -48.4615 C.3       23 UNK        -0.0205 
      9 C9          2.7999  -16.6202  -49.3052 C.ar      23 UNK        -0.0193 
     10 C10         1.6046  -16.0586  -49.7639 C.ar      23 UNK        -0.1150 
     11 C11         0.7121  -16.8091  -50.5343 C.ar      23 UNK        -0.0193 
     12 C12         1.0122  -18.1441  -50.8269 C.ar      23 UNK        -0.1150 
     13 C13         2.2057  -18.7186  -50.3742 C.ar      23 UNK        -0.0193 
     14 C14         3.0935  -17.9505  -49.6153 C.ar      23 UNK        -0.1150 
     15 C15         2.5682  -20.1518  -50.7413 C.3       23 UNK        -0.0205 
     16 S16         2.4832  -21.2817  -49.3151 S.3       23 UNK        -0.2404 
     17 C17         0.6846  -21.3677  -49.0617 C.3       23 UNK        -0.0398 
     18 CA          0.2581  -22.5198  -48.1214 C.3       11 UNK         0.1400 
     19 N           0.7046  -22.3327  -46.7355 N.am      11 UNK        -0.5000 
     20 C           0.5462  -23.2380  -45.7570 C.2       10 UNK         0.5000 
     21 O           0.0739  -24.3616  -45.9351 O.2       10 UNK        -0.5000 
     22 CA          0.9193  -22.7996  -44.3285 C.3       10 UNK         0.1400 
     23 CB          2.4358  -22.8779  -44.0985 C.3       10 UNK        -0.1800 
     24 N           0.4310  -21.4566  -44.0108 N.am      10 UNK        -0.5000 
     25 C          -0.8662  -21.1247  -43.9319 C.2       9 UNK         0.5000 
     26 O          -1.7837  -21.9356  -44.0529 O.2       9 UNK        -0.5000 
     27 CA         -1.2009  -19.6341  -43.7335 C.3       9 UNK         0.1400 
     28 CB         -1.1311  -19.2436  -42.2501 C.3       9 UNK        -0.1800 
     29 N          -0.3340  -18.7545  -44.5158 N.am      9 UNK        -0.5000 
     30 C          -0.2778  -18.7382  -45.8549 C.2       8 UNK         0.5000 
     31 O          -1.0001  -19.4176  -46.5818 O.2       8 UNK        -0.5000 
     32 CA          0.8049  -17.8533  -46.4880 C.3       8 UNK         0.1400 
     33 CB          0.3261  -16.4014  -46.5708 C.3       8 UNK        -0.1800 
     34 N           2.0710  -17.9226  -45.7582 N.am      8 UNK        -0.5000 
     35 C           2.8326  -19.0237  -45.6865 C.2       7 UNK         0.5000 
     36 O           2.5541  -20.0820  -46.2457 O.2       7 UNK        -0.5000 
     37 CA          4.0810  -18.9488  -44.7894 C.3       7 UNK         0.1400 
     38 CB          5.2515  -18.2829  -45.5277 C.3       7 UNK        -0.1800 
     39 N           3.8242  -18.2325  -43.5406 N.am      7 UNK        -0.5000 
     40 C           2.9978  -18.6621  -42.5764 C.2       6 UNK         0.5000 
     41 O           2.4193  -19.7478  -42.6060 O.2       6 UNK        -0.5000 
     42 CA          2.7344  -17.6867  -41.4131 C.3       6 UNK         0.1400 
     43 CB          3.7876  -17.8628  -40.3094 C.3       6 UNK        -0.1800 
     44 N           2.7071  -16.2846  -41.8438 N.am      6 UNK        -0.5000 
     45 C           1.7984  -15.7726  -42.6847 C.2       5 UNK         0.5000 
     46 O           0.8785  -16.4321  -43.1729 O.2       5 UNK        -0.5000 
     47 CA          2.0065  -14.3062  -43.1053 C.3       5 UNK         0.1400 
     48 CB          2.9331  -14.2360  -44.3305 C.3       5 UNK        -0.1800 
     49 N           0.7476  -13.6270  -43.4168 N.am      5 UNK        -0.5000 
     50 C          -0.1777  -13.2969  -42.5025 C.2       4 UNK         0.5000 
     51 O          -0.0501  -13.5309  -41.2993 O.2       4 UNK        -0.5000 
     52 CA         -1.4403  -12.5469  -42.9793 C.3       4 UNK         0.1400 
     53 CB         -1.3904  -11.0770  -42.5314 C.3       4 UNK        -0.1800 
     54 N          -1.6373  -12.5801  -44.4276 N.am      4 UNK        -0.5000 
     55 C          -2.1246  -13.6210  -45.1141 C.2       3 UNK         0.5000 
     56 O          -2.5203  -14.6601  -44.5861 O.2       3 UNK        -0.5000 
     57 CA         -2.1776  -13.4846  -46.6512 C.3       3 UNK         0.1400 
     58 CB         -3.6155  -13.2175  -47.1215 C.3       3 UNK        -0.1800 
     59 N          -1.2915  -12.4624  -47.2261 N.am      3 UNK        -0.5000 
     60 C           0.0425  -12.4496  -47.1164 C.2       2 UNK         0.5000 
     61 O           0.6783  -13.2380  -46.4127 O.2       2 UNK        -0.5000 
     62 CA          0.7981  -11.3632  -47.8920 C.3       2 UNK         0.1400 
     63 CB          0.8263  -10.0402  -47.1076 C.3       2 UNK        -0.1800 
     64 N           2.1532  -11.8567  -48.0915 N.am      2 UNK        -0.5000 
     65 C           3.0093  -11.4924  -49.0484 C.2       1 UNK         0.5000 
     66 O           2.7872  -10.6061  -49.8771 O.2       1 UNK        -0.5000 
     67 C          -1.2668  -22.7302  -48.1999 C.2       11 UNK         0.5000 
     68 O          -1.7121  -23.6686  -48.8607 O.2       11 UNK        -0.5000 
     69 N          -2.0329  -21.8832  -47.4973 N.am      12 UNK        -0.5000 
     70 CA         -3.4894  -21.9605  -47.4001 C.3       12 UNK         0.1400 
     71 CB         -4.0264  -20.7765  -46.5828 C.3       12 UNK        -0.1800 
     72 C          -3.9718  -23.2900  -46.8004 C.2       12 UNK         0.5000 
     73 O          -4.8796  -23.9026  -47.3578 O.2       12 UNK        -0.5000 
     74 N          -3.3351  -23.7347  -45.7088 N.am      13 UNK        -0.5000 
     75 CA         -3.6124  -25.0134  -45.0547 C.3       13 UNK         0.1400 
     76 CB         -2.8107  -25.1075  -43.7478 C.3       13 UNK        -0.1800 
     77 C          -3.3274  -26.2260  -45.9602 C.2       13 UNK         0.5000 
     78 O          -4.1284  -27.1610  -45.9878 O.2       13 UNK        -0.5000 
     79 N          -2.2105  -26.1791  -46.6991 N.am      14 UNK        -0.5000 
     80 CA         -1.7978  -27.2205  -47.6398 C.3       14 UNK         0.1400 
     81 CB         -0.3395  -26.9782  -48.0588 C.3       14 UNK        -0.1800 
     82 C          -2.7105  -27.3141  -48.8772 C.2       14 UNK         0.5000 
     83 O          -3.0596  -28.4199  -49.2919 O.2       14 UNK        -0.5000 
     84 N          -3.0769  -26.1577  -49.4436 N.am      15 UNK        -0.5000 
     85 CA         -3.8540  -26.0460  -50.6802 C.3       15 UNK         0.1400 
     86 CB         -3.3944  -24.7856  -51.4248 C.3       15 UNK        -0.1800 
     87 C          -5.3779  -25.9965  -50.4624 C.2       15 UNK         0.5000 
     88 O          -6.1081  -25.8362  -51.4416 O.2       15 UNK        -0.5000 
     89 N          -5.8349  -26.0678  -49.2031 N.am      16 UNK        -0.5000 
     90 CA         -7.2291  -25.9150  -48.7590 C.3       16 UNK         0.1400 
     91 CB         -8.0787  -27.1196  -49.2134 C.3       16 UNK        -0.1800 
     92 C          -7.8403  -24.5549  -49.1718 C.2       16 UNK         0.5000 
     93 O          -9.0146  -24.4788  -49.5365 O.2       16 UNK        -0.5000 
     94 N          -6.9958  -23.5146  -49.1347 N.am      17 UNK        -0.5000 
     95 CA         -7.2227  -22.1212  -49.5299 C.3       17 UNK         0.1400 
     96 CB         -8.2365  -21.4514  -48.5808 C.3       17 UNK        -0.1800 
     97 C          -7.5809  -21.9129  -51.0200 C.2       17 UNK         0.5000 
     98 O          -8.0351  -20.8261  -51.3808 O.2       17 UNK        -0.5000 
     99 N          -7.3789  -22.9370  -51.8618 N.am      18 UNK        -0.5000 
    100 CA        -7.6987  -22.9130  -53.2857 C.3       18 UNK         0.1400 
    101 CB        -8.2858  -24.2760  -53.6999 C.3       18 UNK        -0.1800 
    102 C         -6.4560  -22.5181  -54.0993 C.2       18 UNK         0.5000 
    103 O         -6.2712  -21.3363  -54.3937 O.2       18 UNK        -0.5000 
    104 N         -5.6226  -23.5098  -54.4458 N.am      19 UNK        -0.5000 
    105 CA        -4.4903  -23.3920  -55.3737 C.3       19 UNK         0.1400 
    106 CB        -3.9100  -24.7921  -55.6284 C.3       19 UNK        -0.1800 
    107 C         -3.3772  -22.4176  -54.9382 C.2       19 UNK         0.5000 
    108 O         -2.6269  -21.9396  -55.7897 O.2       19 UNK        -0.5000 
    109 N         -3.2944  -22.1307  -53.6333 N.am      20 UNK        -0.5000 
    110 CA        -2.3599  -21.1681  -53.0522 C.3       20 UNK         0.1400 
    111 CB        -2.2412  -21.4334  -51.5436 C.3       20 UNK        -0.1800 
    112 C         -2.7585  -19.7003  -53.2828 C.2       20 UNK         0.5000 
    113 O         -1.9181  -18.8271  -53.0719 O.2       20 UNK        -0.5000 
    114 N         -4.0282  -19.4408  -53.6341 N.am      21 UNK        -0.5000 
    115 CA        -4.7105  -18.1390  -53.7088 C.3       21 UNK         0.1400 
    116 CB        -4.0220  -17.1754  -54.6947 C.3       21 UNK        -0.1800 
    117 C         -4.9289  -17.4835  -52.3282 C.2       21 UNK         0.5000 
    118 O         -6.0324  -17.0129  -52.0498 O.2       21 UNK        -0.5000 
    119 N         -3.8962  -17.5020  -51.4783 N.am      22 UNK        -0.5000 
    120 CA        -3.9747  -17.2680  -50.0313 C.3       22 UNK         0.1400 
    121 C         -4.8132  -18.3699  -49.3262 C.2       22 UNK         0.5000 
    122 N         -5.6076  -18.0098  -48.3273 N.am      22 UNK        -0.7600 
    123 O         -4.7203  -19.5501  -49.6535 O.2       22 UNK        -0.5000 
    124 C124       -2.5609  -17.1778  -49.3989 C.3       23 UNK        -0.0398 
    125 S125       -1.7208  -15.6182  -49.8342 S.3       23 UNK        -0.2404 
    126 C126       -0.5340  -16.1471  -51.1086 C.3       23 UNK        -0.0205 
    127 H127        7.3860  -10.0349  -50.3152 H         1 UNK         0.0600 
    128 H128        8.0345   -9.8225  -48.6867 H         1 UNK         0.0600 
    129 H129        6.8774   -8.6560  -49.3366 H         1 UNK         0.0600 
    130 H130        5.8124  -11.6051  -50.4203 H         1 UNK         0.3000 
    131 H131        4.5035  -12.6826  -48.1006 H         1 UNK         0.0600 
    132 H132        4.5129  -13.2792  -51.0705 H         1 UNK         0.0800 
    133 H133        3.1091  -13.7990  -50.2129 H         1 UNK         0.0800 
    134 H134        4.2600  -16.4628  -47.7454 H         1 UNK         0.0800 
    135 H135        3.2335  -15.0625  -47.8682 H         1 UNK         0.0800 
    136 H136        1.3616  -15.0331  -49.5259 H         1 UNK         0.1150 
    137 H137        0.3314  -18.7257  -51.4329 H         1 UNK         0.1150 
    138 H138        4.0168  -18.3917  -49.2665 H         1 UNK         0.1150 
    139 H139        1.9270  -20.5231  -51.5422 H         1 UNK         0.0800 
    140 H140        3.5845  -20.1679  -51.1373 H         1 UNK         0.0800 
    141 H141        0.2369  -21.5042  -50.0458 H         1 UNK         0.0800 
    142 H142        0.3330  -20.4047  -48.6894 H         1 UNK         0.0800 
    143 H143        0.7215  -23.4391  -48.4857 H         1 UNK         0.0600 
    144 H144        1.1625  -21.4510  -46.5216 H         1 UNK         0.3000 
    145 H145        0.4416  -23.4956  -43.6358 H         1 UNK         0.0600 
    146 H146        2.8045  -23.8878  -44.2817 H         1 UNK         0.0600 
    147 H147        2.9832  -22.2060  -44.7586 H         1 UNK         0.0600 
    148 H148        2.6922  -22.6187  -43.0712 H         1 UNK         0.0600 
    149 H149        1.1308  -20.7420  -43.8421 H         1 UNK         0.3000 
    150 H150       -2.2252  -19.4747  -44.0761 H         1 UNK         0.0600 
    151 H151       -1.4011  -18.1973  -42.1047 H         1 UNK         0.0600 
    152 H152       -0.1327  -19.3911  -41.8395 H         1 UNK         0.0600 
    153 H153       -1.8212  -19.8450  -41.6572 H         1 UNK         0.0600 
    154 H154        0.2532  -18.1068  -43.9986 H         1 UNK         0.3000 
    155 H155        0.9800  -18.2127  -47.5039 H         1 UNK         0.0600 
    156 H156       -0.5578  -16.3328  -47.2013 H         1 UNK         0.0600 
    157 H157        1.0862  -15.7584  -47.0078 H         1 UNK         0.0600 
    158 H158        0.0633  -15.9929  -45.5955 H         1 UNK         0.0600 
    159 H159        2.3256  -17.1145  -45.2127 H         1 UNK         0.3000 
    160 H160        4.3719  -19.9723  -44.5432 H         1 UNK         0.0600 
    161 H161        5.4174  -18.7463  -46.5014 H         1 UNK         0.0600 
    162 H162        6.1772  -18.3802  -44.9604 H         1 UNK         0.0600 
    163 H163        5.0731  -17.2202  -45.6916 H         1 UNK         0.0600 
    164 H164        4.2681  -17.3336  -43.4280 H         1 UNK         0.3000 
    165 H165        1.7558  -17.9287  -40.9932 H         1 UNK         0.0600 
    166 H166        3.5649  -17.2332  -39.4478 H         1 UNK         0.0600 
    167 H167        3.8143  -18.8950  -39.9576 H         1 UNK         0.0600 
    168 H168        4.7884  -17.6099  -40.6615 H         1 UNK         0.0600 
    169 H169        3.4388  -15.6881  -41.4847 H         1 UNK         0.3000 
    170 H170        2.4830  -13.7712  -42.2811 H         1 UNK         0.0600 
    171 H171        3.0958  -13.2043  -44.6432 H         1 UNK         0.0600 
    172 H172        3.9111  -14.6655  -44.1106 H         1 UNK         0.0600 
    173 H173        2.5200  -14.7797  -45.1801 H         1 UNK         0.0600 
    174 H174        0.5652  -13.4446  -44.3980 H         1 UNK         0.3000 
    175 H175       -2.2997  -13.0192  -42.4987 H         1 UNK         0.0600 
    176 H176       -0.5503  -10.5476  -42.9828 H         1 UNK         0.0600 
    177 H177       -2.3055  -10.5502  -42.8030 H         1 UNK         0.0600 
    178 H178       -1.2833  -11.0001  -41.4486 H         1 UNK         0.0600 
    179 H179       -1.3326  -11.7699  -44.9461 H         1 UNK         0.3000 
    180 H180       -1.8686  -14.4465  -47.0595 H         1 UNK         0.0600 
    181 H181       -3.6850  -13.2421  -48.2094 H         1 UNK         0.0600 
    182 H182       -3.9754  -12.2459  -46.7810 H         1 UNK         0.0600 
    183 H183       -4.3006  -13.9751  -46.7386 H         1 UNK         0.0600 
    184 H184       -1.7382  -11.7650  -47.8039 H         1 UNK         0.3000 
    185 H185        0.3150  -11.2174  -48.8604 H         1 UNK         0.0600 
    186 H186        1.2988  -10.1626  -46.1320 H         1 UNK         0.0600 
    187 H187        1.3758   -9.2707  -47.6500 H         1 UNK         0.0600 
    188 H188       -0.1825   -9.6609  -46.9409 H         1 UNK         0.0600 
    189 H189        2.3840  -12.6149  -47.4603 H         1 UNK         0.3000 
    190 H190       -1.5912  -21.1027  -47.0157 H         1 UNK         0.3000 
    191 H191       -3.8860  -21.8850  -48.4143 H         1 UNK         0.0600 
    192 H192       -3.7156  -20.8269  -45.5399 H         1 UNK         0.0600 
    193 H193       -5.1166  -20.7576  -46.6002 H         1 UNK         0.0600 
    194 H194       -3.6768  -19.8269  -46.9859 H         1 UNK         0.0600 
    195 H195       -2.6253  -23.1464  -45.2799 H         1 UNK         0.3000 
    196 H196       -4.6746  -25.0319  -44.8026 H         1 UNK         0.0600 
    197 H197       -3.0096  -26.0483  -43.2331 H         1 UNK         0.0600 
    198 H198       -3.0760  -24.3004  -43.0647 H         1 UNK         0.0600 
    199 H199       -1.7369  -25.0513  -43.9290 H         1 UNK         0.0600 
    200 H200       -1.5860  -25.3858  -46.5934 H         1 UNK         0.3000 
    201 H201       -1.8434  -28.1802  -47.1208 H         1 UNK         0.0600 
    202 H202        0.3258  -26.9959  -47.1953 H         1 UNK         0.0600 
    203 H203       -0.2168  -26.0141  -48.5535 H         1 UNK         0.0600 
    204 H204        0.0030  -27.7493  -48.7499 H         1 UNK         0.0600 
    205 H205       -2.7111  -25.2881  -49.0619 H         1 UNK         0.3000 
    206 H206       -3.6465  -26.9071  -51.3187 H         1 UNK         0.0600 
    207 H207       -3.8759  -24.7094  -52.3986 H         1 UNK         0.0600 
    208 H208       -3.6413  -23.8859  -50.8610 H         1 UNK         0.0600 
    209 H209       -2.3178  -24.7957  -51.5954 H         1 UNK         0.0600 
    210 H210       -5.1466  -26.1303  -48.4647 H         1 UNK         0.3000 
    211 H211       -7.2038  -25.9182  -47.6684 H         1 UNK         0.0600 
    212 H212       -8.1950  -27.1480  -50.2972 H         1 UNK         0.0600 
    213 H213       -9.0779  -27.0796  -48.7784 H         1 UNK         0.0600 
    214 H214       -7.6267  -28.0605  -48.8997 H         1 UNK         0.0600 
    215 H215       -6.0815  -23.7024  -48.7284 H         1 UNK         0.3000 
    216 H216       -6.2648  -21.6230  -49.3860 H         1 UNK         0.0600 
    217 H217       -8.2989  -20.3785  -48.7664 H         1 UNK         0.0600 
    218 H218       -7.9444  -21.5811  -47.5386 H         1 UNK         0.0600 
    219 H219       -9.2381  -21.8642  -48.7039 H         1 UNK         0.0600 
    220 H220       -7.0040  -23.8048  -51.4980 H         1 UNK         0.3000 
    221 H221       -8.4659  -22.1620  -53.4859 H         1 UNK         0.0600 
    222 H222       -7.6160  -25.1065  -53.4788 H         1 UNK         0.0600 
    223 H223       -9.2234  -24.4669  -53.1774 H         1 UNK         0.0600 
    224 H224       -8.5015  -24.3001  -54.7689 H         1 UNK         0.0600 
    225 H225       -5.8461  -24.4445  -54.1345 H         1 UNK         0.3000 
    226 H226       -4.8865  -23.0148  -56.3186 H         1 UNK         0.0600 
    227 H227       -4.6655  -25.4655  -56.0336 H         1 UNK         0.0600 
    228 H228       -3.0940  -24.7518  -56.3513 H         1 UNK         0.0600 
    229 H229       -3.5155  -25.2395  -54.7158 H         1 UNK         0.0600 
    230 H230       -3.9598  -22.5583  -53.0079 H         1 UNK         0.3000 
    231 H231       -1.3756  -21.3114  -53.5032 H         1 UNK         0.0600 
    232 H232       -3.2172  -21.4535  -51.0572 H         1 UNK         0.0600 
    233 H233       -1.7445  -22.3836  -51.3524 H         1 UNK         0.0600 
    234 H234       -1.6565  -20.6569  -51.0495 H         1 UNK         0.0600 
    235 H235       -4.6430  -20.2346  -53.7827 H         1 UNK         0.3000 
    236 H236       -5.7013  -18.3591  -54.1098 H         1 UNK         0.0600 
    237 H237       -3.0449  -16.8488  -54.3385 H         1 UNK         0.0600 
    238 H238       -3.8862  -17.6410  -55.6709 H         1 UNK         0.0600 
    239 H239       -4.6263  -16.2797  -54.8420 H         1 UNK         0.0600 
    240 H240       -3.0328  -17.9090  -51.8217 H         1 UNK         0.3000 
    241 H241       -4.4851  -16.3147  -49.8802 H         1 UNK         0.0600 
    242 H242       -6.1495  -18.7167  -47.8588 H         1 UNK         0.3800 
    243 H243       -5.7003  -17.0474  -48.0431 H         1 UNK         0.3800 
    244 H244       -2.6259  -17.2050  -48.3094 H         1 UNK         0.0800 
    245 H245       -1.9460  -18.0343  -49.6819 H         1 UNK         0.0800 
    246 H246       -0.2250  -15.2668  -51.6735 H         1 UNK         0.0800 
    247 H247       -1.0326  -16.7979  -51.8245 H         1 UNK         0.0800 
@<TRIPOS>BOND
     1    1    2 1    
     2    1  127 1    
     3    1  128 1    
     4    1  129 1    
     5    2    3 2    
     6    2    4 am   BACKBONE|DICT|INTERRES
     7    4    5 1    
     8    4  130 1    
     9    5    6 1    
    10    5   65 1    
    11    5  131 1    
    12    6    7 1    
    13    6  132 1    
    14    6  133 1    
    15    7    8 1    
    16    8    9 1    
    17    8  134 1    
    18    8  135 1    
    19    9   10 ar   
    20    9   14 ar   
    21   10   11 ar   
    22   10  136 1    
    23   11   12 ar   
    24   11  126 1    
    25   12   13 ar   
    26   12  137 1    
    27   13   14 ar   
    28   13   15 1    
    29   14  138 1    
    30   15   16 1    
    31   15  139 1    
    32   15  140 1    
    33   16   17 1    
    34   17   18 1    
    35   17  141 1    
    36   17  142 1    
    37   18   19 1    
    38   18   67 1    
    39   18  143 1    
    40   19   20 am   BACKBONE|DICT|INTERRES
    41   19  144 1    
    42   20   21 2    
    43   20   22 1    
    44   22   23 1    
    45   22   24 1    
    46   22  145 1    
    47   23  146 1    
    48   23  147 1    
    49   23  148 1    
    50   24   25 am   BACKBONE|DICT|INTERRES
    51   24  149 1    
    52   25   26 2    
    53   25   27 1    
    54   27   28 1    
    55   27   29 1    
    56   27  150 1    
    57   28  151 1    
    58   28  152 1    
    59   28  153 1    
    60   29   30 am   BACKBONE|DICT|INTERRES
    61   29  154 1    
    62   30   31 2    
    63   30   32 1    
    64   32   33 1    
    65   32   34 1    
    66   32  155 1    
    67   33  156 1    
    68   33  157 1    
    69   33  158 1    
    70   34   35 am   BACKBONE|DICT|INTERRES
    71   34  159 1    
    72   35   36 2    
    73   35   37 1    
    74   37   38 1    
    75   37   39 1    
    76   37  160 1    
    77   38  161 1    
    78   38  162 1    
    79   38  163 1    
    80   39   40 am   BACKBONE|DICT|INTERRES
    81   39  164 1    
    82   40   41 2    
    83   40   42 1    
    84   42   43 1    
    85   42   44 1    
    86   42  165 1    
    87   43  166 1    
    88   43  167 1    
    89   43  168 1    
    90   44   45 am   BACKBONE|DICT|INTERRES
    91   44  169 1    
    92   45   46 2    
    93   45   47 1    
    94   47   48 1    
    95   47   49 1    
    96   47  170 1    
    97   48  171 1    
    98   48  172 1    
    99   48  173 1    
   100   49   50 am   BACKBONE|DICT|INTERRES
   101   49  174 1    
   102   50   51 2    
   103   50   52 1    
   104   52   53 1    
   105   52   54 1    
   106   52  175 1    
   107   53  176 1    
   108   53  177 1    
   109   53  178 1    
   110   54   55 am   BACKBONE|DICT|INTERRES
   111   54  179 1    
   112   55   56 2    
   113   55   57 1    
   114   57   58 1    
   115   57   59 1    
   116   57  180 1    
   117   58  181 1    
   118   58  182 1    
   119   58  183 1    
   120   59   60 am   BACKBONE|DICT|INTERRES
   121   59  184 1    
   122   60   61 2    
   123   60   62 1    
   124   62   63 1    
   125   62   64 1    
   126   62  185 1    
   127   63  186 1    
   128   63  187 1    
   129   63  188 1    
   130   64   65 am   BACKBONE|DICT|INTERRES
   131   64  189 1    
   132   65   66 2    
   133   67   68 2    
   134   67   69 am   BACKBONE|DICT|INTERRES
   135   69   70 1    
   136   69  190 1    
   137   70   71 1    
   138   70   72 1    
   139   70  191 1    
   140   71  192 1    
   141   71  193 1    
   142   71  194 1    
   143   72   73 2    
   144   72   74 am   BACKBONE|DICT|INTERRES
   145   74   75 1    
   146   74  195 1    
   147   75   76 1    
   148   75   77 1    
   149   75  196 1    
   150   76  197 1    
   151   76  198 1    
   152   76  199 1    
   153   77   78 2    
   154   77   79 am   BACKBONE|DICT|INTERRES
   155   79   80 1    
   156   79  200 1    
   157   80   81 1    
   158   80   82 1    
   159   80  201 1    
   160   81  202 1    
   161   81  203 1    
   162   81  204 1    
   163   82   83 2    
   164   82   84 am   BACKBONE|DICT|INTERRES
   165   84   85 1    
   166   84  205 1    
   167   85   86 1    
   168   85   87 1    
   169   85  206 1    
   170   86  207 1    
   171   86  208 1    
   172   86  209 1    
   173   87   88 2    
   174   87   89 am   BACKBONE|DICT|INTERRES
   175   89   90 1    
   176   89  210 1    
   177   90   91 1    
   178   90   92 1    
   179   90  211 1    
   180   91  212 1    
   181   91  213 1    
   182   91  214 1    
   183   92   93 2    
   184   92   94 am   BACKBONE|DICT|INTERRES
   185   94   95 1    
   186   94  215 1    
   187   95   96 1    
   188   95   97 1    
   189   95  216 1    
   190   96  217 1    
   191   96  218 1    
   192   96  219 1    
   193   97   98 2    
   194   97   99 am   BACKBONE|DICT|INTERRES
   195   99  100 1    
   196   99  220 1    
   197  100  101 1    
   198  100  102 1    
   199  100  221 1    
   200  101  222 1    
   201  101  223 1    
   202  101  224 1    
   203  102  103 2    
   204  102  104 am   BACKBONE|DICT|INTERRES
   205  104  105 1    
   206  104  225 1    
   207  105  106 1    
   208  105  107 1    
   209  105  226 1    
   210  106  227 1    
   211  106  228 1    
   212  106  229 1    
   213  107  108 2    
   214  107  109 am   BACKBONE|DICT|INTERRES
   215  109  110 1    
   216  109  230 1    
   217  110  111 1    
   218  110  112 1    
   219  110  231 1    
   220  111  232 1    
   221  111  233 1    
   222  111  234 1    
   223  112  113 2    
   224  112  114 am   BACKBONE|DICT|INTERRES
   225  114  115 1    
   226  114  235 1    
   227  115  116 1    
   228  115  117 1    
   229  115  236 1    
   230  116  237 1    
   231  116  238 1    
   232  116  239 1    
   233  117  118 2    
   234  117  119 am   BACKBONE|DICT|INTERRES
   235  119  120 1    
   236  119  240 1    
   237  120  121 1    
   238  120  124 1    
   239  120  241 1    
   240  121  122 am   BACKBONE|DICT|INTERRES
   241  121  123 2    
   242  122  242 1    
   243  122  243 1    
   244  124  125 1    
   245  124  244 1    
   246  124  245 1    
   247  125  126 1    
   248  126  246 1    
   249  126  247 1    
@<TRIPOS>SUBSTRUCTURE
     1 UNK         1 GROUP             0       ****    0 ROOT    
