@<TRIPOS>MOLECULE
3R540
247   249    1
SMALL
USER_CHARGES


@<TRIPOS>ATOM
      1 CA          0.7084  -12.2696  -47.4886 C.3       0 UNK        -0.1800 
      2 C           2.1909  -12.5680  -47.6598 C.2       0 UNK         0.5000 
      3 O           3.0271  -11.8079  -47.1727 O.2       0 UNK        -0.5000 
      4 N           2.5183  -13.6797  -48.3343 N.am      1 UNK        -0.5000 
      5 CA          3.8815  -14.1415  -48.6556 C.3       1 UNK         0.1400 
      6 C6          3.8846  -15.4619  -49.4723 C.3       23 UNK        -0.0398 
      7 S7          2.7252  -15.4692  -50.8833 S.3       23 UNK        -0.2404 
      8 C8          1.2978  -16.3311  -50.1481 C.3       23 UNK        -0.0205 
      9 C9          1.2556  -17.8131  -50.4917 C.ar      23 UNK        -0.0193 
     10 C10         0.2935  -18.2868  -51.3863 C.ar      23 UNK        -0.1150 
     11 C11         0.1750  -19.6538  -51.6527 C.ar      23 UNK        -0.0193 
     12 C12         1.0498  -20.5475  -51.0272 C.ar      23 UNK        -0.1150 
     13 C13         2.0341  -20.0912  -50.1443 C.ar      23 UNK        -0.0193 
     14 C14         2.1333  -18.7186  -49.8866 C.ar      23 UNK        -0.1150 
     15 C15         2.9885  -21.1039  -49.5104 C.3       23 UNK        -0.0205 
     16 S16         3.4963  -20.7594  -47.7855 S.3       23 UNK        -0.2404 
     17 C17         1.9238  -20.4377  -46.9177 C.3       23 UNK        -0.0398 
     18 CA          1.1967  -21.7053  -46.4037 C.3       11 UNK         0.1400 
     19 N           0.3349  -21.4048  -45.2556 N.am      11 UNK        -0.5000 
     20 C          -0.3700  -22.3000  -44.5487 C.2       10 UNK         0.5000 
     21 O          -0.3057  -23.5159  -44.7257 O.2       10 UNK        -0.5000 
     22 CA         -1.3576  -21.7384  -43.5073 C.3       10 UNK         0.1400 
     23 CB         -0.6465  -21.4185  -42.1844 C.3       10 UNK        -0.1800 
     24 N          -2.0668  -20.5522  -43.9937 N.am      10 UNK        -0.5000 
     25 C          -2.9295  -20.5615  -45.0208 C.2       9 UNK         0.5000 
     26 O          -3.2729  -21.5868  -45.6080 O.2       9 UNK        -0.5000 
     27 CA         -3.4586  -19.1998  -45.5100 C.3       9 UNK         0.1400 
     28 CB         -4.6572  -18.7384  -44.6689 C.3       9 UNK        -0.1800 
     29 N          -2.4251  -18.1626  -45.5178 N.am      9 UNK        -0.5000 
     30 C          -1.3409  -18.1879  -46.3056 C.2       8 UNK         0.5000 
     31 O          -1.1382  -19.0592  -47.1491 O.2       8 UNK        -0.5000 
     32 CA         -0.2760  -17.0979  -46.0773 C.3       8 UNK         0.1400 
     33 CB         -0.6446  -15.8015  -46.8110 C.3       8 UNK        -0.1800 
     34 N          -0.0523  -16.8149  -44.6583 N.am      8 UNK        -0.5000 
     35 C           0.4336  -17.7005  -43.7766 C.2       7 UNK         0.5000 
     36 O           0.8209  -18.8245  -44.0896 O.2       7 UNK        -0.5000 
     37 CA          0.4286  -17.2921  -42.2928 C.3       7 UNK         0.1400 
     38 CB          1.6635  -16.4591  -41.9257 C.3       7 UNK        -0.1800 
     39 N          -0.7822  -16.5560  -41.9381 N.am      7 UNK        -0.5000 
     40 C          -1.9982  -17.1113  -41.8479 C.2       6 UNK         0.5000 
     41 O          -2.2163  -18.3106  -42.0184 O.2       6 UNK        -0.5000 
     42 CA         -3.1686  -16.1536  -41.5616 C.3       6 UNK         0.1400 
     43 CB         -3.3104  -15.9068  -40.0524 C.3       6 UNK        -0.1800 
     44 N          -3.0182  -14.8712  -42.2523 N.am      6 UNK        -0.5000 
     45 C          -3.0760  -14.7216  -43.5833 C.2       5 UNK         0.5000 
     46 O          -3.2990  -15.6456  -44.3639 O.2       5 UNK        -0.5000 
     47 CA         -2.7868  -13.3141  -44.1340 C.3       5 UNK         0.1400 
     48 CB         -4.0611  -12.4570  -44.1263 C.3       5 UNK        -0.1800 
     49 N          -1.7269  -12.6212  -43.3964 N.am      5 UNK        -0.5000 
     50 C          -0.4441  -13.0034  -43.3806 C.2       4 UNK         0.5000 
     51 O          -0.0146  -13.9975  -43.9721 O.2       4 UNK        -0.5000 
     52 CA          0.5138  -12.1546  -42.5397 C.3       4 UNK         0.1400 
     53 CB          0.6118  -12.6966  -41.1026 C.3       4 UNK        -0.1800 
     54 N           1.8226  -12.1664  -43.1823 N.am      4 UNK        -0.5000 
     55 C           2.7792  -11.2479  -43.0096 C.2       3 UNK         0.5000 
     56 O           2.6772  -10.3115  -42.2147 O.2       3 UNK        -0.5000 
     57 CA          4.0367  -11.3528  -43.8984 C.3       3 UNK         0.1400 
     58 CB          5.3248  -10.9255  -43.1628 C.3       3 UNK        -0.1800 
     59 N           4.2082  -12.6456  -44.5735 N.am      3 UNK        -0.5000 
     60 C           4.5417  -13.8276  -44.0313 C.2       2 UNK         0.5000 
     61 O           4.6973  -14.0023  -42.8227 O.2       2 UNK        -0.5000 
     62 CA          4.7383  -15.0143  -45.0019 C.3       2 UNK         0.1400 
     63 CB          4.1591  -16.3273  -44.4518 C.3       2 UNK        -0.1800 
     64 N           4.1317  -14.7708  -46.3090 N.am      2 UNK        -0.5000 
     65 C           4.7653  -14.3315  -47.4034 C.2       1 UNK         0.5000 
     66 O           5.9686  -14.0759  -47.4512 O.2       1 UNK        -0.5000 
     67 C           0.4021  -22.3911  -47.5334 C.2       11 UNK         0.5000 
     68 O           0.8160  -23.4456  -48.0144 O.2       11 UNK        -0.5000 
     69 N          -0.7476  -21.8058  -47.8987 N.am      12 UNK        -0.5000 
     70 CA         -1.6775  -22.3386  -48.8924 C.3       12 UNK         0.1400 
     71 CB         -2.8296  -21.3500  -49.1048 C.3       12 UNK        -0.1800 
     72 C          -2.2178  -23.7265  -48.5121 C.2       12 UNK         0.5000 
     73 O          -2.2142  -24.6226  -49.3535 O.2       12 UNK        -0.5000 
     74 N          -2.6180  -23.8963  -47.2440 N.am      13 UNK        -0.5000 
     75 CA         -3.0766  -25.1669  -46.6826 C.3       13 UNK         0.1400 
     76 CB         -3.6005  -24.9455  -45.2560 C.3       13 UNK        -0.1800 
     77 C          -1.9923  -26.2604  -46.7093 C.2       13 UNK         0.5000 
     78 O          -2.2895  -27.3923  -47.0913 O.2       13 UNK        -0.5000 
     79 N          -0.7511  -25.8981  -46.3536 N.am      14 UNK        -0.5000 
     80 CA          0.4225  -26.7737  -46.4154 C.3       14 UNK         0.1400 
     81 CB          1.6068  -26.0966  -45.7091 C.3       14 UNK        -0.1800 
     82 C           0.7990  -27.1731  -47.8558 C.2       14 UNK         0.5000 
     83 O           1.1865  -28.3187  -48.0881 O.2       14 UNK        -0.5000 
     84 N           0.6440  -26.2351  -48.7995 N.am      15 UNK        -0.5000 
     85 CA          0.8287  -26.4430  -50.2376 C.3       15 UNK         0.1400 
     86 CB          1.0084  -25.0727  -50.9135 C.3       15 UNK        -0.1800 
     87 C          -0.3241  -27.2252  -50.9046 C.2       15 UNK         0.5000 
     88 O          -0.1774  -27.6338  -52.0573 O.2       15 UNK        -0.5000 
     89 N          -1.4432  -27.4019  -50.1853 N.am      16 UNK        -0.5000 
     90 CA         -2.7154  -27.9860  -50.6235 C.3       16 UNK         0.1400 
     91 CB         -2.5521  -29.4808  -50.9690 C.3       16 UNK        -0.1800 
     92 C          -3.3898  -27.1663  -51.7459 C.2       16 UNK         0.5000 
     93 O          -4.0029  -27.7352  -52.6516 O.2       16 UNK        -0.5000 
     94 N          -3.2589  -25.8387  -51.6599 N.am      17 UNK        -0.5000 
     95 CA         -3.8300  -24.8584  -52.5747 C.3       17 UNK         0.1400 
     96 CB         -2.7526  -23.8025  -52.8754 C.3       17 UNK        -0.1800 
     97 C          -5.0529  -24.1864  -51.9314 C.2       17 UNK         0.5000 
     98 O          -5.1457  -24.1073  -50.7037 O.2       17 UNK        -0.5000 
     99 N          -5.9518  -23.6653  -52.7751 N.am      18 UNK        -0.5000 
    100 CA        -7.0263  -22.7644  -52.3619 C.3       18 UNK         0.1400 
    101 CB        -8.0829  -22.6841  -53.4750 C.3       18 UNK        -0.1800 
    102 C         -6.4234  -21.3801  -52.0788 C.2       18 UNK         0.5000 
    103 O         -5.8130  -20.8066  -52.9820 O.2       18 UNK        -0.5000 
    104 N         -6.5782  -20.8875  -50.8437 N.am      19 UNK        -0.5000 
    105 CA        -5.9250  -19.6752  -50.3376 C.3       19 UNK         0.1400 
    106 CB        -6.1442  -19.5875  -48.8186 C.3       19 UNK        -0.1800 
    107 C         -6.3702  -18.3672  -51.0185 C.2       19 UNK         0.5000 
    108 O         -5.6039  -17.4041  -51.0401 O.2       19 UNK        -0.5000 
    109 N         -7.6019  -18.3466  -51.5430 N.am      20 UNK        -0.5000 
    110 CA        -8.2203  -17.1691  -52.1531 C.3       20 UNK         0.1400 
    111 CB        -9.7372  -17.3987  -52.2414 C.3       20 UNK        -0.1800 
    112 C         -7.6529  -16.8108  -53.5400 C.2       20 UNK         0.5000 
    113 O         -7.7289  -15.6461  -53.9334 O.2       20 UNK        -0.5000 
    114 N         -7.1343  -17.8094  -54.2675 N.am      21 UNK        -0.5000 
    115 CA        -6.6438  -17.6625  -55.6384 C.3       21 UNK         0.1400 
    116 CB        -6.6437  -19.0203  -56.3593 C.3       21 UNK        -0.1800 
    117 C         -5.3233  -16.8620  -55.7742 C.2       21 UNK         0.5000 
    118 O         -5.3245  -15.8756  -56.5094 O.2       21 UNK        -0.5000 
    119 N         -4.2176  -17.1810  -55.0825 N.am      22 UNK        -0.5000 
    120 CA        -3.8959  -18.4264  -54.3740 C.3       22 UNK         0.1400 
    121 C         -3.4755  -19.5489  -55.3643 C.2       22 UNK         0.5000 
    122 N         -3.9273  -20.7733  -55.1367 N.am      22 UNK        -0.7600 
    123 O         -2.7284  -19.3207  -56.3131 O.2       22 UNK        -0.5000 
    124 C124       -2.7978  -18.1778  -53.3086 C.3       23 UNK        -0.0398 
    125 S125       -2.5623  -19.6012  -52.1854 S.3       23 UNK        -0.2404 
    126 C126       -0.8859  -20.1723  -52.6174 C.3       23 UNK        -0.0205 
    127 H127        0.4207  -12.3874  -46.4439 H         1 UNK         0.0600 
    128 H128        0.0885  -12.9331  -48.0917 H         1 UNK         0.0600 
    129 H129        0.4952  -11.2436  -47.7882 H         1 UNK         0.0600 
    130 H130        1.7800  -14.2284  -48.7480 H         1 UNK         0.3000 
    131 H131        4.3424  -13.3620  -49.2657 H         1 UNK         0.0600 
    132 H132        4.8844  -15.6475  -49.8692 H         1 UNK         0.0800 
    133 H133        3.6637  -16.3128  -48.8276 H         1 UNK         0.0800 
    134 H134        0.3879  -15.8394  -50.4959 H         1 UNK         0.0800 
    135 H135        1.2992  -16.2193  -49.0642 H         1 UNK         0.0800 
    136 H136       -0.3833  -17.5900  -51.8583 H         1 UNK         0.1150 
    137 H137        0.9685  -21.6058  -51.2329 H         1 UNK         0.1150 
    138 H138        2.8853  -18.3605  -49.2010 H         1 UNK         0.1150 
    139 H139        2.5548  -22.1036  -49.5456 H         1 UNK         0.0800 
    140 H140        3.8879  -21.1494  -50.1253 H         1 UNK         0.0800 
    141 H141        1.2719  -19.8176  -47.5306 H         1 UNK         0.0800 
    142 H142        2.1951  -19.8095  -46.0693 H         1 UNK         0.0800 
    143 H143        1.9471  -22.4144  -46.0480 H         1 UNK         0.0600 
    144 H144        0.2702  -20.4274  -44.9862 H         1 UNK         0.3000 
    145 H145       -2.1026  -22.5112  -43.3078 H         1 UNK         0.0600 
    146 H146       -1.3523  -21.0623  -41.4338 H         1 UNK         0.0600 
    147 H147       -0.1613  -22.3076  -41.7798 H         1 UNK         0.0600 
    148 H148        0.1213  -20.6559  -42.3092 H         1 UNK         0.0600 
    149 H149       -1.8807  -19.6766  -43.5168 H         1 UNK         0.3000 
    150 H150       -3.8022  -19.3315  -46.5381 H         1 UNK         0.0600 
    151 H151       -5.4520  -19.4852  -44.6812 H         1 UNK         0.0600 
    152 H152       -5.0766  -17.8103  -45.0578 H         1 UNK         0.0600 
    153 H153       -4.3804  -18.5700  -43.6284 H         1 UNK         0.0600 
    154 H154       -2.5647  -17.3704  -44.8977 H         1 UNK         0.3000 
    155 H155        0.6638  -17.4644  -46.4955 H         1 UNK         0.0600 
    156 H156       -1.5543  -15.3560  -46.4103 H         1 UNK         0.0600 
    157 H157        0.1537  -15.0658  -46.7242 H         1 UNK         0.0600 
    158 H158       -0.8138  -15.9853  -47.8724 H         1 UNK         0.0600 
    159 H159       -0.2907  -15.8818  -44.3358 H         1 UNK         0.3000 
    160 H160        0.4557  -18.2066  -41.6965 H         1 UNK         0.0600 
    161 H161        1.7336  -15.5477  -42.5199 H         1 UNK         0.0600 
    162 H162        2.5757  -17.0336  -42.0862 H         1 UNK         0.0600 
    163 H163        1.6482  -16.1737  -40.8739 H         1 UNK         0.0600 
    164 H164       -0.6940  -15.5585  -41.8218 H         1 UNK         0.3000 
    165 H165       -4.0846  -16.6295  -41.9185 H         1 UNK         0.0600 
    166 H166       -4.1804  -15.2870  -39.8346 H         1 UNK         0.0600 
    167 H167       -3.4398  -16.8469  -39.5144 H         1 UNK         0.0600 
    168 H168       -2.4317  -15.4100  -39.6391 H         1 UNK         0.0600 
    169 H169       -2.8356  -14.0596  -41.6810 H         1 UNK         0.3000 
    170 H170       -2.4590  -13.4245  -45.1697 H         1 UNK         0.0600 
    171 H171       -4.8615  -12.9435  -44.6856 H         1 UNK         0.0600 
    172 H172       -4.4265  -12.2840  -43.1133 H         1 UNK         0.0600 
    173 H173       -3.8860  -11.4865  -44.5909 H         1 UNK         0.0600 
    174 H174       -2.0018  -11.7962  -42.8825 H         1 UNK         0.3000 
    175 H175        0.1369  -11.1298  -42.5169 H         1 UNK         0.0600 
    176 H176        1.0325  -13.7013  -41.0786 H         1 UNK         0.0600 
    177 H177        1.2424  -12.0596  -40.4824 H         1 UNK         0.0600 
    178 H178       -0.3696  -12.7373  -40.6287 H         1 UNK         0.0600 
    179 H179        1.9518  -12.9018  -43.8644 H         1 UNK         0.3000 
    180 H180        3.8779  -10.6321  -44.7018 H         1 UNK         0.0600 
    181 H181        5.5126  -11.5385  -42.2811 H         1 UNK         0.0600 
    182 H182        5.2591   -9.8896  -42.8283 H         1 UNK         0.0600 
    183 H183        6.1949  -10.9979  -43.8153 H         1 UNK         0.0600 
    184 H184        4.0617  -12.6094  -45.5768 H         1 UNK         0.3000 
    185 H185        5.8163  -15.1480  -45.1125 H         1 UNK         0.0600 
    186 H186        4.5573  -16.5588  -43.4634 H         1 UNK         0.0600 
    187 H187        3.0737  -16.2795  -44.3784 H         1 UNK         0.0600 
    188 H188        4.4076  -17.1665  -45.1018 H         1 UNK         0.0600 
    189 H189        3.1355  -14.9215  -46.3705 H         1 UNK         0.3000 
    190 H190       -0.9922  -20.9089  -47.4861 H         1 UNK         0.3000 
    191 H191       -1.1327  -22.4332  -49.8335 H         1 UNK         0.0600 
    192 H192       -3.4504  -21.2526  -48.2156 H         1 UNK         0.0600 
    193 H193       -3.4738  -21.6812  -49.9203 H         1 UNK         0.0600 
    194 H194       -2.4559  -20.3580  -49.3568 H         1 UNK         0.0600 
    195 H195       -2.6318  -23.0907  -46.6242 H         1 UNK         0.3000 
    196 H196       -3.9096  -25.5131  -47.2982 H         1 UNK         0.0600 
    197 H197       -3.9816  -25.8750  -44.8316 H         1 UNK         0.0600 
    198 H198       -4.4167  -24.2230  -45.2439 H         1 UNK         0.0600 
    199 H199       -2.8190  -24.5773  -44.5916 H         1 UNK         0.0600 
    200 H200       -0.5956  -24.9541  -46.0099 H         1 UNK         0.3000 
    201 H201        0.1834  -27.6895  -45.8711 H         1 UNK         0.0600 
    202 H202        1.3729  -25.8829  -44.6660 H         1 UNK         0.0600 
    203 H203        1.8789  -25.1561  -46.1888 H         1 UNK         0.0600 
    204 H204        2.4882  -26.7388  -45.7205 H         1 UNK         0.0600 
    205 H205        0.3916  -25.2942  -48.5094 H         1 UNK         0.3000 
    206 H206        1.7437  -27.0193  -50.3879 H         1 UNK         0.0600 
    207 H207        1.8528  -24.5303  -50.4880 H         1 UNK         0.0600 
    208 H208        1.1981  -25.1828  -51.9818 H         1 UNK         0.0600 
    209 H209        0.1206  -24.4499  -50.8014 H         1 UNK         0.0600 
    210 H210       -1.4589  -26.9948  -49.2590 H         1 UNK         0.3000 
    211 H211       -3.3838  -27.9212  -49.7639 H         1 UNK         0.0600 
    212 H212       -1.9502  -29.6283  -51.8659 H         1 UNK         0.0600 
    213 H213       -3.5214  -29.9477  -51.1469 H         1 UNK         0.0600 
    214 H214       -2.0766  -30.0236  -50.1520 H         1 UNK         0.0600 
    215 H215       -2.8155  -25.4483  -50.8287 H         1 UNK         0.3000 
    216 H216       -4.1319  -25.3350  -53.5095 H         1 UNK         0.0600 
    217 H217       -3.1205  -23.0509  -53.5740 H         1 UNK         0.0600 
    218 H218       -1.8680  -24.2573  -53.3216 H         1 UNK         0.0600 
    219 H219       -2.4384  -23.2802  -51.9706 H         1 UNK         0.0600 
    220 H220       -5.7945  -23.7422  -53.7693 H         1 UNK         0.3000 
    221 H221       -7.5017  -23.1539  -51.4591 H         1 UNK         0.0600 
    222 H222       -7.6627  -22.3059  -54.4081 H         1 UNK         0.0600 
    223 H223       -8.5172  -23.6635  -53.6765 H         1 UNK         0.0600 
    224 H224       -8.8989  -22.0190  -53.1899 H         1 UNK         0.0600 
    225 H225       -7.0894  -21.4329  -50.1649 H         1 UNK         0.3000 
    226 H226       -4.8554  -19.7784  -50.5142 H         1 UNK         0.0600 
    227 H227       -5.7694  -20.4761  -48.3107 H         1 UNK         0.0600 
    228 H228       -5.6189  -18.7291  -48.3973 H         1 UNK         0.0600 
    229 H229       -7.2008  -19.4804  -48.5706 H         1 UNK         0.0600 
    230 H230       -8.1659  -19.1812  -51.4790 H         1 UNK         0.3000 
    231 H231       -8.0458  -16.3128  -51.4978 H         1 UNK         0.0600 
    232 H232      -10.2405  -16.5289  -52.6660 H         1 UNK         0.0600 
    233 H233      -10.1686  -17.5718  -51.2553 H         1 UNK         0.0600 
    234 H234       -9.9786  -18.2567  -52.8701 H         1 UNK         0.0600 
    235 H235       -7.0790  -18.7299  -53.8547 H         1 UNK         0.3000 
    236 H236       -7.3884  -17.0629  -56.1674 H         1 UNK         0.0600 
    237 H237       -7.6461  -19.2671  -56.7094 H         1 UNK         0.0600 
    238 H238       -5.9903  -19.0148  -57.2328 H         1 UNK         0.0600 
    239 H239       -6.3318  -19.8327  -55.7065 H         1 UNK         0.0600 
    240 H240       -3.4190  -16.5809  -55.2203 H         1 UNK         0.3000 
    241 H241       -4.7858  -18.7418  -53.8391 H         1 UNK         0.0600 
    242 H242       -4.5465  -20.9433  -54.3471 H         1 UNK         0.3800 
    243 H243       -3.6676  -21.5249  -55.7540 H         1 UNK         0.3800 
    244 H244       -1.8538  -17.9007  -53.7802 H         1 UNK         0.0800 
    245 H245       -3.0820  -17.3288  -52.6851 H         1 UNK         0.0800 
    246 H246       -0.8983  -21.2629  -52.6110 H         1 UNK         0.0800 
    247 H247       -0.6299  -19.8811  -53.6366 H         1 UNK         0.0800 
@<TRIPOS>BOND
     1    1    2 1    
     2    1  127 1    
     3    1  128 1    
     4    1  129 1    
     5    2    3 2    
     6    2    4 am   BACKBONE|DICT|INTERRES
     7    4    5 1    
     8    4  130 1    
     9    5    6 1    
    10    5   65 1    
    11    5  131 1    
    12    6    7 1    
    13    6  132 1    
    14    6  133 1    
    15    7    8 1    
    16    8    9 1    
    17    8  134 1    
    18    8  135 1    
    19    9   10 ar   
    20    9   14 ar   
    21   10   11 ar   
    22   10  136 1    
    23   11   12 ar   
    24   11  126 1    
    25   12   13 ar   
    26   12  137 1    
    27   13   14 ar   
    28   13   15 1    
    29   14  138 1    
    30   15   16 1    
    31   15  139 1    
    32   15  140 1    
    33   16   17 1    
    34   17   18 1    
    35   17  141 1    
    36   17  142 1    
    37   18   19 1    
    38   18   67 1    
    39   18  143 1    
    40   19   20 am   BACKBONE|DICT|INTERRES
    41   19  144 1    
    42   20   21 2    
    43   20   22 1    
    44   22   23 1    
    45   22   24 1    
    46   22  145 1    
    47   23  146 1    
    48   23  147 1    
    49   23  148 1    
    50   24   25 am   BACKBONE|DICT|INTERRES
    51   24  149 1    
    52   25   26 2    
    53   25   27 1    
    54   27   28 1    
    55   27   29 1    
    56   27  150 1    
    57   28  151 1    
    58   28  152 1    
    59   28  153 1    
    60   29   30 am   BACKBONE|DICT|INTERRES
    61   29  154 1    
    62   30   31 2    
    63   30   32 1    
    64   32   33 1    
    65   32   34 1    
    66   32  155 1    
    67   33  156 1    
    68   33  157 1    
    69   33  158 1    
    70   34   35 am   BACKBONE|DICT|INTERRES
    71   34  159 1    
    72   35   36 2    
    73   35   37 1    
    74   37   38 1    
    75   37   39 1    
    76   37  160 1    
    77   38  161 1    
    78   38  162 1    
    79   38  163 1    
    80   39   40 am   BACKBONE|DICT|INTERRES
    81   39  164 1    
    82   40   41 2    
    83   40   42 1    
    84   42   43 1    
    85   42   44 1    
    86   42  165 1    
    87   43  166 1    
    88   43  167 1    
    89   43  168 1    
    90   44   45 am   BACKBONE|DICT|INTERRES
    91   44  169 1    
    92   45   46 2    
    93   45   47 1    
    94   47   48 1    
    95   47   49 1    
    96   47  170 1    
    97   48  171 1    
    98   48  172 1    
    99   48  173 1    
   100   49   50 am   BACKBONE|DICT|INTERRES
   101   49  174 1    
   102   50   51 2    
   103   50   52 1    
   104   52   53 1    
   105   52   54 1    
   106   52  175 1    
   107   53  176 1    
   108   53  177 1    
   109   53  178 1    
   110   54   55 am   BACKBONE|DICT|INTERRES
   111   54  179 1    
   112   55   56 2    
   113   55   57 1    
   114   57   58 1    
   115   57   59 1    
   116   57  180 1    
   117   58  181 1    
   118   58  182 1    
   119   58  183 1    
   120   59   60 am   BACKBONE|DICT|INTERRES
   121   59  184 1    
   122   60   61 2    
   123   60   62 1    
   124   62   63 1    
   125   62   64 1    
   126   62  185 1    
   127   63  186 1    
   128   63  187 1    
   129   63  188 1    
   130   64   65 am   BACKBONE|DICT|INTERRES
   131   64  189 1    
   132   65   66 2    
   133   67   68 2    
   134   67   69 am   BACKBONE|DICT|INTERRES
   135   69   70 1    
   136   69  190 1    
   137   70   71 1    
   138   70   72 1    
   139   70  191 1    
   140   71  192 1    
   141   71  193 1    
   142   71  194 1    
   143   72   73 2    
   144   72   74 am   BACKBONE|DICT|INTERRES
   145   74   75 1    
   146   74  195 1    
   147   75   76 1    
   148   75   77 1    
   149   75  196 1    
   150   76  197 1    
   151   76  198 1    
   152   76  199 1    
   153   77   78 2    
   154   77   79 am   BACKBONE|DICT|INTERRES
   155   79   80 1    
   156   79  200 1    
   157   80   81 1    
   158   80   82 1    
   159   80  201 1    
   160   81  202 1    
   161   81  203 1    
   162   81  204 1    
   163   82   83 2    
   164   82   84 am   BACKBONE|DICT|INTERRES
   165   84   85 1    
   166   84  205 1    
   167   85   86 1    
   168   85   87 1    
   169   85  206 1    
   170   86  207 1    
   171   86  208 1    
   172   86  209 1    
   173   87   88 2    
   174   87   89 am   BACKBONE|DICT|INTERRES
   175   89   90 1    
   176   89  210 1    
   177   90   91 1    
   178   90   92 1    
   179   90  211 1    
   180   91  212 1    
   181   91  213 1    
   182   91  214 1    
   183   92   93 2    
   184   92   94 am   BACKBONE|DICT|INTERRES
   185   94   95 1    
   186   94  215 1    
   187   95   96 1    
   188   95   97 1    
   189   95  216 1    
   190   96  217 1    
   191   96  218 1    
   192   96  219 1    
   193   97   98 2    
   194   97   99 am   BACKBONE|DICT|INTERRES
   195   99  100 1    
   196   99  220 1    
   197  100  101 1    
   198  100  102 1    
   199  100  221 1    
   200  101  222 1    
   201  101  223 1    
   202  101  224 1    
   203  102  103 2    
   204  102  104 am   BACKBONE|DICT|INTERRES
   205  104  105 1    
   206  104  225 1    
   207  105  106 1    
   208  105  107 1    
   209  105  226 1    
   210  106  227 1    
   211  106  228 1    
   212  106  229 1    
   213  107  108 2    
   214  107  109 am   BACKBONE|DICT|INTERRES
   215  109  110 1    
   216  109  230 1    
   217  110  111 1    
   218  110  112 1    
   219  110  231 1    
   220  111  232 1    
   221  111  233 1    
   222  111  234 1    
   223  112  113 2    
   224  112  114 am   BACKBONE|DICT|INTERRES
   225  114  115 1    
   226  114  235 1    
   227  115  116 1    
   228  115  117 1    
   229  115  236 1    
   230  116  237 1    
   231  116  238 1    
   232  116  239 1    
   233  117  118 2    
   234  117  119 am   BACKBONE|DICT|INTERRES
   235  119  120 1    
   236  119  240 1    
   237  120  121 1    
   238  120  124 1    
   239  120  241 1    
   240  121  122 am   BACKBONE|DICT|INTERRES
   241  121  123 2    
   242  122  242 1    
   243  122  243 1    
   244  124  125 1    
   245  124  244 1    
   246  124  245 1    
   247  125  126 1    
   248  126  246 1    
   249  126  247 1    
@<TRIPOS>SUBSTRUCTURE
     1 UNK         1 GROUP             0       ****    0 ROOT    
