@<TRIPOS>MOLECULE
3R540
247   249    1
SMALL
USER_CHARGES


@<TRIPOS>ATOM
      1 CA         -1.6436  -16.4291  -48.4629 C.3       0 UNK        -0.1800 
      2 C          -0.7477  -15.2019  -48.5639 C.2       0 UNK         0.5000 
      3 O          -1.0836  -14.1507  -48.0195 O.2       0 UNK        -0.5000 
      4 N           0.3907  -15.3299  -49.2578 N.am      1 UNK        -0.5000 
      5 CA          1.3883  -14.2727  -49.4764 C.3       1 UNK         0.1400 
      6 C6          2.2706  -14.5365  -50.7282 C.3       23 UNK        -0.0398 
      7 S7          1.3299  -14.7020  -52.2855 S.3       23 UNK        -0.2404 
      8 C8          2.1328  -16.1473  -53.0614 C.3       23 UNK        -0.0205 
      9 C9          1.4105  -17.4547  -52.7595 C.ar      23 UNK        -0.0193 
     10 C10         0.8730  -18.2188  -53.8003 C.ar      23 UNK        -0.1150 
     11 C11         0.2055  -19.4190  -53.5346 C.ar      23 UNK        -0.0193 
     12 C12         0.0638  -19.8475  -52.2104 C.ar      23 UNK        -0.1150 
     13 C13         0.6082  -19.0996  -51.1618 C.ar      23 UNK        -0.0193 
     14 C14         1.2915  -17.9155  -51.4460 C.ar      23 UNK        -0.1150 
     15 C15         0.4329  -19.5441  -49.7188 C.3       23 UNK        -0.0205 
     16 S16         2.0231  -19.9056  -48.9022 S.3       23 UNK        -0.2404 
     17 C17         1.5000  -19.9775  -47.1510 C.3       23 UNK        -0.0398 
     18 CA          1.1955  -21.4068  -46.6381 C.3       11 UNK         0.1400 
     19 N           0.9584  -21.4287  -45.1934 N.am      11 UNK        -0.5000 
     20 C           0.7736  -22.5369  -44.4608 C.2       10 UNK         0.5000 
     21 O           0.8687  -23.6801  -44.9079 O.2       10 UNK        -0.5000 
     22 CA          0.3487  -22.3327  -42.9961 C.3       10 UNK         0.1400 
     23 CB          1.5630  -22.0104  -42.1131 C.3       10 UNK        -0.1800 
     24 N          -0.6700  -21.2902  -42.8484 N.am      10 UNK        -0.5000 
     25 C          -1.8977  -21.3523  -43.3857 C.2       9 UNK         0.5000 
     26 O          -2.3139  -22.3184  -44.0236 O.2       9 UNK        -0.5000 
     27 CA         -2.8016  -20.1182  -43.2220 C.3       9 UNK         0.1400 
     28 CB         -3.4580  -20.1048  -41.8337 C.3       9 UNK        -0.1800 
     29 N          -2.0905  -18.8600  -43.4478 N.am      9 UNK        -0.5000 
     30 C          -1.5447  -18.4896  -44.6152 C.2       8 UNK         0.5000 
     31 O          -1.6167  -19.1562  -45.6475 O.2       8 UNK        -0.5000 
     32 CA         -0.7266  -17.1849  -44.6152 C.3       8 UNK         0.1400 
     33 CB         -1.6402  -15.9519  -44.6725 C.3       8 UNK        -0.1800 
     34 N           0.1607  -17.0890  -43.4571 N.am      8 UNK        -0.5000 
     35 C           1.1689  -17.9364  -43.2060 C.2       7 UNK         0.5000 
     36 O           1.4925  -18.8577  -43.9559 O.2       7 UNK        -0.5000 
     37 CA          1.9037  -17.7553  -41.8679 C.3       7 UNK         0.1400 
     38 CB          2.9708  -16.6573  -41.9700 C.3       7 UNK        -0.1800 
     39 N           0.9797  -17.4463  -40.7765 N.am      7 UNK        -0.5000 
     40 C           0.1047  -18.3215  -40.2614 C.2       6 UNK         0.5000 
     41 O           0.0076  -19.4902  -40.6334 O.2       6 UNK        -0.5000 
     42 CA         -0.8499  -17.7879  -39.1786 C.3       6 UNK         0.1400 
     43 CB         -0.1613  -17.7750  -37.8058 C.3       6 UNK        -0.1800 
     44 N          -1.3515  -16.4476  -39.4843 N.am      6 UNK        -0.5000 
     45 C          -2.1555  -16.1576  -40.5172 C.2       5 UNK         0.5000 
     46 O          -2.5829  -16.9974  -41.3072 O.2       5 UNK        -0.5000 
     47 CA         -2.5032  -14.6737  -40.7298 C.3       5 UNK         0.1400 
     48 CB         -3.7399  -14.2856  -39.9061 C.3       5 UNK        -0.1800 
     49 N          -1.3982  -13.7680  -40.4059 N.am      5 UNK        -0.5000 
     50 C          -0.2192  -13.7506  -41.0402 C.2       4 UNK         0.5000 
     51 O           0.0871  -14.5298  -41.9466 O.2       4 UNK        -0.5000 
     52 CA          0.8057  -12.7181  -40.5504 C.3       4 UNK         0.1400 
     53 CB          1.9430  -13.4051  -39.7785 C.3       4 UNK        -0.1800 
     54 N           1.3617  -11.9946  -41.6890 N.am      4 UNK        -0.5000 
     55 C           0.7912  -10.9238  -42.2566 C.2       3 UNK         0.5000 
     56 O          -0.2292  -10.3829  -41.8280 O.2       3 UNK        -0.5000 
     57 CA          1.4759  -10.3616  -43.5162 C.3       3 UNK         0.1400 
     58 CB          2.5284   -9.3095  -43.1333 C.3       3 UNK        -0.1800 
     59 N           2.1101  -11.4050  -44.3252 N.am      3 UNK        -0.5000 
     60 C           1.4393  -12.2533  -45.1141 C.2       2 UNK         0.5000 
     61 O           0.2157  -12.2314  -45.2670 O.2       2 UNK        -0.5000 
     62 CA          2.2806  -13.3056  -45.8461 C.3       2 UNK         0.1400 
     63 CB          2.4536  -14.5669  -44.9850 C.3       2 UNK        -0.1800 
     64 N           1.6291  -13.6473  -47.1057 N.am      2 UNK        -0.5000 
     65 C           2.2580  -14.0459  -48.2151 C.2       1 UNK         0.5000 
     66 O           3.4745  -14.2411  -48.2606 O.2       1 UNK        -0.5000 
     67 C           0.0225  -22.0526  -47.4006 C.2       11 UNK         0.5000 
     68 O           0.2542  -22.9479  -48.2113 O.2       11 UNK        -0.5000 
     69 N          -1.2102  -21.6072  -47.1146 N.am      12 UNK        -0.5000 
     70 CA         -2.4321  -22.1091  -47.7437 C.3       12 UNK         0.1400 
     71 CB         -3.6376  -21.2803  -47.2778 C.3       12 UNK        -0.1800 
     72 C          -2.6664  -23.6108  -47.5017 C.2       12 UNK         0.5000 
     73 O          -3.0844  -24.3104  -48.4221 O.2       12 UNK        -0.5000 
     74 N          -2.3538  -24.0887  -46.2899 N.am      13 UNK        -0.5000 
     75 CA         -2.3835  -25.5040  -45.9261 C.3       13 UNK         0.1400 
     76 CB         -2.2107  -25.6498  -44.4066 C.3       13 UNK        -0.1800 
     77 C          -1.3269  -26.3311  -46.6820 C.2       13 UNK         0.5000 
     78 O          -1.6532  -27.4038  -47.1903 O.2       13 UNK        -0.5000 
     79 N          -0.0924  -25.8135  -46.7627 N.am      14 UNK        -0.5000 
     80 CA          1.0319  -26.4477  -47.4553 C.3       14 UNK         0.1400 
     81 CB          2.3349  -25.7176  -47.0948 C.3       14 UNK        -0.1800 
     82 C           0.8447  -26.5075  -48.9827 C.2       14 UNK         0.5000 
     83 O           1.1220  -27.5424  -49.5901 O.2       14 UNK        -0.5000 
     84 N           0.3622  -25.4059  -49.5717 N.am      15 UNK        -0.5000 
     85 CA          0.0619  -25.2810  -50.9998 C.3       15 UNK         0.1400 
     86 CB          0.0095  -23.7880  -51.3627 C.3       15 UNK        -0.1800 
     87 C          -1.2466  -25.9852  -51.4138 C.2       15 UNK         0.5000 
     88 O          -1.4607  -26.1982  -52.6073 O.2       15 UNK        -0.5000 
     89 N          -2.0956  -26.3138  -50.4286 N.am      16 UNK        -0.5000 
     90 CA         -3.4341  -26.9070  -50.5394 C.3       16 UNK         0.1400 
     91 CB         -3.3778  -28.2986  -51.2028 C.3       16 UNK        -0.1800 
     92 C          -4.4779  -25.9715  -51.1908 C.2       16 UNK         0.5000 
     93 O          -5.5338  -26.4374  -51.6226 O.2       16 UNK        -0.5000 
     94 N          -4.1793  -24.6692  -51.2199 N.am      17 UNK        -0.5000 
     95 CA         -5.0029  -23.5779  -51.7198 C.3       17 UNK         0.1400 
     96 CB         -5.1532  -23.6591  -53.2490 C.3       17 UNK        -0.1800 
     97 C          -4.3260  -22.2618  -51.3176 C.2       17 UNK         0.5000 
     98 O          -3.0952  -22.1906  -51.2977 O.2       17 UNK        -0.5000 
     99 N          -5.1352  -21.2409  -51.0180 N.am      18 UNK        -0.5000 
    100 CA        -4.6723  -19.8871  -50.7132 C.3       18 UNK         0.1400 
    101 CB        -5.8166  -19.1200  -50.0320 C.3       18 UNK        -0.1800 
    102 C         -4.2013  -19.1449  -51.9775 C.2       18 UNK         0.5000 
    103 O         -4.5497  -19.5442  -53.0922 O.2       18 UNK        -0.5000 
    104 N         -3.4703  -18.0400  -51.7706 N.am      19 UNK        -0.5000 
    105 CA        -2.8789  -17.1837  -52.8089 C.3       19 UNK         0.1400 
    106 CB        -2.0825  -16.0566  -52.1369 C.3       19 UNK        -0.1800 
    107 C         -3.8757  -16.5918  -53.8264 C.2       19 UNK         0.5000 
    108 O         -3.4772  -16.2375  -54.9360 O.2       19 UNK        -0.5000 
    109 N         -5.1524  -16.4979  -53.4351 N.am      20 UNK        -0.5000 
    110 CA        -6.2577  -16.0590  -54.2843 C.3       20 UNK         0.1400 
    111 CB        -7.4464  -15.6901  -53.3824 C.3       20 UNK        -0.1800 
    112 C         -6.6862  -17.1050  -55.3356 C.2       20 UNK         0.5000 
    113 O         -7.3942  -16.7389  -56.2752 O.2       20 UNK        -0.5000 
    114 N         -6.2861  -18.3724  -55.1586 N.am      21 UNK        -0.5000 
    115 CA        -6.6840  -19.4950  -56.0051 C.3       21 UNK         0.1400 
    116 CB        -7.5922  -20.4386  -55.1969 C.3       21 UNK        -0.1800 
    117 C         -5.4632  -20.2417  -56.5616 C.2       21 UNK         0.5000 
    118 O         -5.3330  -20.3582  -57.7806 O.2       21 UNK        -0.5000 
    119 N         -4.6089  -20.7513  -55.6638 N.am      22 UNK        -0.5000 
    120 CA        -3.4230  -21.5834  -55.9521 C.3       22 UNK         0.1400 
    121 C         -3.7101  -22.9433  -56.6666 C.2       22 UNK         0.5000 
    122 N         -4.9439  -23.4319  -56.7003 N.am      22 UNK        -0.7600 
    123 O         -2.7959  -23.5902  -57.1705 O.2       22 UNK        -0.5000 
    124 C124       -2.2743  -20.7879  -56.6325 C.3       23 UNK        -0.0398 
    125 S125       -1.6772  -19.4248  -55.5823 S.3       23 UNK        -0.2404 
    126 C126       -0.3382  -20.2642  -54.6782 C.3       23 UNK        -0.0205 
    127 H127       -1.6090  -17.0234  -49.3735 H         1 UNK         0.0600 
    128 H128       -2.6795  -16.1326  -48.2970 H         1 UNK         0.0600 
    129 H129       -1.3319  -17.0594  -47.6314 H         1 UNK         0.0600 
    130 H130        0.6067  -16.2169  -49.6846 H         1 UNK         0.3000 
    131 H131        0.8529  -13.3377  -49.6559 H         1 UNK         0.0600 
    132 H132        2.9688  -13.7098  -50.8713 H         1 UNK         0.0800 
    133 H133        2.8910  -15.4201  -50.5755 H         1 UNK         0.0800 
    134 H134        3.1751  -16.2222  -52.7491 H         1 UNK         0.0800 
    135 H135        2.1574  -15.9745  -54.1383 H         1 UNK         0.0800 
    136 H136        0.9731  -17.8838  -54.8232 H         1 UNK         0.1150 
    137 H137       -0.4656  -20.7661  -51.9965 H         1 UNK         0.1150 
    138 H138        1.7300  -17.3549  -50.6364 H         1 UNK         0.1150 
    139 H139       -0.0852  -18.7600  -49.1700 H         1 UNK         0.0800 
    140 H140       -0.2079  -20.4250  -49.6768 H         1 UNK         0.0800 
    141 H141        0.6504  -19.3134  -46.9913 H         1 UNK         0.0800 
    142 H142        2.3133  -19.5528  -46.5609 H         1 UNK         0.0800 
    143 H143        2.0794  -22.0214  -46.8213 H         1 UNK         0.0600 
    144 H144        0.9093  -20.5258  -44.7292 H         1 UNK         0.3000 
    145 H145       -0.0849  -23.2710  -42.6443 H         1 UNK         0.0600 
    146 H146        1.2802  -21.9484  -41.0622 H         1 UNK         0.0600 
    147 H147        2.3248  -22.7862  -42.1992 H         1 UNK         0.0600 
    148 H148        2.0253  -21.0637  -42.3918 H         1 UNK         0.0600 
    149 H149       -0.4188  -20.4850  -42.2830 H         1 UNK         0.3000 
    150 H150       -3.5948  -20.1882  -43.9689 H         1 UNK         0.0600 
    151 H151       -4.0007  -21.0326  -41.6485 H         1 UNK         0.0600 
    152 H152       -4.1731  -19.2869  -41.7448 H         1 UNK         0.0600 
    153 H153       -2.7198  -19.9908  -41.0395 H         1 UNK         0.0600 
    154 H154       -2.0324  -18.2262  -42.6551 H         1 UNK         0.3000 
    155 H155       -0.1007  -17.1840  -45.5098 H         1 UNK         0.0600 
    156 H156       -2.2709  -15.8758  -43.7875 H         1 UNK         0.0600 
    157 H157       -2.2994  -15.9914  -45.5399 H         1 UNK         0.0600 
    158 H158       -1.0588  -15.0323  -44.7485 H         1 UNK         0.0600 
    159 H159       -0.0082  -16.3244  -42.8106 H         1 UNK         0.3000 
    160 H160        2.4081  -18.6951  -41.6340 H         1 UNK         0.0600 
    161 H161        2.5255  -15.6852  -42.1770 H         1 UNK         0.0600 
    162 H162        3.6772  -16.8725  -42.7728 H         1 UNK         0.0600 
    163 H163        3.5426  -16.5751  -41.0456 H         1 UNK         0.0600 
    164 H164        0.9590  -16.4908  -40.4537 H         1 UNK         0.3000 
    165 H165       -1.7047  -18.4656  -39.1255 H         1 UNK         0.0600 
    166 H166       -0.8545  -17.4738  -37.0202 H         1 UNK         0.0600 
    167 H167        0.2101  -18.7675  -37.5469 H         1 UNK         0.0600 
    168 H168        0.6880  -17.0909  -37.7852 H         1 UNK         0.0600 
    169 H169       -1.0488  -15.6956  -38.8833 H         1 UNK         0.3000 
    170 H170       -2.7432  -14.5394  -41.7864 H         1 UNK         0.0600 
    171 H171       -4.5853  -14.9332  -40.1431 H         1 UNK         0.0600 
    172 H172       -3.5537  -14.3679  -38.8345 H         1 UNK         0.0600 
    173 H173       -4.0486  -13.2614  -40.1163 H         1 UNK         0.0600 
    174 H174       -1.5691  -13.0971  -39.6705 H         1 UNK         0.3000 
    175 H175        0.3159  -12.0134  -39.8747 H         1 UNK         0.0600 
    176 H176        2.5025  -14.0970  -40.4074 H         1 UNK         0.0600 
    177 H177        2.6469  -12.6718  -39.3845 H         1 UNK         0.0600 
    178 H178        1.5554  -13.9706  -38.9301 H         1 UNK         0.0600 
    179 H179        2.1658  -12.4070  -42.1366 H         1 UNK         0.3000 
    180 H180        0.7097   -9.8690  -44.1191 H         1 UNK         0.0600 
    181 H181        3.3331   -9.7412  -42.5369 H         1 UNK         0.0600 
    182 H182        2.0808   -8.5056  -42.5474 H         1 UNK         0.0600 
    183 H183        2.9725   -8.8554  -44.0193 H         1 UNK         0.0600 
    184 H184        3.1154  -11.4783  -44.2608 H         1 UNK         0.3000 
    185 H185        3.2621  -12.8735  -46.0535 H         1 UNK         0.0600 
    186 H186        3.0239  -15.3349  -45.5076 H         1 UNK         0.0600 
    187 H187        2.9887  -14.3344  -44.0645 H         1 UNK         0.0600 
    188 H188        1.4900  -14.9936  -44.7085 H         1 UNK         0.0600 
    189 H189        0.6211  -13.5095  -47.1281 H         1 UNK         0.3000 
    190 H190       -1.3231  -20.8470  -46.4483 H         1 UNK         0.3000 
    191 H191       -2.3181  -21.9651  -48.8186 H         1 UNK         0.0600 
    192 H192       -3.7994  -21.3753  -46.2040 H         1 UNK         0.0600 
    193 H193       -4.5503  -21.6046  -47.7794 H         1 UNK         0.0600 
    194 H194       -3.5008  -20.2224  -47.5024 H         1 UNK         0.0600 
    195 H195       -2.0812  -23.4339  -45.5616 H         1 UNK         0.3000 
    196 H196       -3.3667  -25.8972  -46.1929 H         1 UNK         0.0600 
    197 H197       -2.2440  -26.6982  -44.1079 H         1 UNK         0.0600 
    198 H198       -3.0057  -25.1325  -43.8693 H         1 UNK         0.0600 
    199 H199       -1.2588  -25.2406  -44.0672 H         1 UNK         0.0600 
    200 H200        0.1034  -24.9338  -46.2947 H         1 UNK         0.3000 
    201 H201        1.1110  -27.4745  -47.0921 H         1 UNK         0.0600 
    202 H202        2.5212  -25.7528  -46.0213 H         1 UNK         0.0600 
    203 H203        2.3055  -24.6692  -47.3936 H         1 UNK         0.0600 
    204 H204        3.1914  -26.1775  -47.5892 H         1 UNK         0.0600 
    205 H205        0.2135  -24.5722  -49.0039 H         1 UNK         0.3000 
    206 H206        0.8731  -25.7402  -51.5683 H         1 UNK         0.0600 
    207 H207        0.9657  -23.3009  -51.1706 H         1 UNK         0.0600 
    208 H208       -0.2251  -23.6426  -52.4179 H         1 UNK         0.0600 
    209 H209       -0.7497  -23.2642  -50.7818 H         1 UNK         0.0600 
    210 H210       -1.8297  -26.0500  -49.4889 H         1 UNK         0.3000 
    211 H211       -3.7710  -27.0514  -49.5119 H         1 UNK         0.0600 
    212 H212       -3.1339  -28.2343  -52.2633 H         1 UNK         0.0600 
    213 H213       -4.3381  -28.8090  -51.1214 H         1 UNK         0.0600 
    214 H214       -2.6329  -28.9337  -50.7233 H         1 UNK         0.0600 
    215 H215       -3.3140  -24.3666  -50.7872 H         1 UNK         0.3000 
    216 H216       -5.9855  -23.6346  -51.2475 H         1 UNK         0.0600 
    217 H217       -5.6701  -22.7827  -53.6407 H         1 UNK         0.0600 
    218 H218       -5.7290  -24.5336  -53.5508 H         1 UNK         0.0600 
    219 H219       -4.1802  -23.7172  -53.7370 H         1 UNK         0.0600 
    220 H220       -6.1338  -21.3650  -51.0951 H         1 UNK         0.3000 
    221 H221       -3.8298  -19.9519  -50.0215 H         1 UNK         0.0600 
    222 H222       -6.6794  -19.0145  -50.6912 H         1 UNK         0.0600 
    223 H223       -6.1470  -19.6301  -49.1267 H         1 UNK         0.0600 
    224 H224       -5.5032  -18.1177  -49.7379 H         1 UNK         0.0600 
    225 H225       -3.2664  -17.7740  -50.8197 H         1 UNK         0.3000 
    226 H226       -2.1743  -17.7953  -53.3684 H         1 UNK         0.0600 
    227 H227       -1.2352  -16.4557  -51.5828 H         1 UNK         0.0600 
    228 H228       -1.6747  -15.3680  -52.8782 H         1 UNK         0.0600 
    229 H229       -2.6989  -15.4742  -51.4514 H         1 UNK         0.0600 
    230 H230       -5.3897  -16.8055  -52.5042 H         1 UNK         0.3000 
    231 H231       -5.9459  -15.1616  -54.8228 H         1 UNK         0.0600 
    232 H232       -7.1777  -14.9039  -52.6764 H         1 UNK         0.0600 
    233 H233       -7.7997  -16.5497  -52.8112 H         1 UNK         0.0600 
    234 H234       -8.2862  -15.3207  -53.9724 H         1 UNK         0.0600 
    235 H235       -5.6618  -18.5906  -54.3880 H         1 UNK         0.3000 
    236 H236       -7.2567  -19.1447  -56.8664 H         1 UNK         0.0600 
    237 H237       -7.8681  -21.3166  -55.7823 H         1 UNK         0.0600 
    238 H238       -7.1081  -20.7866  -54.2837 H         1 UNK         0.0600 
    239 H239       -8.5166  -19.9373  -54.9099 H         1 UNK         0.0600 
    240 H240       -4.7422  -20.5225  -54.6826 H         1 UNK         0.3000 
    241 H241       -3.0562  -21.8853  -54.9707 H         1 UNK         0.0600 
    242 H242       -5.1126  -24.3152  -57.1552 H         1 UNK         0.3800 
    243 H243       -5.7102  -22.9225  -56.2939 H         1 UNK         0.3800 
    244 H244       -2.6061  -20.3760  -57.5861 H         1 UNK         0.0800 
    245 H245       -1.4253  -21.4329  -56.8642 H         1 UNK         0.0800 
    246 H246        0.4732  -20.4968  -55.3692 H         1 UNK         0.0800 
    247 H247       -0.7063  -21.2190  -54.2992 H         1 UNK         0.0800 
@<TRIPOS>BOND
     1    1    2 1    
     2    1  127 1    
     3    1  128 1    
     4    1  129 1    
     5    2    3 2    
     6    2    4 am   BACKBONE|DICT|INTERRES
     7    4    5 1    
     8    4  130 1    
     9    5    6 1    
    10    5   65 1    
    11    5  131 1    
    12    6    7 1    
    13    6  132 1    
    14    6  133 1    
    15    7    8 1    
    16    8    9 1    
    17    8  134 1    
    18    8  135 1    
    19    9   10 ar   
    20    9   14 ar   
    21   10   11 ar   
    22   10  136 1    
    23   11   12 ar   
    24   11  126 1    
    25   12   13 ar   
    26   12  137 1    
    27   13   14 ar   
    28   13   15 1    
    29   14  138 1    
    30   15   16 1    
    31   15  139 1    
    32   15  140 1    
    33   16   17 1    
    34   17   18 1    
    35   17  141 1    
    36   17  142 1    
    37   18   19 1    
    38   18   67 1    
    39   18  143 1    
    40   19   20 am   BACKBONE|DICT|INTERRES
    41   19  144 1    
    42   20   21 2    
    43   20   22 1    
    44   22   23 1    
    45   22   24 1    
    46   22  145 1    
    47   23  146 1    
    48   23  147 1    
    49   23  148 1    
    50   24   25 am   BACKBONE|DICT|INTERRES
    51   24  149 1    
    52   25   26 2    
    53   25   27 1    
    54   27   28 1    
    55   27   29 1    
    56   27  150 1    
    57   28  151 1    
    58   28  152 1    
    59   28  153 1    
    60   29   30 am   BACKBONE|DICT|INTERRES
    61   29  154 1    
    62   30   31 2    
    63   30   32 1    
    64   32   33 1    
    65   32   34 1    
    66   32  155 1    
    67   33  156 1    
    68   33  157 1    
    69   33  158 1    
    70   34   35 am   BACKBONE|DICT|INTERRES
    71   34  159 1    
    72   35   36 2    
    73   35   37 1    
    74   37   38 1    
    75   37   39 1    
    76   37  160 1    
    77   38  161 1    
    78   38  162 1    
    79   38  163 1    
    80   39   40 am   BACKBONE|DICT|INTERRES
    81   39  164 1    
    82   40   41 2    
    83   40   42 1    
    84   42   43 1    
    85   42   44 1    
    86   42  165 1    
    87   43  166 1    
    88   43  167 1    
    89   43  168 1    
    90   44   45 am   BACKBONE|DICT|INTERRES
    91   44  169 1    
    92   45   46 2    
    93   45   47 1    
    94   47   48 1    
    95   47   49 1    
    96   47  170 1    
    97   48  171 1    
    98   48  172 1    
    99   48  173 1    
   100   49   50 am   BACKBONE|DICT|INTERRES
   101   49  174 1    
   102   50   51 2    
   103   50   52 1    
   104   52   53 1    
   105   52   54 1    
   106   52  175 1    
   107   53  176 1    
   108   53  177 1    
   109   53  178 1    
   110   54   55 am   BACKBONE|DICT|INTERRES
   111   54  179 1    
   112   55   56 2    
   113   55   57 1    
   114   57   58 1    
   115   57   59 1    
   116   57  180 1    
   117   58  181 1    
   118   58  182 1    
   119   58  183 1    
   120   59   60 am   BACKBONE|DICT|INTERRES
   121   59  184 1    
   122   60   61 2    
   123   60   62 1    
   124   62   63 1    
   125   62   64 1    
   126   62  185 1    
   127   63  186 1    
   128   63  187 1    
   129   63  188 1    
   130   64   65 am   BACKBONE|DICT|INTERRES
   131   64  189 1    
   132   65   66 2    
   133   67   68 2    
   134   67   69 am   BACKBONE|DICT|INTERRES
   135   69   70 1    
   136   69  190 1    
   137   70   71 1    
   138   70   72 1    
   139   70  191 1    
   140   71  192 1    
   141   71  193 1    
   142   71  194 1    
   143   72   73 2    
   144   72   74 am   BACKBONE|DICT|INTERRES
   145   74   75 1    
   146   74  195 1    
   147   75   76 1    
   148   75   77 1    
   149   75  196 1    
   150   76  197 1    
   151   76  198 1    
   152   76  199 1    
   153   77   78 2    
   154   77   79 am   BACKBONE|DICT|INTERRES
   155   79   80 1    
   156   79  200 1    
   157   80   81 1    
   158   80   82 1    
   159   80  201 1    
   160   81  202 1    
   161   81  203 1    
   162   81  204 1    
   163   82   83 2    
   164   82   84 am   BACKBONE|DICT|INTERRES
   165   84   85 1    
   166   84  205 1    
   167   85   86 1    
   168   85   87 1    
   169   85  206 1    
   170   86  207 1    
   171   86  208 1    
   172   86  209 1    
   173   87   88 2    
   174   87   89 am   BACKBONE|DICT|INTERRES
   175   89   90 1    
   176   89  210 1    
   177   90   91 1    
   178   90   92 1    
   179   90  211 1    
   180   91  212 1    
   181   91  213 1    
   182   91  214 1    
   183   92   93 2    
   184   92   94 am   BACKBONE|DICT|INTERRES
   185   94   95 1    
   186   94  215 1    
   187   95   96 1    
   188   95   97 1    
   189   95  216 1    
   190   96  217 1    
   191   96  218 1    
   192   96  219 1    
   193   97   98 2    
   194   97   99 am   BACKBONE|DICT|INTERRES
   195   99  100 1    
   196   99  220 1    
   197  100  101 1    
   198  100  102 1    
   199  100  221 1    
   200  101  222 1    
   201  101  223 1    
   202  101  224 1    
   203  102  103 2    
   204  102  104 am   BACKBONE|DICT|INTERRES
   205  104  105 1    
   206  104  225 1    
   207  105  106 1    
   208  105  107 1    
   209  105  226 1    
   210  106  227 1    
   211  106  228 1    
   212  106  229 1    
   213  107  108 2    
   214  107  109 am   BACKBONE|DICT|INTERRES
   215  109  110 1    
   216  109  230 1    
   217  110  111 1    
   218  110  112 1    
   219  110  231 1    
   220  111  232 1    
   221  111  233 1    
   222  111  234 1    
   223  112  113 2    
   224  112  114 am   BACKBONE|DICT|INTERRES
   225  114  115 1    
   226  114  235 1    
   227  115  116 1    
   228  115  117 1    
   229  115  236 1    
   230  116  237 1    
   231  116  238 1    
   232  116  239 1    
   233  117  118 2    
   234  117  119 am   BACKBONE|DICT|INTERRES
   235  119  120 1    
   236  119  240 1    
   237  120  121 1    
   238  120  124 1    
   239  120  241 1    
   240  121  122 am   BACKBONE|DICT|INTERRES
   241  121  123 2    
   242  122  242 1    
   243  122  243 1    
   244  124  125 1    
   245  124  244 1    
   246  124  245 1    
   247  125  126 1    
   248  126  246 1    
   249  126  247 1    
@<TRIPOS>SUBSTRUCTURE
     1 UNK         1 GROUP             0       ****    0 ROOT    
