@<TRIPOS>MOLECULE
3R540
247   249    1
SMALL
USER_CHARGES


@<TRIPOS>ATOM
      1 CA         -1.2486  -12.6116  -43.8111 C.3       0 UNK        -0.1800 
      2 C          -1.9363  -12.2728  -45.1252 C.2       0 UNK         0.5000 
      3 O          -1.7343  -11.1807  -45.6557 O.2       0 UNK        -0.5000 
      4 N          -2.7580  -13.1969  -45.6403 N.am      1 UNK        -0.5000 
      5 CA         -3.5281  -13.0608  -46.8833 C.3       1 UNK         0.1400 
      6 C6         -4.6297  -14.1469  -47.0462 C.3       23 UNK        -0.0398 
      7 S7         -4.1628  -15.8110  -46.4497 S.3       23 UNK        -0.2404 
      8 C8         -4.9344  -16.9183  -47.6721 C.3       23 UNK        -0.0205 
      9 C9         -4.0535  -17.1588  -48.8897 C.ar      23 UNK        -0.0193 
     10 C10        -4.5358  -16.8999  -50.1764 C.ar      23 UNK        -0.1150 
     11 C11        -3.7476  -17.1764  -51.2981 C.ar      23 UNK        -0.0193 
     12 C12        -2.4732  -17.7244  -51.1226 C.ar      23 UNK        -0.1150 
     13 C13        -1.9598  -17.9411  -49.8410 C.ar      23 UNK        -0.0193 
     14 C14        -2.7628  -17.6723  -48.7302 C.ar      23 UNK        -0.1150 
     15 C15        -0.5148  -18.3829  -49.6630 C.3       23 UNK        -0.0205 
     16 S16        -0.3638  -20.1406  -49.2290 S.3       23 UNK        -0.2404 
     17 C17        -0.1968  -20.0503  -47.4142 C.3       23 UNK        -0.0398 
     18 CA         -0.2786  -21.4442  -46.7504 C.3       11 UNK         0.1400 
     19 N           0.3429  -21.4636  -45.4256 N.am      11 UNK        -0.5000 
     20 C           0.7409  -22.5755  -44.7905 C.2       10 UNK         0.5000 
     21 O           0.6927  -23.7001  -45.2871 O.2       10 UNK        -0.5000 
     22 CA          1.2425  -22.4044  -43.3437 C.3       10 UNK         0.1400 
     23 CB          2.7477  -22.1093  -43.3267 C.3       10 UNK        -0.1800 
     24 N           0.5316  -21.3403  -42.6331 N.am      10 UNK        -0.5000 
     25 C          -0.7573  -21.4214  -42.2690 C.2       9 UNK         0.5000 
     26 O          -1.4504  -22.4229  -42.4434 O.2       9 UNK        -0.5000 
     27 CA         -1.4018  -20.1582  -41.6694 C.3       9 UNK         0.1400 
     28 CB         -1.3321  -20.1901  -40.1373 C.3       9 UNK        -0.1800 
     29 N          -0.8163  -18.9169  -42.1849 N.am      9 UNK        -0.5000 
     30 C          -0.8998  -18.5360  -43.4694 C.2       8 UNK         0.5000 
     31 O          -1.4736  -19.2095  -44.3267 O.2       8 UNK        -0.5000 
     32 CA         -0.1877  -17.2453  -43.9121 C.3       8 UNK         0.1400 
     33 CB         -1.1149  -16.3473  -44.7523 C.3       8 UNK        -0.1800 
     34 N           0.4730  -16.5077  -42.8340 N.am      8 UNK        -0.5000 
     35 C          -0.0724  -15.7805  -41.8501 C.2       7 UNK         0.5000 
     36 O          -1.2820  -15.5992  -41.7080 O.2       7 UNK        -0.5000 
     37 CA          0.9369  -15.2030  -40.8331 C.3       7 UNK         0.1400 
     38 CB          0.2664  -14.6069  -39.5781 C.3       7 UNK        -0.1800 
     39 N           1.9691  -16.1834  -40.4666 N.am      7 UNK        -0.5000 
     40 C           1.7645  -17.3905  -39.9129 C.2       6 UNK         0.5000 
     41 O           0.6589  -17.7924  -39.5532 O.2       6 UNK        -0.5000 
     42 CA          2.9957  -18.3167  -39.7980 C.3       6 UNK         0.1400 
     43 CB          2.6233  -19.7975  -39.5743 C.3       6 UNK        -0.1800 
     44 N           3.9076  -18.1858  -40.9392 N.am      6 UNK        -0.5000 
     45 C           3.6190  -18.3850  -42.2332 C.2       5 UNK         0.5000 
     46 O           2.5255  -18.7741  -42.6528 O.2       5 UNK        -0.5000 
     47 CA          4.7350  -18.0151  -43.2265 C.3       5 UNK         0.1400 
     48 CB          4.8633  -19.0594  -44.3468 C.3       5 UNK        -0.1800 
     49 N           4.5306  -16.6995  -43.8357 N.am      5 UNK        -0.5000 
     50 C           4.4180  -15.5197  -43.2046 C.2       4 UNK         0.5000 
     51 O           4.3980  -15.3916  -41.9799 O.2       4 UNK        -0.5000 
     52 CA          4.3213  -14.2638  -44.0920 C.3       4 UNK         0.1400 
     53 CB          5.6894  -13.5704  -44.1807 C.3       4 UNK        -0.1800 
     54 N           3.8602  -14.5801  -45.4462 N.am      4 UNK        -0.5000 
     55 C           2.5732  -14.6131  -45.8067 C.2       3 UNK         0.5000 
     56 O           1.6436  -14.2886  -45.0672 O.2       3 UNK        -0.5000 
     57 CA          2.2757  -15.1262  -47.2193 C.3       3 UNK         0.1400 
     58 CB          2.1628  -16.6631  -47.2318 C.3       3 UNK        -0.1800 
     59 N           1.0391  -14.5199  -47.7055 N.am      3 UNK        -0.5000 
     60 C           0.6933  -14.4392  -48.9963 C.2       2 UNK         0.5000 
     61 O           1.3797  -14.9149  -49.9023 O.2       2 UNK        -0.5000 
     62 CA         -0.6171  -13.7057  -49.3411 C.3       2 UNK         0.1400 
     63 CB         -1.2464  -14.2160  -50.6536 C.3       2 UNK        -0.1800 
     64 N          -1.5891  -13.7531  -48.2438 N.am      2 UNK        -0.5000 
     65 C          -2.6364  -12.9242  -48.1347 C.2       1 UNK         0.5000 
     66 O          -2.8983  -12.0434  -48.9561 O.2       1 UNK        -0.5000 
     67 C          -1.7263  -21.9656  -46.6773 C.2       11 UNK         0.5000 
     68 O          -2.1193  -22.7738  -47.5155 O.2       11 UNK        -0.5000 
     69 N          -2.4793  -21.5495  -45.6483 N.am      12 UNK        -0.5000 
     70 CA         -3.8375  -22.0234  -45.3702 C.3       12 UNK         0.1400 
     71 CB         -4.4345  -21.2306  -44.1996 C.3       12 UNK        -0.1800 
     72 C          -3.8955  -23.5396  -45.0992 C.2       12 UNK         0.5000 
     73 O          -4.7862  -24.2126  -45.6174 O.2       12 UNK        -0.5000 
     74 N          -2.9071  -24.0639  -44.3594 N.am      13 UNK        -0.5000 
     75 CA         -2.7036  -25.4975  -44.1253 C.3       13 UNK         0.1400 
     76 CB         -1.6055  -25.6876  -43.0684 C.3       13 UNK        -0.1800 
     77 C          -2.3629  -26.2876  -45.4066 C.2       13 UNK         0.5000 
     78 O          -2.6924  -27.4705  -45.4944 O.2       13 UNK        -0.5000 
     79 N          -1.7479  -25.6134  -46.3871 N.am      14 UNK        -0.5000 
     80 CA         -1.4616  -26.1235  -47.7297 C.3       14 UNK         0.1400 
     81 CB         -0.1320  -25.5196  -48.2125 C.3       14 UNK        -0.1800 
     82 C          -2.6113  -25.8508  -48.7278 C.2       14 UNK         0.5000 
     83 O          -2.4294  -26.0605  -49.9271 O.2       14 UNK        -0.5000 
     84 N          -3.7698  -25.4039  -48.2197 N.am      15 UNK        -0.5000 
     85 CA         -5.0178  -25.1156  -48.9284 C.3       15 UNK         0.1400 
     86 CB         -5.5954  -26.3811  -49.5978 C.3       15 UNK        -0.1800 
     87 C          -4.9553  -23.8822  -49.8536 C.2       15 UNK         0.5000 
     88 O          -5.6569  -23.8482  -50.8661 O.2       15 UNK        -0.5000 
     89 N          -4.1643  -22.8731  -49.4535 N.am      16 UNK        -0.5000 
     90 CA         -4.1042  -21.4970  -49.9625 C.3       16 UNK         0.1400 
     91 CB         -5.3194  -20.6969  -49.4484 C.3       16 UNK        -0.1800 
     92 C          -3.9251  -21.4143  -51.4891 C.2       16 UNK         0.5000 
     93 O          -2.7962  -21.5107  -51.9685 O.2       16 UNK        -0.5000 
     94 N          -5.0437  -21.2986  -52.2207 N.am      17 UNK        -0.5000 
     95 CA         -5.1369  -21.2946  -53.6829 C.3       17 UNK         0.1400 
     96 CB         -6.6150  -21.1863  -54.0847 C.3       17 UNK        -0.1800 
     97 C          -4.4833  -22.5135  -54.3674 C.2       17 UNK         0.5000 
     98 O          -4.0361  -22.4000  -55.5084 O.2       17 UNK        -0.5000 
     99 N          -4.4241  -23.6514  -53.6623 N.am      18 UNK        -0.5000 
    100 CA        -3.7311  -24.8592  -54.1090 C.3       18 UNK         0.1400 
    101 CB        -4.2089  -26.0457  -53.2622 C.3       18 UNK        -0.1800 
    102 C         -2.1939  -24.7419  -54.0407 C.2       18 UNK         0.5000 
    103 O         -1.5092  -25.4367  -54.7928 O.2       18 UNK        -0.5000 
    104 N         -1.6773  -23.8877  -53.1468 N.am      19 UNK        -0.5000 
    105 CA        -0.2479  -23.6576  -52.9440 C.3       19 UNK         0.1400 
    106 CB         0.0182  -23.4014  -51.4529 C.3       19 UNK        -0.1800 
    107 C          0.2561  -22.4876  -53.8042 C.2       19 UNK         0.5000 
    108 O          1.3121  -22.6061  -54.4274 O.2       19 UNK        -0.5000 
    109 N         -0.5124  -21.3940  -53.8463 N.am      20 UNK        -0.5000 
    110 CA        -0.2618  -20.2175  -54.6714 C.3       20 UNK         0.1400 
    111 CB         0.5808  -19.1954  -53.8900 C.3       20 UNK        -0.1800 
    112 C         -1.6242  -19.6446  -55.0704 C.2       20 UNK         0.5000 
    113 O         -2.4197  -19.3339  -54.1886 O.2       20 UNK        -0.5000 
    114 N         -1.8872  -19.5488  -56.3790 N.am      21 UNK        -0.5000 
    115 CA        -3.2143  -19.2750  -56.9404 C.3       21 UNK         0.1400 
    116 CB        -3.1728  -19.5431  -58.4532 C.3       21 UNK        -0.1800 
    117 C         -3.7851  -17.8707  -56.6624 C.2       21 UNK         0.5000 
    118 O         -5.0050  -17.7090  -56.7120 O.2       21 UNK        -0.5000 
    119 N         -2.9107  -16.8859  -56.4125 N.am      22 UNK        -0.5000 
    120 CA        -3.2464  -15.4566  -56.2431 C.3       22 UNK         0.1400 
    121 C         -3.7889  -14.7630  -57.5345 C.2       22 UNK         0.5000 
    122 N         -3.5850  -15.3212  -58.7220 N.am      22 UNK        -0.7600 
    123 O         -4.3731  -13.6843  -57.4724 O.2       22 UNK        -0.5000 
    124 C124       -4.1312  -15.1704  -54.9927 C.3       23 UNK        -0.0398 
    125 S125       -3.2562  -15.5034  -53.4295 S.3       23 UNK        -0.2404 
    126 C126       -4.2482  -16.8439  -52.6970 C.3       23 UNK        -0.0205 
    127 H127       -1.4707  -11.8512  -43.0625 H         1 UNK         0.0600 
    128 H128       -0.1684  -12.6511  -43.9482 H         1 UNK         0.0600 
    129 H129       -1.5801  -13.5737  -43.4232 H         1 UNK         0.0600 
    130 H130       -2.8893  -14.0742  -45.1564 H         1 UNK         0.3000 
    131 H131       -4.0549  -12.1071  -46.8026 H         1 UNK         0.0600 
    132 H132       -4.9752  -14.2063  -48.0803 H         1 UNK         0.0800 
    133 H133       -5.5054  -13.8467  -46.4694 H         1 UNK         0.0800 
    134 H134       -5.9115  -16.5258  -47.9578 H         1 UNK         0.0800 
    135 H135       -5.1215  -17.8807  -47.1939 H         1 UNK         0.0800 
    136 H136       -5.5254  -16.4851  -50.3055 H         1 UNK         0.1150 
    137 H137       -1.8603  -17.9228  -51.9901 H         1 UNK         0.1150 
    138 H138       -2.3823  -17.8430  -47.7350 H         1 UNK         0.1150 
    139 H139       -0.0385  -17.7638  -48.9030 H         1 UNK         0.0800 
    140 H140        0.0458  -18.2056  -50.5816 H         1 UNK         0.0800 
    141 H141       -0.9385  -19.3700  -46.9964 H         1 UNK         0.0800 
    142 H142        0.7754  -19.6003  -47.2082 H         1 UNK         0.0800 
    143 H143        0.2857  -22.1415  -47.3743 H         1 UNK         0.0600 
    144 H144        0.3585  -20.5901  -44.9202 H         1 UNK         0.3000 
    145 H145        1.0720  -23.3440  -42.8138 H         1 UNK         0.0600 
    146 H146        2.9774  -21.2055  -43.8892 H         1 UNK         0.0600 
    147 H147        3.3110  -22.9278  -43.7764 H         1 UNK         0.0600 
    148 H148        3.1167  -21.9768  -42.3094 H         1 UNK         0.0600 
    149 H149        1.0351  -20.4741  -42.4802 H         1 UNK         0.3000 
    150 H150       -2.4560  -20.1592  -41.9505 H         1 UNK         0.0600 
    151 H151       -0.3054  -20.2599  -39.7804 H         1 UNK         0.0600 
    152 H152       -1.8713  -21.0524  -39.7433 H         1 UNK         0.0600 
    153 H153       -1.7817  -19.2979  -39.7009 H         1 UNK         0.0600 
    154 H154       -0.3184  -18.3342  -41.5235 H         1 UNK         0.3000 
    155 H155        0.6237  -17.5738  -44.5614 H         1 UNK         0.0600 
    156 H156       -2.0224  -16.0861  -44.2080 H         1 UNK         0.0600 
    157 H157       -1.4196  -16.8576  -45.6661 H         1 UNK         0.0600 
    158 H158       -0.6247  -15.4237  -45.0502 H         1 UNK         0.0600 
    159 H159        1.4724  -16.6499  -42.7951 H         1 UNK         0.3000 
    160 H160        1.4535  -14.3909  -41.3471 H         1 UNK         0.0600 
    161 H161       -0.3190  -15.3504  -39.0365 H         1 UNK         0.0600 
    162 H162       -0.4089  -13.7939  -39.8473 H         1 UNK         0.0600 
    163 H163        1.0080  -14.1986  -38.8918 H         1 UNK         0.0600 
    164 H164        2.9123  -15.9523  -40.7662 H         1 UNK         0.3000 
    165 H165        3.5463  -17.9781  -38.9193 H         1 UNK         0.0600 
    166 H166        2.0299  -19.9209  -38.6677 H         1 UNK         0.0600 
    167 H167        2.0434  -20.2004  -40.4040 H         1 UNK         0.0600 
    168 H168        3.5150  -20.4140  -39.4622 H         1 UNK         0.0600 
    169 H169        4.8194  -17.8113  -40.7155 H         1 UNK         0.3000 
    170 H170        5.6846  -17.9865  -42.6885 H         1 UNK         0.0600 
    171 H171        5.6883  -18.8195  -45.0178 H         1 UNK         0.0600 
    172 H172        5.0641  -20.0484  -43.9340 H         1 UNK         0.0600 
    173 H173        3.9540  -19.1264  -44.9459 H         1 UNK         0.0600 
    174 H174        4.5123  -16.6879  -44.8431 H         1 UNK         0.3000 
    175 H175        3.6235  -13.5731  -43.6133 H         1 UNK         0.0600 
    176 H176        6.0550  -13.2991  -43.1893 H         1 UNK         0.0600 
    177 H177        6.4398  -14.2130  -44.6429 H         1 UNK         0.0600 
    178 H178        5.6277  -12.6520  -44.7649 H         1 UNK         0.0600 
    179 H179        4.5711  -14.8238  -46.1214 H         1 UNK         0.3000 
    180 H180        3.1010  -14.8200  -47.8661 H         1 UNK         0.0600 
    181 H181        1.2507  -17.0009  -46.7410 H         1 UNK         0.0600 
    182 H182        3.0061  -17.1322  -46.7240 H         1 UNK         0.0600 
    183 H183        2.1539  -17.0468  -48.2517 H         1 UNK         0.0600 
    184 H184        0.4950  -14.0522  -46.9924 H         1 UNK         0.3000 
    185 H185       -0.3322  -12.6625  -49.4914 H         1 UNK         0.0600 
    186 H186       -0.5428  -14.1630  -51.4849 H         1 UNK         0.0600 
    187 H187       -1.5614  -15.2513  -50.5556 H         1 UNK         0.0600 
    188 H188       -2.1189  -13.6320  -50.9442 H         1 UNK         0.0600 
    189 H189       -1.4563  -14.4729  -47.5481 H         1 UNK         0.3000 
    190 H190       -2.1057  -20.8367  -45.0268 H         1 UNK         0.3000 
    191 H191       -4.4408  -21.8220  -46.2577 H         1 UNK         0.0600 
    192 H192       -4.3849  -20.1566  -44.3813 H         1 UNK         0.0600 
    193 H193       -5.4836  -21.4892  -44.0518 H         1 UNK         0.0600 
    194 H194       -3.9136  -21.4393  -43.2660 H         1 UNK         0.0600 
    195 H195       -2.2512  -23.4349  -43.9049 H         1 UNK         0.3000 
    196 H196       -3.6346  -25.9054  -43.7265 H         1 UNK         0.0600 
    197 H197       -0.6537  -25.2711  -43.3992 H         1 UNK         0.0600 
    198 H198       -1.4456  -26.7452  -42.8551 H         1 UNK         0.0600 
    199 H199       -1.8742  -25.2040  -42.1291 H         1 UNK         0.0600 
    200 H200       -1.5199  -24.6401  -46.2324 H         1 UNK         0.3000 
    201 H201       -1.3343  -27.2067  -47.6820 H         1 UNK         0.0600 
    202 H202       -0.2057  -24.4416  -48.3542 H         1 UNK         0.0600 
    203 H203        0.6689  -25.7073  -47.4971 H         1 UNK         0.0600 
    204 H204        0.1753  -25.9575  -49.1626 H         1 UNK         0.0600 
    205 H205       -3.8038  -25.2222  -47.2240 H         1 UNK         0.3000 
    206 H206       -5.7268  -24.8332  -48.1492 H         1 UNK         0.0600 
    207 H207       -5.7370  -27.1771  -48.8669 H         1 UNK         0.0600 
    208 H208       -6.5693  -26.1817  -50.0463 H         1 UNK         0.0600 
    209 H209       -4.9476  -26.7665  -50.3828 H         1 UNK         0.0600 
    210 H210       -3.5392  -23.0471  -48.6691 H         1 UNK         0.3000 
    211 H211       -3.2122  -21.0438  -49.5288 H         1 UNK         0.0600 
    212 H212       -5.2880  -20.6010  -48.3632 H         1 UNK         0.0600 
    213 H213       -5.3260  -19.6867  -49.8581 H         1 UNK         0.0600 
    214 H214       -6.2670  -21.1682  -49.7106 H         1 UNK         0.0600 
    215 H215       -5.9221  -21.2917  -51.7240 H         1 UNK         0.3000 
    216 H216       -4.6345  -20.3991  -54.0421 H         1 UNK         0.0600 
    217 H217       -7.1927  -22.0380  -53.7232 H         1 UNK         0.0600 
    218 H218       -6.7230  -21.1512  -55.1697 H         1 UNK         0.0600 
    219 H219       -7.0671  -20.2778  -53.6860 H         1 UNK         0.0600 
    220 H220       -4.8315  -23.6697  -52.7321 H         1 UNK         0.3000 
    221 H221       -4.0061  -25.0505  -55.1484 H         1 UNK         0.0600 
    222 H222       -3.9130  -25.9236  -52.2211 H         1 UNK         0.0600 
    223 H223       -5.2934  -26.1512  -53.2961 H         1 UNK         0.0600 
    224 H224       -3.7760  -26.9812  -53.6184 H         1 UNK         0.0600 
    225 H225       -2.3013  -23.2881  -52.6171 H         1 UNK         0.3000 
    226 H226        0.3114  -24.5513  -53.2291 H         1 UNK         0.0600 
    227 H227       -0.3225  -24.2414  -50.8493 H         1 UNK         0.0600 
    228 H228        1.0835  -23.2686  -51.2611 H         1 UNK         0.0600 
    229 H229       -0.4937  -22.5086  -51.0948 H         1 UNK         0.0600 
    230 H230       -1.3691  -21.3617  -53.2960 H         1 UNK         0.3000 
    231 H231        0.2782  -20.5059  -55.5758 H         1 UNK         0.0600 
    232 H232        0.0981  -18.9104  -52.9552 H         1 UNK         0.0600 
    233 H233        0.7344  -18.2870  -54.4734 H         1 UNK         0.0600 
    234 H234        1.5637  -19.5991  -53.6471 H         1 UNK         0.0600 
    235 H235       -1.1718  -19.8132  -57.0405 H         1 UNK         0.3000 
    236 H236       -3.9138  -19.9844  -56.4964 H         1 UNK         0.0600 
    237 H237       -2.4548  -18.8956  -58.9576 H         1 UNK         0.0600 
    238 H238       -2.8988  -20.5775  -58.6620 H         1 UNK         0.0600 
    239 H239       -4.1486  -19.3710  -58.9098 H         1 UNK         0.0600 
    240 H240       -1.9288  -17.1175  -56.3820 H         1 UNK         0.3000 
    241 H241       -2.2906  -14.9601  -56.0725 H         1 UNK         0.0600 
    242 H242       -3.9277  -14.8607  -59.5508 H         1 UNK         0.3800 
    243 H243       -3.0907  -16.1948  -58.8023 H         1 UNK         0.3800 
    244 H244       -5.0667  -15.7283  -55.0323 H         1 UNK         0.0800 
    245 H245       -4.4177  -14.1185  -54.9541 H         1 UNK         0.0800 
    246 H246       -4.2008  -17.7302  -53.3288 H         1 UNK         0.0800 
    247 H247       -5.2955  -16.5400  -52.6667 H         1 UNK         0.0800 
@<TRIPOS>BOND
     1    1    2 1    
     2    1  127 1    
     3    1  128 1    
     4    1  129 1    
     5    2    3 2    
     6    2    4 am   BACKBONE|DICT|INTERRES
     7    4    5 1    
     8    4  130 1    
     9    5    6 1    
    10    5   65 1    
    11    5  131 1    
    12    6    7 1    
    13    6  132 1    
    14    6  133 1    
    15    7    8 1    
    16    8    9 1    
    17    8  134 1    
    18    8  135 1    
    19    9   10 ar   
    20    9   14 ar   
    21   10   11 ar   
    22   10  136 1    
    23   11   12 ar   
    24   11  126 1    
    25   12   13 ar   
    26   12  137 1    
    27   13   14 ar   
    28   13   15 1    
    29   14  138 1    
    30   15   16 1    
    31   15  139 1    
    32   15  140 1    
    33   16   17 1    
    34   17   18 1    
    35   17  141 1    
    36   17  142 1    
    37   18   19 1    
    38   18   67 1    
    39   18  143 1    
    40   19   20 am   BACKBONE|DICT|INTERRES
    41   19  144 1    
    42   20   21 2    
    43   20   22 1    
    44   22   23 1    
    45   22   24 1    
    46   22  145 1    
    47   23  146 1    
    48   23  147 1    
    49   23  148 1    
    50   24   25 am   BACKBONE|DICT|INTERRES
    51   24  149 1    
    52   25   26 2    
    53   25   27 1    
    54   27   28 1    
    55   27   29 1    
    56   27  150 1    
    57   28  151 1    
    58   28  152 1    
    59   28  153 1    
    60   29   30 am   BACKBONE|DICT|INTERRES
    61   29  154 1    
    62   30   31 2    
    63   30   32 1    
    64   32   33 1    
    65   32   34 1    
    66   32  155 1    
    67   33  156 1    
    68   33  157 1    
    69   33  158 1    
    70   34   35 am   BACKBONE|DICT|INTERRES
    71   34  159 1    
    72   35   36 2    
    73   35   37 1    
    74   37   38 1    
    75   37   39 1    
    76   37  160 1    
    77   38  161 1    
    78   38  162 1    
    79   38  163 1    
    80   39   40 am   BACKBONE|DICT|INTERRES
    81   39  164 1    
    82   40   41 2    
    83   40   42 1    
    84   42   43 1    
    85   42   44 1    
    86   42  165 1    
    87   43  166 1    
    88   43  167 1    
    89   43  168 1    
    90   44   45 am   BACKBONE|DICT|INTERRES
    91   44  169 1    
    92   45   46 2    
    93   45   47 1    
    94   47   48 1    
    95   47   49 1    
    96   47  170 1    
    97   48  171 1    
    98   48  172 1    
    99   48  173 1    
   100   49   50 am   BACKBONE|DICT|INTERRES
   101   49  174 1    
   102   50   51 2    
   103   50   52 1    
   104   52   53 1    
   105   52   54 1    
   106   52  175 1    
   107   53  176 1    
   108   53  177 1    
   109   53  178 1    
   110   54   55 am   BACKBONE|DICT|INTERRES
   111   54  179 1    
   112   55   56 2    
   113   55   57 1    
   114   57   58 1    
   115   57   59 1    
   116   57  180 1    
   117   58  181 1    
   118   58  182 1    
   119   58  183 1    
   120   59   60 am   BACKBONE|DICT|INTERRES
   121   59  184 1    
   122   60   61 2    
   123   60   62 1    
   124   62   63 1    
   125   62   64 1    
   126   62  185 1    
   127   63  186 1    
   128   63  187 1    
   129   63  188 1    
   130   64   65 am   BACKBONE|DICT|INTERRES
   131   64  189 1    
   132   65   66 2    
   133   67   68 2    
   134   67   69 am   BACKBONE|DICT|INTERRES
   135   69   70 1    
   136   69  190 1    
   137   70   71 1    
   138   70   72 1    
   139   70  191 1    
   140   71  192 1    
   141   71  193 1    
   142   71  194 1    
   143   72   73 2    
   144   72   74 am   BACKBONE|DICT|INTERRES
   145   74   75 1    
   146   74  195 1    
   147   75   76 1    
   148   75   77 1    
   149   75  196 1    
   150   76  197 1    
   151   76  198 1    
   152   76  199 1    
   153   77   78 2    
   154   77   79 am   BACKBONE|DICT|INTERRES
   155   79   80 1    
   156   79  200 1    
   157   80   81 1    
   158   80   82 1    
   159   80  201 1    
   160   81  202 1    
   161   81  203 1    
   162   81  204 1    
   163   82   83 2    
   164   82   84 am   BACKBONE|DICT|INTERRES
   165   84   85 1    
   166   84  205 1    
   167   85   86 1    
   168   85   87 1    
   169   85  206 1    
   170   86  207 1    
   171   86  208 1    
   172   86  209 1    
   173   87   88 2    
   174   87   89 am   BACKBONE|DICT|INTERRES
   175   89   90 1    
   176   89  210 1    
   177   90   91 1    
   178   90   92 1    
   179   90  211 1    
   180   91  212 1    
   181   91  213 1    
   182   91  214 1    
   183   92   93 2    
   184   92   94 am   BACKBONE|DICT|INTERRES
   185   94   95 1    
   186   94  215 1    
   187   95   96 1    
   188   95   97 1    
   189   95  216 1    
   190   96  217 1    
   191   96  218 1    
   192   96  219 1    
   193   97   98 2    
   194   97   99 am   BACKBONE|DICT|INTERRES
   195   99  100 1    
   196   99  220 1    
   197  100  101 1    
   198  100  102 1    
   199  100  221 1    
   200  101  222 1    
   201  101  223 1    
   202  101  224 1    
   203  102  103 2    
   204  102  104 am   BACKBONE|DICT|INTERRES
   205  104  105 1    
   206  104  225 1    
   207  105  106 1    
   208  105  107 1    
   209  105  226 1    
   210  106  227 1    
   211  106  228 1    
   212  106  229 1    
   213  107  108 2    
   214  107  109 am   BACKBONE|DICT|INTERRES
   215  109  110 1    
   216  109  230 1    
   217  110  111 1    
   218  110  112 1    
   219  110  231 1    
   220  111  232 1    
   221  111  233 1    
   222  111  234 1    
   223  112  113 2    
   224  112  114 am   BACKBONE|DICT|INTERRES
   225  114  115 1    
   226  114  235 1    
   227  115  116 1    
   228  115  117 1    
   229  115  236 1    
   230  116  237 1    
   231  116  238 1    
   232  116  239 1    
   233  117  118 2    
   234  117  119 am   BACKBONE|DICT|INTERRES
   235  119  120 1    
   236  119  240 1    
   237  120  121 1    
   238  120  124 1    
   239  120  241 1    
   240  121  122 am   BACKBONE|DICT|INTERRES
   241  121  123 2    
   242  122  242 1    
   243  122  243 1    
   244  124  125 1    
   245  124  244 1    
   246  124  245 1    
   247  125  126 1    
   248  126  246 1    
   249  126  247 1    
@<TRIPOS>SUBSTRUCTURE
     1 UNK         1 GROUP             0       ****    0 ROOT    
