@<TRIPOS>MOLECULE
3R540
247   249    1
SMALL
USER_CHARGES


@<TRIPOS>ATOM
      1 CA         -6.7786  -15.6831  -45.0870 C.3       0 UNK        -0.1800 
      2 C          -5.5824  -14.7418  -45.0931 C.2       0 UNK         0.5000 
      3 O          -5.5383  -13.8079  -44.2918 O.2       0 UNK        -0.5000 
      4 N          -4.6190  -14.9737  -45.9929 N.am      1 UNK        -0.5000 
      5 CA         -3.3689  -14.2177  -46.0792 C.3       1 UNK         0.1400 
      6 C6         -2.6439  -14.4302  -47.4290 C.3       23 UNK        -0.0398 
      7 S7         -3.4778  -13.6521  -48.8603 S.3       23 UNK        -0.2404 
      8 C8         -4.7183  -14.8673  -49.4358 C.3       23 UNK        -0.0205 
      9 C9         -4.2893  -16.3183  -49.2753 C.ar      23 UNK        -0.0193 
     10 C10        -3.1340  -16.7973  -49.8996 C.ar      23 UNK        -0.1150 
     11 C11        -2.6961  -18.1118  -49.6859 C.ar      23 UNK        -0.0193 
     12 C12        -3.4559  -18.9501  -48.8646 C.ar      23 UNK        -0.1150 
     13 C13        -4.6178  -18.4844  -48.2437 C.ar      23 UNK        -0.0193 
     14 C14        -5.0378  -17.1740  -48.4668 C.ar      23 UNK        -0.1150 
     15 C15        -5.4055  -19.3787  -47.3021 C.3       23 UNK        -0.0205 
     16 S16        -5.0243  -19.0220  -45.5511 S.3       23 UNK        -0.2404 
     17 C17        -3.2131  -19.2673  -45.4439 C.3       23 UNK        -0.0398 
     18 CA         -2.7587  -20.7111  -45.7644 C.3       11 UNK         0.1400 
     19 N          -1.3403  -20.7810  -46.1268 N.am      11 UNK        -0.5000 
     20 C          -0.7709  -21.8292  -46.7391 C.2       10 UNK         0.5000 
     21 O          -1.3866  -22.8442  -47.0569 O.2       10 UNK        -0.5000 
     22 CA          0.7451  -21.7651  -46.9901 C.3       10 UNK         0.1400 
     23 CB          1.0767  -20.8840  -48.2028 C.3       10 UNK        -0.1800 
     24 N           1.4749  -21.2960  -45.8147 N.am      10 UNK        -0.5000 
     25 C           1.5499  -21.9727  -44.6601 C.2       9 UNK         0.5000 
     26 O           1.0748  -23.0966  -44.4967 O.2       9 UNK        -0.5000 
     27 CA          2.2399  -21.2666  -43.4799 C.3       9 UNK         0.1400 
     28 CB          3.7616  -21.4617  -43.5499 C.3       9 UNK        -0.1800 
     29 N           1.9279  -19.8379  -43.4058 N.am      9 UNK        -0.5000 
     30 C           0.7056  -19.3332  -43.1810 C.2       8 UNK         0.5000 
     31 O          -0.2932  -20.0248  -42.9858 O.2       8 UNK        -0.5000 
     32 CA          0.5653  -17.8002  -43.2335 C.3       8 UNK         0.1400 
     33 CB          1.1143  -17.1526  -41.9528 C.3       8 UNK        -0.1800 
     34 N           1.2281  -17.2213  -44.4017 N.am      8 UNK        -0.5000 
     35 C           0.8968  -17.4931  -45.6728 C.2       7 UNK         0.5000 
     36 O          -0.0275  -18.2362  -46.0010 O.2       7 UNK        -0.5000 
     37 CA          1.7949  -16.8799  -46.7589 C.3       7 UNK         0.1400 
     38 CB          1.4145  -15.4151  -47.0248 C.3       7 UNK        -0.1800 
     39 N           3.2126  -16.9742  -46.4044 N.am      7 UNK        -0.5000 
     40 C           3.8983  -18.1259  -46.3479 C.2       6 UNK         0.5000 
     41 O           3.4137  -19.2240  -46.6164 O.2       6 UNK        -0.5000 
     42 CA          5.3596  -18.0431  -45.8714 C.3       6 UNK         0.1400 
     43 CB          6.2833  -17.6186  -47.0229 C.3       6 UNK        -0.1800 
     44 N           5.5335  -17.1258  -44.7455 N.am      6 UNK        -0.5000 
     45 C           5.0072  -17.3099  -43.5263 C.2       5 UNK         0.5000 
     46 O           4.3472  -18.2971  -43.2074 O.2       5 UNK        -0.5000 
     47 CA          5.2069  -16.1727  -42.5078 C.3       5 UNK         0.1400 
     48 CB          6.5219  -16.3620  -41.7375 C.3       5 UNK        -0.1800 
     49 N           5.1870  -14.8411  -43.1197 N.am      5 UNK        -0.5000 
     50 C           4.1419  -14.3261  -43.7786 C.2       4 UNK         0.5000 
     51 O           3.0753  -14.9260  -43.9558 O.2       4 UNK        -0.5000 
     52 CA          4.3372  -12.9293  -44.3792 C.3       4 UNK         0.1400 
     53 CB          5.0747  -13.0090  -45.7262 C.3       4 UNK        -0.1800 
     54 N           3.0176  -12.3557  -44.5839 N.am      4 UNK        -0.5000 
     55 C           2.6706  -11.0763  -44.4228 C.2       3 UNK         0.5000 
     56 O           3.4717  -10.1720  -44.1828 O.2       3 UNK        -0.5000 
     57 CA          1.1669  -10.7549  -44.5411 C.3       3 UNK         0.1400 
     58 CB          0.8578  -10.1306  -45.9108 C.3       3 UNK        -0.1800 
     59 N           0.3063  -11.9289  -44.3540 N.am      3 UNK        -0.5000 
     60 C           0.0937  -12.5509  -43.1832 C.2       2 UNK         0.5000 
     61 O           0.5915  -12.1805  -42.1195 O.2       2 UNK        -0.5000 
     62 CA         -0.8359  -13.7785  -43.2184 C.3       2 UNK         0.1400 
     63 CB         -1.5079  -14.0736  -41.8632 C.3       2 UNK        -0.1800 
     64 N          -1.8461  -13.6191  -44.2638 N.am      2 UNK        -0.5000 
     65 C          -2.4333  -14.6217  -44.9233 C.2       1 UNK         0.5000 
     66 O          -2.2324  -15.8141  -44.6857 O.2       1 UNK        -0.5000 
     67 C          -3.1520  -21.7180  -44.6630 C.2       11 UNK         0.5000 
     68 O          -4.2593  -22.2541  -44.7087 O.2       11 UNK        -0.5000 
     69 N          -2.2283  -22.0404  -43.7465 N.am      12 UNK        -0.5000 
     70 CA         -2.3841  -23.1184  -42.7626 C.3       12 UNK         0.1400 
     71 CB         -1.2268  -23.0650  -41.7542 C.3       12 UNK        -0.1800 
     72 C          -2.4968  -24.5226  -43.3991 C.2       12 UNK         0.5000 
     73 O          -3.0648  -25.4219  -42.7789 O.2       12 UNK        -0.5000 
     74 N          -1.9940  -24.6729  -44.6317 N.am      13 UNK        -0.5000 
     75 CA         -2.1297  -25.8574  -45.4794 C.3       13 UNK         0.1400 
     76 CB         -0.7471  -26.1888  -46.0681 C.3       13 UNK        -0.1800 
     77 C          -3.1803  -25.6477  -46.5940 C.2       13 UNK         0.5000 
     78 O          -3.2097  -26.4250  -47.5487 O.2       13 UNK        -0.5000 
     79 N          -3.9981  -24.5882  -46.4856 N.am      14 UNK        -0.5000 
     80 CA         -5.0505  -24.1093  -47.3946 C.3       14 UNK         0.1400 
     81 CB         -6.1481  -25.1722  -47.5887 C.3       14 UNK        -0.1800 
     82 C          -4.5668  -23.5718  -48.7569 C.2       14 UNK         0.5000 
     83 O          -5.2552  -22.7340  -49.3425 O.2       14 UNK        -0.5000 
     84 N          -3.4283  -24.0690  -49.2597 N.am      15 UNK        -0.5000 
     85 CA         -2.8003  -23.7446  -50.5467 C.3       15 UNK         0.1400 
     86 CB         -2.2723  -22.2956  -50.5422 C.3       15 UNK        -0.1800 
     87 C          -3.7197  -24.0210  -51.7546 C.2       15 UNK         0.5000 
     88 O          -3.6506  -23.3024  -52.7532 O.2       15 UNK        -0.5000 
     89 N          -4.5977  -25.0276  -51.6273 N.am      16 UNK        -0.5000 
     90 CA         -5.6733  -25.3749  -52.5652 C.3       16 UNK         0.1400 
     91 CB         -5.0880  -25.9455  -53.8743 C.3       16 UNK        -0.1800 
     92 C          -6.6622  -24.2079  -52.7986 C.2       16 UNK         0.5000 
     93 O          -7.1436  -24.0234  -53.9165 O.2       16 UNK        -0.5000 
     94 N          -6.9221  -23.4351  -51.7313 N.am      17 UNK        -0.5000 
     95 CA         -7.6808  -22.1809  -51.6986 C.3       17 UNK         0.1400 
     96 CB         -9.1497  -22.3888  -52.1257 C.3       17 UNK        -0.1800 
     97 C          -6.9577  -21.0619  -52.4759 C.2       17 UNK         0.5000 
     98 O          -7.5672  -20.3883  -53.3086 O.2       17 UNK        -0.5000 
     99 N          -5.6598  -20.9003  -52.1735 N.am      18 UNK        -0.5000 
    100 CA        -4.7219  -19.9324  -52.7568 C.3       18 UNK         0.1400 
    101 CB        -5.1148  -18.4935  -52.3636 C.3       18 UNK        -0.1800 
    102 C         -4.5411  -20.1157  -54.2792 C.2       18 UNK         0.5000 
    103 O         -4.6117  -19.1450  -55.0365 O.2       18 UNK        -0.5000 
    104 N         -4.3281  -21.3698  -54.6943 N.am      19 UNK        -0.5000 
    105 CA        -4.1091  -21.7701  -56.0845 C.3       19 UNK         0.1400 
    106 CB        -5.2846  -22.6412  -56.5522 C.3       19 UNK        -0.1800 
    107 C         -2.7770  -22.5177  -56.2623 C.2       19 UNK         0.5000 
    108 O         -2.1557  -22.3894  -57.3179 O.2       19 UNK        -0.5000 
    109 N         -2.3464  -23.2720  -55.2407 N.am      20 UNK        -0.5000 
    110 CA        -1.0738  -23.9994  -55.2270 C.3       20 UNK         0.1400 
    111 CB        -1.2070  -25.2268  -54.3117 C.3       20 UNK        -0.1800 
    112 C          0.1038  -23.1162  -54.7710 C.2       20 UNK         0.5000 
    113 O          1.2583  -23.4858  -54.9894 O.2       20 UNK        -0.5000 
    114 N         -0.2031  -21.9732  -54.1501 N.am      21 UNK        -0.5000 
    115 CA         0.7356  -20.9580  -53.6927 C.3       21 UNK         0.1400 
    116 CB         1.2515  -21.3153  -52.2862 C.3       21 UNK        -0.1800 
    117 C          0.0173  -19.6015  -53.6986 C.2       21 UNK         0.5000 
    118 O         -1.2080  -19.5574  -53.8400 O.2       21 UNK        -0.5000 
    119 N          0.7974  -18.5286  -53.5261 N.am      22 UNK        -0.5000 
    120 CA         0.3509  -17.1229  -53.4608 C.3       22 UNK         0.1400 
    121 C         -0.1108  -16.5190  -54.8234 C.2       22 UNK         0.5000 
    122 N          0.1541  -17.1576  -55.9566 N.am      22 UNK        -0.7600 
    123 O         -0.6877  -15.4355  -54.8629 O.2       22 UNK        -0.5000 
    124 C124       -0.6675  -16.8353  -52.3194 C.3       23 UNK        -0.0398 
    125 S125       -0.1230  -17.4363  -50.6795 S.3       23 UNK        -0.2404 
    126 C126       -1.4181  -18.6709  -50.3111 C.3       23 UNK        -0.0205 
    127 H127       -7.6972  -15.1247  -45.2665 H         1 UNK         0.0600 
    128 H128       -6.8612  -16.1762  -44.1184 H         1 UNK         0.0600 
    129 H129       -6.6966  -16.4549  -45.8507 H         1 UNK         0.0600 
    130 H130       -4.6771  -15.7832  -46.5932 H         1 UNK         0.3000 
    131 H131       -3.6047  -13.1553  -45.9841 H         1 UNK         0.0600 
    132 H132       -1.6566  -13.9666  -47.3908 H         1 UNK         0.0800 
    133 H133       -2.4498  -15.4882  -47.6051 H         1 UNK         0.0800 
    134 H134       -5.6487  -14.6814  -48.8970 H         1 UNK         0.0800 
    135 H135       -4.9357  -14.6770  -50.4875 H         1 UNK         0.0800 
    136 H136       -2.5681  -16.1212  -50.5209 H         1 UNK         0.1150 
    137 H137       -3.1287  -19.9646  -48.6913 H         1 UNK         0.1150 
    138 H138       -5.9401  -16.8168  -47.9927 H         1 UNK         0.1150 
    139 H139       -6.4726  -19.2185  -47.4627 H         1 UNK         0.0800 
    140 H140       -5.2333  -20.4314  -47.5274 H         1 UNK         0.0800 
    141 H141       -2.8729  -18.9678  -44.4509 H         1 UNK         0.0800 
    142 H142       -2.7440  -18.5609  -46.1300 H         1 UNK         0.0800 
    143 H143       -3.2903  -21.0394  -46.6563 H         1 UNK         0.0600 
    144 H144       -0.7769  -19.9571  -45.9262 H         1 UNK         0.3000 
    145 H145        1.0852  -22.7788  -47.2124 H         1 UNK         0.0600 
    146 H146        2.1433  -20.9080  -48.4259 H         1 UNK         0.0600 
    147 H147        0.5553  -21.2336  -49.0931 H         1 UNK         0.0600 
    148 H148        0.7952  -19.8441  -48.0379 H         1 UNK         0.0600 
    149 H149        1.9461  -20.4008  -45.8970 H         1 UNK         0.3000 
    150 H150        1.8800  -21.7327  -42.5604 H         1 UNK         0.0600 
    151 H151        4.0191  -22.5203  -43.6003 H         1 UNK         0.0600 
    152 H152        4.2521  -21.0498  -42.6678 H         1 UNK         0.0600 
    153 H153        4.1888  -20.9760  -44.4279 H         1 UNK         0.0600 
    154 H154        2.7126  -19.2001  -43.5131 H         1 UNK         0.3000 
    155 H155       -0.4983  -17.5633  -43.3066 H         1 UNK         0.0600 
    156 H156        0.5803  -17.5171  -41.0746 H         1 UNK         0.0600 
    157 H157        1.0042  -16.0689  -41.9740 H         1 UNK         0.0600 
    158 H158        2.1713  -17.3751  -41.8086 H         1 UNK         0.0600 
    159 H159        1.9949  -16.5803  -44.2251 H         1 UNK         0.3000 
    160 H160        1.6370  -17.4419  -47.6822 H         1 UNK         0.0600 
    161 H161        1.5144  -14.7975  -46.1325 H         1 UNK         0.0600 
    162 H162        0.3791  -15.3445  -47.3587 H         1 UNK         0.0600 
    163 H163        2.0371  -14.9809  -47.8071 H         1 UNK         0.0600 
    164 H164        3.6667  -16.1228  -46.1107 H         1 UNK         0.3000 
    165 H165        5.6592  -19.0408  -45.5434 H         1 UNK         0.0600 
    166 H166        7.3292  -17.6368  -46.7161 H         1 UNK         0.0600 
    167 H167        6.1832  -18.2954  -47.8725 H         1 UNK         0.0600 
    168 H168        6.0540  -16.6123  -47.3757 H         1 UNK         0.0600 
    169 H169        6.0639  -16.2849  -44.9176 H         1 UNK         0.3000 
    170 H170        4.3829  -16.2223  -41.7932 H         1 UNK         0.0600 
    171 H171        6.5540  -17.3400  -41.2553 H         1 UNK         0.0600 
    172 H172        7.3890  -16.2916  -42.3953 H         1 UNK         0.0600 
    173 H173        6.6319  -15.6118  -40.9542 H         1 UNK         0.0600 
    174 H174        6.0278  -14.2897  -43.0236 H         1 UNK         0.3000 
    175 H175        4.9080  -12.3211  -43.6743 H         1 UNK         0.0600 
    176 H176        4.5334  -13.6242  -46.4463 H         1 UNK         0.0600 
    177 H177        5.2005  -12.0182  -46.1633 H         1 UNK         0.0600 
    178 H178        6.0700  -13.4384  -45.6062 H         1 UNK         0.0600 
    179 H179        2.2886  -13.0453  -44.7057 H         1 UNK         0.3000 
    180 H180        0.9253  -10.0232  -43.7673 H         1 UNK         0.0600 
    181 H181        1.0718  -10.8225  -46.7265 H         1 UNK         0.0600 
    182 H182        1.4569   -9.2341  -46.0758 H         1 UNK         0.0600 
    183 H183       -0.1895   -9.8368  -45.9840 H         1 UNK         0.0600 
    184 H184       -0.1170  -12.3068  -45.1881 H         1 UNK         0.3000 
    185 H185       -0.1974  -14.6256  -43.4771 H         1 UNK         0.0600 
    186 H186       -0.7653  -14.2299  -41.0799 H         1 UNK         0.0600 
    187 H187       -2.1526  -13.2518  -41.5504 H         1 UNK         0.0600 
    188 H188       -2.1159  -14.9771  -41.9118 H         1 UNK         0.0600 
    189 H189       -2.0982  -12.6650  -44.4847 H         1 UNK         0.3000 
    190 H190       -1.3625  -21.5100  -43.7117 H         1 UNK         0.3000 
    191 H191       -3.3125  -22.9352  -42.2179 H         1 UNK         0.0600 
    192 H192       -0.2651  -23.2450  -42.2330 H         1 UNK         0.0600 
    193 H193       -1.1787  -22.0953  -41.2585 H         1 UNK         0.0600 
    194 H194       -1.3514  -23.8206  -40.9776 H         1 UNK         0.0600 
    195 H195       -1.5472  -23.8769  -45.0710 H         1 UNK         0.3000 
    196 H196       -2.4595  -26.7121  -44.8860 H         1 UNK         0.0600 
    197 H197       -0.0085  -26.3328  -45.2793 H         1 UNK         0.0600 
    198 H198       -0.3863  -25.3924  -46.7200 H         1 UNK         0.0600 
    199 H199       -0.7766  -27.1077  -46.6547 H         1 UNK         0.0600 
    200 H200       -3.8660  -23.9906  -45.6773 H         1 UNK         0.3000 
    201 H201       -5.5094  -23.2601  -46.8866 H         1 UNK         0.0600 
    202 H202       -6.9824  -24.7693  -48.1644 H         1 UNK         0.0600 
    203 H203       -6.5472  -25.5049  -46.6305 H         1 UNK         0.0600 
    204 H204       -5.7801  -26.0490  -48.1219 H         1 UNK         0.0600 
    205 H205       -2.9711  -24.7899  -48.7124 H         1 UNK         0.3000 
    206 H206       -1.9446  -24.4121  -50.6543 H         1 UNK         0.0600 
    207 H207       -1.5810  -22.1326  -49.7176 H         1 UNK         0.0600 
    208 H208       -3.0807  -21.5719  -50.4487 H         1 UNK         0.0600 
    209 H209       -1.7387  -22.0682  -51.4648 H         1 UNK         0.0600 
    210 H210       -4.5726  -25.5623  -50.7704 H         1 UNK         0.3000 
    211 H211       -6.2520  -26.1686  -52.0908 H         1 UNK         0.0600 
    212 H212       -4.4192  -26.7823  -53.6736 H         1 UNK         0.0600 
    213 H213       -5.8781  -26.3135  -54.5297 H         1 UNK         0.0600 
    214 H214       -4.5260  -25.1961  -54.4304 H         1 UNK         0.0600 
    215 H215       -6.4263  -23.6405  -50.8724 H         1 UNK         0.3000 
    216 H216       -7.6921  -21.8634  -50.6547 H         1 UNK         0.0600 
    217 H217       -9.7329  -21.4831  -51.9562 H         1 UNK         0.0600 
    218 H218       -9.2395  -22.6371  -53.1833 H         1 UNK         0.0600 
    219 H219       -9.6177  -23.1883  -51.5516 H         1 UNK         0.0600 
    220 H220       -5.2668  -21.5233  -51.4805 H         1 UNK         0.3000 
    221 H221       -3.7490  -20.1387  -52.3099 H         1 UNK         0.0600 
    222 H222       -6.0349  -18.1739  -52.8534 H         1 UNK         0.0600 
    223 H223       -5.2647  -18.4069  -51.2882 H         1 UNK         0.0600 
    224 H224       -4.3317  -17.7874  -52.6417 H         1 UNK         0.0600 
    225 H225       -4.2700  -22.1014  -53.9906 H         1 UNK         0.3000 
    226 H226       -4.0648  -20.8907  -56.7302 H         1 UNK         0.0600 
    227 H227       -6.2305  -22.1070  -56.4607 H         1 UNK         0.0600 
    228 H228       -5.1690  -22.9256  -57.5987 H         1 UNK         0.0600 
    229 H229       -5.3636  -23.5584  -55.9691 H         1 UNK         0.0600 
    230 H230       -2.8959  -23.3217  -54.3865 H         1 UNK         0.3000 
    231 H231       -0.8513  -24.3547  -56.2353 H         1 UNK         0.0600 
    232 H232       -0.3060  -25.8402  -54.3514 H         1 UNK         0.0600 
    233 H233       -2.0421  -25.8585  -54.6140 H         1 UNK         0.0600 
    234 H234       -1.3582  -24.9400  -53.2715 H         1 UNK         0.0600 
    235 H235       -1.1744  -21.6984  -54.0750 H         1 UNK         0.3000 
    236 H236        1.5747  -20.9016  -54.3893 H         1 UNK         0.0600 
    237 H237        1.7104  -22.3039  -52.2696 H         1 UNK         0.0600 
    238 H238        2.0068  -20.6038  -51.9510 H         1 UNK         0.0600 
    239 H239        0.4494  -21.3060  -51.5494 H         1 UNK         0.0600 
    240 H240        1.7920  -18.6658  -53.4180 H         1 UNK         0.3000 
    241 H241        1.2526  -16.5606  -53.2163 H         1 UNK         0.0600 
    242 H242       -0.1378  -16.7540  -56.8330 H         1 UNK         0.3800 
    243 H243        0.6366  -18.0414  -55.9475 H         1 UNK         0.3800 
    244 H244       -0.8276  -15.7600  -52.2264 H         1 UNK         0.0800 
    245 H245       -1.6424  -17.2579  -52.5667 H         1 UNK         0.0800 
    246 H246       -0.9823  -19.3975  -49.6265 H         1 UNK         0.0800 
    247 H247       -1.6755  -19.2248  -51.2131 H         1 UNK         0.0800 
@<TRIPOS>BOND
     1    1    2 1    
     2    1  127 1    
     3    1  128 1    
     4    1  129 1    
     5    2    3 2    
     6    2    4 am   BACKBONE|DICT|INTERRES
     7    4    5 1    
     8    4  130 1    
     9    5    6 1    
    10    5   65 1    
    11    5  131 1    
    12    6    7 1    
    13    6  132 1    
    14    6  133 1    
    15    7    8 1    
    16    8    9 1    
    17    8  134 1    
    18    8  135 1    
    19    9   10 ar   
    20    9   14 ar   
    21   10   11 ar   
    22   10  136 1    
    23   11   12 ar   
    24   11  126 1    
    25   12   13 ar   
    26   12  137 1    
    27   13   14 ar   
    28   13   15 1    
    29   14  138 1    
    30   15   16 1    
    31   15  139 1    
    32   15  140 1    
    33   16   17 1    
    34   17   18 1    
    35   17  141 1    
    36   17  142 1    
    37   18   19 1    
    38   18   67 1    
    39   18  143 1    
    40   19   20 am   BACKBONE|DICT|INTERRES
    41   19  144 1    
    42   20   21 2    
    43   20   22 1    
    44   22   23 1    
    45   22   24 1    
    46   22  145 1    
    47   23  146 1    
    48   23  147 1    
    49   23  148 1    
    50   24   25 am   BACKBONE|DICT|INTERRES
    51   24  149 1    
    52   25   26 2    
    53   25   27 1    
    54   27   28 1    
    55   27   29 1    
    56   27  150 1    
    57   28  151 1    
    58   28  152 1    
    59   28  153 1    
    60   29   30 am   BACKBONE|DICT|INTERRES
    61   29  154 1    
    62   30   31 2    
    63   30   32 1    
    64   32   33 1    
    65   32   34 1    
    66   32  155 1    
    67   33  156 1    
    68   33  157 1    
    69   33  158 1    
    70   34   35 am   BACKBONE|DICT|INTERRES
    71   34  159 1    
    72   35   36 2    
    73   35   37 1    
    74   37   38 1    
    75   37   39 1    
    76   37  160 1    
    77   38  161 1    
    78   38  162 1    
    79   38  163 1    
    80   39   40 am   BACKBONE|DICT|INTERRES
    81   39  164 1    
    82   40   41 2    
    83   40   42 1    
    84   42   43 1    
    85   42   44 1    
    86   42  165 1    
    87   43  166 1    
    88   43  167 1    
    89   43  168 1    
    90   44   45 am   BACKBONE|DICT|INTERRES
    91   44  169 1    
    92   45   46 2    
    93   45   47 1    
    94   47   48 1    
    95   47   49 1    
    96   47  170 1    
    97   48  171 1    
    98   48  172 1    
    99   48  173 1    
   100   49   50 am   BACKBONE|DICT|INTERRES
   101   49  174 1    
   102   50   51 2    
   103   50   52 1    
   104   52   53 1    
   105   52   54 1    
   106   52  175 1    
   107   53  176 1    
   108   53  177 1    
   109   53  178 1    
   110   54   55 am   BACKBONE|DICT|INTERRES
   111   54  179 1    
   112   55   56 2    
   113   55   57 1    
   114   57   58 1    
   115   57   59 1    
   116   57  180 1    
   117   58  181 1    
   118   58  182 1    
   119   58  183 1    
   120   59   60 am   BACKBONE|DICT|INTERRES
   121   59  184 1    
   122   60   61 2    
   123   60   62 1    
   124   62   63 1    
   125   62   64 1    
   126   62  185 1    
   127   63  186 1    
   128   63  187 1    
   129   63  188 1    
   130   64   65 am   BACKBONE|DICT|INTERRES
   131   64  189 1    
   132   65   66 2    
   133   67   68 2    
   134   67   69 am   BACKBONE|DICT|INTERRES
   135   69   70 1    
   136   69  190 1    
   137   70   71 1    
   138   70   72 1    
   139   70  191 1    
   140   71  192 1    
   141   71  193 1    
   142   71  194 1    
   143   72   73 2    
   144   72   74 am   BACKBONE|DICT|INTERRES
   145   74   75 1    
   146   74  195 1    
   147   75   76 1    
   148   75   77 1    
   149   75  196 1    
   150   76  197 1    
   151   76  198 1    
   152   76  199 1    
   153   77   78 2    
   154   77   79 am   BACKBONE|DICT|INTERRES
   155   79   80 1    
   156   79  200 1    
   157   80   81 1    
   158   80   82 1    
   159   80  201 1    
   160   81  202 1    
   161   81  203 1    
   162   81  204 1    
   163   82   83 2    
   164   82   84 am   BACKBONE|DICT|INTERRES
   165   84   85 1    
   166   84  205 1    
   167   85   86 1    
   168   85   87 1    
   169   85  206 1    
   170   86  207 1    
   171   86  208 1    
   172   86  209 1    
   173   87   88 2    
   174   87   89 am   BACKBONE|DICT|INTERRES
   175   89   90 1    
   176   89  210 1    
   177   90   91 1    
   178   90   92 1    
   179   90  211 1    
   180   91  212 1    
   181   91  213 1    
   182   91  214 1    
   183   92   93 2    
   184   92   94 am   BACKBONE|DICT|INTERRES
   185   94   95 1    
   186   94  215 1    
   187   95   96 1    
   188   95   97 1    
   189   95  216 1    
   190   96  217 1    
   191   96  218 1    
   192   96  219 1    
   193   97   98 2    
   194   97   99 am   BACKBONE|DICT|INTERRES
   195   99  100 1    
   196   99  220 1    
   197  100  101 1    
   198  100  102 1    
   199  100  221 1    
   200  101  222 1    
   201  101  223 1    
   202  101  224 1    
   203  102  103 2    
   204  102  104 am   BACKBONE|DICT|INTERRES
   205  104  105 1    
   206  104  225 1    
   207  105  106 1    
   208  105  107 1    
   209  105  226 1    
   210  106  227 1    
   211  106  228 1    
   212  106  229 1    
   213  107  108 2    
   214  107  109 am   BACKBONE|DICT|INTERRES
   215  109  110 1    
   216  109  230 1    
   217  110  111 1    
   218  110  112 1    
   219  110  231 1    
   220  111  232 1    
   221  111  233 1    
   222  111  234 1    
   223  112  113 2    
   224  112  114 am   BACKBONE|DICT|INTERRES
   225  114  115 1    
   226  114  235 1    
   227  115  116 1    
   228  115  117 1    
   229  115  236 1    
   230  116  237 1    
   231  116  238 1    
   232  116  239 1    
   233  117  118 2    
   234  117  119 am   BACKBONE|DICT|INTERRES
   235  119  120 1    
   236  119  240 1    
   237  120  121 1    
   238  120  124 1    
   239  120  241 1    
   240  121  122 am   BACKBONE|DICT|INTERRES
   241  121  123 2    
   242  122  242 1    
   243  122  243 1    
   244  124  125 1    
   245  124  244 1    
   246  124  245 1    
   247  125  126 1    
   248  126  246 1    
   249  126  247 1    
@<TRIPOS>SUBSTRUCTURE
     1 UNK         1 GROUP             0       ****    0 ROOT    
