@<TRIPOS>MOLECULE
3R540
247   249    1
SMALL
USER_CHARGES


@<TRIPOS>ATOM
      1 CA         -6.0348  -16.7757  -47.0866 C.3       0 UNK        -0.1800 
      2 C          -4.8196  -15.8721  -46.9407 C.2       0 UNK         0.5000 
      3 O          -4.6581  -15.2215  -45.9094 O.2       0 UNK        -0.5000 
      4 N          -3.9469  -15.8375  -47.9560 N.am      1 UNK        -0.5000 
      5 CA         -2.7450  -14.9906  -47.9929 C.3       1 UNK         0.1400 
      6 C6         -2.1129  -14.9254  -49.4045 C.3       23 UNK        -0.0398 
      7 S7         -1.6001  -16.5349  -50.1030 S.3       23 UNK        -0.2404 
      8 C8          0.1889  -16.4951  -49.7873 C.3       23 UNK        -0.0205 
      9 C9          0.9295  -17.6418  -50.4600 C.ar      23 UNK        -0.0193 
     10 C10         1.9523  -17.3668  -51.3714 C.ar      23 UNK        -0.1150 
     11 C11         2.7035  -18.4016  -51.9328 C.ar      23 UNK        -0.0193 
     12 C12         2.4234  -19.7246  -51.5801 C.ar      23 UNK        -0.1150 
     13 C13         1.3948  -20.0173  -50.6791 C.ar      23 UNK        -0.0193 
     14 C14         0.6485  -18.9710  -50.1257 C.ar      23 UNK        -0.1150 
     15 C15         1.0984  -21.4641  -50.3106 C.3       23 UNK        -0.0205 
     16 S16         1.7904  -21.9116  -48.6836 S.3       23 UNK        -0.2404 
     17 C17         0.3938  -21.5377  -47.5738 C.3       23 UNK        -0.0398 
     18 CA         -0.1151  -22.8020  -46.8414 C.3       11 UNK         0.1400 
     19 N           0.7697  -23.2034  -45.7435 N.am      11 UNK        -0.5000 
     20 C           0.7434  -24.4109  -45.1594 C.2       10 UNK         0.5000 
     21 O          -0.0179  -25.3146  -45.5017 O.2       10 UNK        -0.5000 
     22 CA          1.6769  -24.6288  -43.9517 C.3       10 UNK         0.1400 
     23 CB          3.0755  -25.0535  -44.4223 C.3       10 UNK        -0.1800 
     24 N           1.7942  -23.4454  -43.0988 N.am      10 UNK        -0.5000 
     25 C           0.7698  -22.8355  -42.4865 C.2       9 UNK         0.5000 
     26 O          -0.3780  -23.2781  -42.4913 O.2       9 UNK        -0.5000 
     27 CA          1.0490  -21.4816  -41.8027 C.3       9 UNK         0.1400 
     28 CB          1.0897  -21.6525  -40.2771 C.3       9 UNK        -0.1800 
     29 N           2.2769  -20.8075  -42.2412 N.am      9 UNK        -0.5000 
     30 C           2.5582  -20.4217  -43.4935 C.2       8 UNK         0.5000 
     31 O           1.8296  -20.6521  -44.4627 O.2       8 UNK        -0.5000 
     32 CA          3.9227  -19.7352  -43.6893 C.3       8 UNK         0.1400 
     33 CB          5.0417  -20.7884  -43.7367 C.3       8 UNK        -0.1800 
     34 N           3.9797  -18.9448  -44.9170 N.am      8 UNK        -0.5000 
     35 C           3.3110  -17.8064  -45.1301 C.2       7 UNK         0.5000 
     36 O           2.6090  -17.2445  -44.2841 O.2       7 UNK        -0.5000 
     37 CA          3.4605  -17.1970  -46.5304 C.3       7 UNK         0.1400 
     38 CB          2.7995  -18.0832  -47.5978 C.3       7 UNK        -0.1800 
     39 N           2.8555  -15.8708  -46.5354 N.am      7 UNK        -0.5000 
     40 C           3.1824  -14.8504  -47.3363 C.2       6 UNK         0.5000 
     41 O           4.0107  -14.9356  -48.2434 O.2       6 UNK        -0.5000 
     42 CA          2.4759  -13.5012  -47.0820 C.3       6 UNK         0.1400 
     43 CB          1.5017  -13.1732  -48.2219 C.3       6 UNK        -0.1800 
     44 N           1.7542  -13.4688  -45.8050 N.am      6 UNK        -0.5000 
     45 C           2.3452  -13.2517  -44.6205 C.2       5 UNK         0.5000 
     46 O           3.5442  -12.9905  -44.5071 O.2       5 UNK        -0.5000 
     47 CA          1.4760  -13.3914  -43.3540 C.3       5 UNK         0.1400 
     48 CB          1.9911  -12.5445  -42.1709 C.3       5 UNK        -0.1800 
     49 N           0.0445  -13.1717  -43.5784 N.am      5 UNK        -0.5000 
     50 C          -0.5813  -12.0279  -43.8997 C.2       4 UNK         0.5000 
     51 O           0.0037  -10.9617  -44.0931 O.2       4 UNK        -0.5000 
     52 CA         -2.1228  -12.0735  -44.0229 C.3       4 UNK         0.1400 
     53 CB         -2.5905  -11.5504  -45.3918 C.3       4 UNK        -0.1800 
     54 N          -2.6682  -13.4177  -43.8183 N.am      4 UNK        -0.5000 
     55 C          -2.9221  -13.9823  -42.6288 C.2       3 UNK         0.5000 
     56 O          -2.8517  -13.3807  -41.5573 O.2       3 UNK        -0.5000 
     57 CA         -3.2461  -15.4899  -42.6358 C.3       3 UNK         0.1400 
     58 CB         -4.7622  -15.7318  -42.5803 C.3       3 UNK        -0.1800 
     59 N          -2.6723  -16.1714  -43.8025 N.am      3 UNK        -0.5000 
     60 C          -1.3645  -16.4428  -43.9375 C.2       2 UNK         0.5000 
     61 O          -0.5346  -16.1959  -43.0643 O.2       2 UNK        -0.5000 
     62 CA         -0.8875  -17.0224  -45.2833 C.3       2 UNK         0.1400 
     63 CB         -0.8676  -18.5533  -45.2428 C.3       2 UNK        -0.1800 
     64 N          -1.6975  -16.5776  -46.4181 N.am      2 UNK        -0.5000 
     65 C          -1.7105  -15.3245  -46.8908 C.2       1 UNK         0.5000 
     66 O          -0.9786  -14.4380  -46.4497 O.2       1 UNK        -0.5000 
     67 C          -1.5700  -22.6149  -46.3667 C.2       11 UNK         0.5000 
     68 O          -2.4872  -22.8744  -47.1469 O.2       11 UNK        -0.5000 
     69 N          -1.7686  -22.1884  -45.1106 N.am      12 UNK        -0.5000 
     70 CA         -3.0898  -22.0994  -44.4858 C.3       12 UNK         0.1400 
     71 CB         -3.0309  -21.2231  -43.2233 C.3       12 UNK        -0.1800 
     72 C          -3.6483  -23.4956  -44.1619 C.2       12 UNK         0.5000 
     73 O          -4.8084  -23.7691  -44.4669 O.2       12 UNK        -0.5000 
     74 N          -2.7990  -24.3629  -43.5921 N.am      13 UNK        -0.5000 
     75 CA         -3.1156  -25.7481  -43.2371 C.3       13 UNK         0.1400 
     76 CB         -1.9424  -26.3514  -42.4503 C.3       13 UNK        -0.1800 
     77 C          -3.4617  -26.6233  -44.4563 C.2       13 UNK         0.5000 
     78 O          -4.4047  -27.4124  -44.3903 O.2       13 UNK        -0.5000 
     79 N          -2.7166  -26.4445  -45.5557 N.am      14 UNK        -0.5000 
     80 CA         -2.9557  -27.1068  -46.8405 C.3       14 UNK         0.1400 
     81 CB         -1.6743  -27.0185  -47.6855 C.3       14 UNK        -0.1800 
     82 C          -4.1441  -26.5162  -47.6267 C.2       14 UNK         0.5000 
     83 O          -4.5748  -27.1273  -48.6048 O.2       14 UNK        -0.5000 
     84 N          -4.6168  -25.3279  -47.2186 N.am      15 UNK        -0.5000 
     85 CA         -5.6333  -24.4870  -47.8649 C.3       15 UNK         0.1400 
     86 CB         -6.9979  -25.2018  -47.9344 C.3       15 UNK        -0.1800 
     87 C          -5.1898  -23.9174  -49.2307 C.2       15 UNK         0.5000 
     88 O          -6.0188  -23.4026  -49.9816 O.2       15 UNK        -0.5000 
     89 N          -3.8810  -23.9710  -49.5115 N.am      16 UNK        -0.5000 
     90 CA         -3.2356  -23.4044  -50.6945 C.3       16 UNK         0.1400 
     91 CB         -1.7970  -23.9362  -50.7746 C.3       16 UNK        -0.1800 
     92 C          -3.2509  -21.8653  -50.6879 C.2       16 UNK         0.5000 
     93 O          -3.2780  -21.2518  -51.7525 O.2       16 UNK        -0.5000 
     94 N          -3.2851  -21.2709  -49.4871 N.am      17 UNK        -0.5000 
     95 CA         -3.3865  -19.8306  -49.2484 C.3       17 UNK         0.1400 
     96 CB         -3.2531  -19.5826  -47.7403 C.3       17 UNK        -0.1800 
     97 C          -4.6802  -19.1752  -49.7735 C.2       17 UNK         0.5000 
     98 O          -4.7183  -17.9521  -49.9057 O.2       17 UNK        -0.5000 
     99 N          -5.7174  -19.9807  -50.0389 N.am      18 UNK        -0.5000 
    100 CA        -6.9918  -19.5307  -50.5972 C.3       18 UNK         0.1400 
    101 CB        -8.0754  -20.5612  -50.2431 C.3       18 UNK        -0.1800 
    102 C         -6.9417  -19.2992  -52.1218 C.2       18 UNK         0.5000 
    103 O         -7.8582  -18.6746  -52.6587 O.2       18 UNK        -0.5000 
    104 N         -5.9054  -19.8132  -52.8009 N.am      19 UNK        -0.5000 
    105 CA        -5.7026  -19.6552  -54.2408 C.3       19 UNK         0.1400 
    106 CB        -4.7000  -20.7144  -54.7225 C.3       19 UNK        -0.1800 
    107 C         -5.2217  -18.2380  -54.6096 C.2       19 UNK         0.5000 
    108 O         -4.6527  -17.5312  -53.7748 O.2       19 UNK        -0.5000 
    109 N         -5.4434  -17.8587  -55.8745 N.am      20 UNK        -0.5000 
    110 CA        -5.0751  -16.5547  -56.4364 C.3       20 UNK         0.1400 
    111 CB        -5.8963  -16.3244  -57.7154 C.3       20 UNK        -0.1800 
    112 C         -3.5674  -16.3975  -56.7291 C.2       20 UNK         0.5000 
    113 O         -3.1155  -15.2778  -56.9740 O.2       20 UNK        -0.5000 
    114 N         -2.8206  -17.5057  -56.7125 N.am      21 UNK        -0.5000 
    115 CA        -1.3786  -17.5751  -56.9189 C.3       21 UNK         0.1400 
    116 CB        -1.0873  -17.7984  -58.4136 C.3       21 UNK        -0.1800 
    117 C         -0.8119  -18.7140  -56.0581 C.2       21 UNK         0.5000 
    118 O         -1.5797  -19.5342  -55.5485 O.2       21 UNK        -0.5000 
    119 N          0.5175  -18.7371  -55.9131 N.am      22 UNK        -0.5000 
    120 CA         1.2799  -19.7273  -55.1351 C.3       22 UNK         0.1400 
    121 C          1.0386  -21.1940  -55.5933 C.2       22 UNK         0.5000 
    122 N          0.8376  -22.1185  -54.6642 N.am      22 UNK        -0.7600 
    123 O          1.0829  -21.5052  -56.7817 O.2       22 UNK        -0.5000 
    124 C124        2.7993  -19.4202  -55.1638 C.3       23 UNK        -0.0398 
    125 S125        3.2160  -17.7422  -54.5761 S.3       23 UNK        -0.2404 
    126 C126        3.8339  -18.0788  -52.8975 C.3       23 UNK        -0.0205 
    127 H127       -6.3692  -16.8231  -48.1228 H         1 UNK         0.0600 
    128 H128       -6.8625  -16.3992  -46.4855 H         1 UNK         0.0600 
    129 H129       -5.7988  -17.7851  -46.7504 H         1 UNK         0.0600 
    130 H130       -4.1161  -16.4135  -48.7774 H         1 UNK         0.3000 
    131 H131       -3.0861  -13.9782  -47.7660 H         1 UNK         0.0600 
    132 H132       -2.8441  -14.5019  -50.0944 H         1 UNK         0.0800 
    133 H133       -1.2778  -14.2250  -49.4209 H         1 UNK         0.0800 
    134 H134        0.5870  -15.5410  -50.1349 H         1 UNK         0.0800 
    135 H135        0.3707  -16.5356  -48.7131 H         1 UNK         0.0800 
    136 H136        2.1828  -16.3431  -51.6314 H         1 UNK         0.1150 
    137 H137        3.0103  -20.5270  -52.0043 H         1 UNK         0.1150 
    138 H138       -0.1373  -19.1824  -49.4166 H         1 UNK         0.1150 
    139 H139        0.0228  -21.6379  -50.3374 H         1 UNK         0.0800 
    140 H140        1.5259  -22.1347  -51.0573 H         1 UNK         0.0800 
    141 H141       -0.4035  -21.0821  -48.1604 H         1 UNK         0.0800 
    142 H142        0.7177  -20.7793  -46.8621 H         1 UNK         0.0800 
    143 H143       -0.1413  -23.6215  -47.5632 H         1 UNK         0.0600 
    144 H144        1.3849  -22.4857  -45.3757 H         1 UNK         0.3000 
    145 H145        1.2572  -25.4353  -43.3475 H         1 UNK         0.0600 
    146 H146        3.7219  -25.2889  -43.5766 H         1 UNK         0.0600 
    147 H147        3.0223  -25.9457  -45.0477 H         1 UNK         0.0600 
    148 H148        3.5590  -24.2701  -45.0076 H         1 UNK         0.0600 
    149 H149        2.7040  -23.0135  -43.0439 H         1 UNK         0.3000 
    150 H150        0.2125  -20.8247  -42.0498 H         1 UNK         0.0600 
    151 H151        1.9281  -22.2764  -39.9649 H         1 UNK         0.0600 
    152 H152        0.1760  -22.1233  -39.9110 H         1 UNK         0.0600 
    153 H153        1.1798  -20.6898  -39.7736 H         1 UNK         0.0600 
    154 H154        2.9464  -20.6017  -41.5135 H         1 UNK         0.3000 
    155 H155        4.0999  -19.0676  -42.8434 H         1 UNK         0.0600 
    156 H156        4.9048  -21.4841  -44.5660 H         1 UNK         0.0600 
    157 H157        5.0725  -21.3754  -42.8179 H         1 UNK         0.0600 
    158 H158        6.0195  -20.3200  -43.8505 H         1 UNK         0.0600 
    159 H159        4.5028  -19.3499  -45.6790 H         1 UNK         0.3000 
    160 H160        4.5281  -17.1063  -46.7416 H         1 UNK         0.0600 
    161 H161        1.7245  -18.1690  -47.4382 H         1 UNK         0.0600 
    162 H162        3.2109  -19.0931  -47.5971 H         1 UNK         0.0600 
    163 H163        2.9676  -17.6751  -48.5932 H         1 UNK         0.0600 
    164 H164        2.2223  -15.7053  -45.7644 H         1 UNK         0.3000 
    165 H165        3.2457  -12.7267  -47.0723 H         1 UNK         0.0600 
    166 H166        0.9891  -12.2270  -48.0474 H         1 UNK         0.0600 
    167 H167        2.0270  -13.0908  -49.1741 H         1 UNK         0.0600 
    168 H168        0.7483  -13.9492  -48.3318 H         1 UNK         0.0600 
    169 H169        0.7616  -13.6838  -45.8401 H         1 UNK         0.3000 
    170 H170        1.5678  -14.4375  -43.0589 H         1 UNK         0.0600 
    171 H171        3.0026  -12.8396  -41.8893 H         1 UNK         0.0600 
    172 H172        2.0184  -11.4818  -42.4128 H         1 UNK         0.0600 
    173 H173        1.3618  -12.6734  -41.2903 H         1 UNK         0.0600 
    174 H174       -0.5281  -13.9960  -43.4552 H         1 UNK         0.3000 
    175 H175       -2.5258  -11.4091  -43.2560 H         1 UNK         0.0600 
    176 H176       -2.2981  -10.5091  -45.5318 H         1 UNK         0.0600 
    177 H177       -2.1606  -12.1207  -46.2143 H         1 UNK         0.0600 
    178 H178       -3.6759  -11.5961  -45.4827 H         1 UNK         0.0600 
    179 H179       -2.7695  -13.9883  -44.6462 H         1 UNK         0.3000 
    180 H180       -2.8079  -15.9255  -41.7352 H         1 UNK         0.0600 
    181 H181       -5.2835  -15.2529  -43.4085 H         1 UNK         0.0600 
    182 H182       -5.1831  -15.3288  -41.6584 H         1 UNK         0.0600 
    183 H183       -4.9949  -16.7964  -42.6053 H         1 UNK         0.0600 
    184 H184       -3.2981  -16.3252  -44.5827 H         1 UNK         0.3000 
    185 H185        0.1362  -16.6781  -45.4415 H         1 UNK         0.0600 
    186 H186       -0.2942  -18.9176  -44.3895 H         1 UNK         0.0600 
    187 H187       -1.8730  -18.9651  -45.1694 H         1 UNK         0.0600 
    188 H188       -0.4017  -18.9523  -46.1413 H         1 UNK         0.0600 
    189 H189       -2.3295  -17.2476  -46.8273 H         1 UNK         0.3000 
    190 H190       -0.9682  -22.0323  -44.5158 H         1 UNK         0.3000 
    191 H191       -3.7727  -21.6209  -45.1910 H         1 UNK         0.0600 
    192 H192       -2.6566  -20.2249  -43.4420 H         1 UNK         0.0600 
    193 H193       -4.0253  -21.1050  -42.7913 H         1 UNK         0.0600 
    194 H194       -2.3946  -21.6545  -42.4516 H         1 UNK         0.0600 
    195 H195       -1.8730  -24.0313  -43.3328 H         1 UNK         0.3000 
    196 H196       -3.9900  -25.7295  -42.5834 H         1 UNK         0.0600 
    197 H197       -2.1662  -27.3713  -42.1353 H         1 UNK         0.0600 
    198 H198       -1.7302  -25.7715  -41.5518 H         1 UNK         0.0600 
    199 H199       -1.0319  -26.3844  -43.0490 H         1 UNK         0.0600 
    200 H200       -1.9052  -25.8347  -45.5055 H         1 UNK         0.3000 
    201 H201       -3.1731  -28.1609  -46.6564 H         1 UNK         0.0600 
    202 H202       -1.7954  -27.5311  -48.6406 H         1 UNK         0.0600 
    203 H203       -0.8320  -27.4840  -47.1734 H         1 UNK         0.0600 
    204 H204       -1.4048  -25.9835  -47.8998 H         1 UNK         0.0600 
    205 H205       -4.1981  -24.9219  -46.3920 H         1 UNK         0.3000 
    206 H206       -5.7531  -23.6212  -47.2121 H         1 UNK         0.0600 
    207 H207       -7.2878  -25.5923  -46.9588 H         1 UNK         0.0600 
    208 H208       -7.7823  -24.5146  -48.2536 H         1 UNK         0.0600 
    209 H209       -6.9880  -26.0321  -48.6406 H         1 UNK         0.0600 
    210 H210       -3.2701  -24.3341  -48.7937 H         1 UNK         0.3000 
    211 H211       -3.7809  -23.7395  -51.5792 H         1 UNK         0.0600 
    212 H212       -1.2212  -23.6748  -49.8863 H         1 UNK         0.0600 
    213 H213       -1.2755  -23.5278  -51.6413 H         1 UNK         0.0600 
    214 H214       -1.7850  -25.0221  -50.8709 H         1 UNK         0.0600 
    215 H215       -3.2353  -21.8645  -48.6647 H         1 UNK         0.3000 
    216 H216       -2.5514  -19.3503  -49.7600 H         1 UNK         0.0600 
    217 H217       -3.3434  -18.5248  -47.5062 H         1 UNK         0.0600 
    218 H218       -2.2847  -19.9142  -47.3742 H         1 UNK         0.0600 
    219 H219       -4.0250  -20.1086  -47.1775 H         1 UNK         0.0600 
    220 H220       -5.6090  -20.9772  -49.9075 H         1 UNK         0.3000 
    221 H221       -7.2640  -18.5814  -50.1306 H         1 UNK         0.0600 
    222 H222       -7.8787  -21.5273  -50.7092 H         1 UNK         0.0600 
    223 H223       -8.1394  -20.7146  -49.1657 H         1 UNK         0.0600 
    224 H224       -9.0571  -20.2283  -50.5824 H         1 UNK         0.0600 
    225 H225       -5.1556  -20.2634  -52.2901 H         1 UNK         0.3000 
    226 H226       -6.6561  -19.8354  -54.7420 H         1 UNK         0.0600 
    227 H227       -4.5722  -20.6754  -55.8047 H         1 UNK         0.0600 
    228 H228       -3.7175  -20.5674  -54.2736 H         1 UNK         0.0600 
    229 H229       -5.0349  -21.7208  -54.4707 H         1 UNK         0.0600 
    230 H230       -5.9056  -18.4992  -56.5041 H         1 UNK         0.3000 
    231 H231       -5.3462  -15.7802  -55.7157 H         1 UNK         0.0600 
    232 H232       -5.6735  -17.0732  -58.4766 H         1 UNK         0.0600 
    233 H233       -5.6841  -15.3453  -58.1469 H         1 UNK         0.0600 
    234 H234       -6.9663  -16.3606  -57.5099 H         1 UNK         0.0600 
    235 H235       -3.2406  -18.3789  -56.4217 H         1 UNK         0.3000 
    236 H236       -0.9135  -16.6433  -56.5898 H         1 UNK         0.0600 
    237 H237       -1.4901  -16.9865  -59.0195 H         1 UNK         0.0600 
    238 H238       -0.0146  -17.8428  -58.6049 H         1 UNK         0.0600 
    239 H239       -1.5243  -18.7316  -58.7712 H         1 UNK         0.0600 
    240 H240        1.0715  -18.0278  -56.3696 H         1 UNK         0.3000 
    241 H241        0.9357  -19.6366  -54.1032 H         1 UNK         0.0600 
    242 H242        0.7886  -21.8815  -53.6869 H         1 UNK         0.3800 
    243 H243        0.6967  -23.0747  -54.9507 H         1 UNK         0.3800 
    244 H244        3.3479  -20.1526  -54.5691 H         1 UNK         0.0800 
    245 H245        3.1831  -19.5176  -56.1810 H         1 UNK         0.0800 
    246 H246        4.5674  -18.8861  -52.9236 H         1 UNK         0.0800 
    247 H247        4.3700  -17.1983  -52.5400 H         1 UNK         0.0800 
@<TRIPOS>BOND
     1    1    2 1    
     2    1  127 1    
     3    1  128 1    
     4    1  129 1    
     5    2    3 2    
     6    2    4 am   BACKBONE|DICT|INTERRES
     7    4    5 1    
     8    4  130 1    
     9    5    6 1    
    10    5   65 1    
    11    5  131 1    
    12    6    7 1    
    13    6  132 1    
    14    6  133 1    
    15    7    8 1    
    16    8    9 1    
    17    8  134 1    
    18    8  135 1    
    19    9   10 ar   
    20    9   14 ar   
    21   10   11 ar   
    22   10  136 1    
    23   11   12 ar   
    24   11  126 1    
    25   12   13 ar   
    26   12  137 1    
    27   13   14 ar   
    28   13   15 1    
    29   14  138 1    
    30   15   16 1    
    31   15  139 1    
    32   15  140 1    
    33   16   17 1    
    34   17   18 1    
    35   17  141 1    
    36   17  142 1    
    37   18   19 1    
    38   18   67 1    
    39   18  143 1    
    40   19   20 am   BACKBONE|DICT|INTERRES
    41   19  144 1    
    42   20   21 2    
    43   20   22 1    
    44   22   23 1    
    45   22   24 1    
    46   22  145 1    
    47   23  146 1    
    48   23  147 1    
    49   23  148 1    
    50   24   25 am   BACKBONE|DICT|INTERRES
    51   24  149 1    
    52   25   26 2    
    53   25   27 1    
    54   27   28 1    
    55   27   29 1    
    56   27  150 1    
    57   28  151 1    
    58   28  152 1    
    59   28  153 1    
    60   29   30 am   BACKBONE|DICT|INTERRES
    61   29  154 1    
    62   30   31 2    
    63   30   32 1    
    64   32   33 1    
    65   32   34 1    
    66   32  155 1    
    67   33  156 1    
    68   33  157 1    
    69   33  158 1    
    70   34   35 am   BACKBONE|DICT|INTERRES
    71   34  159 1    
    72   35   36 2    
    73   35   37 1    
    74   37   38 1    
    75   37   39 1    
    76   37  160 1    
    77   38  161 1    
    78   38  162 1    
    79   38  163 1    
    80   39   40 am   BACKBONE|DICT|INTERRES
    81   39  164 1    
    82   40   41 2    
    83   40   42 1    
    84   42   43 1    
    85   42   44 1    
    86   42  165 1    
    87   43  166 1    
    88   43  167 1    
    89   43  168 1    
    90   44   45 am   BACKBONE|DICT|INTERRES
    91   44  169 1    
    92   45   46 2    
    93   45   47 1    
    94   47   48 1    
    95   47   49 1    
    96   47  170 1    
    97   48  171 1    
    98   48  172 1    
    99   48  173 1    
   100   49   50 am   BACKBONE|DICT|INTERRES
   101   49  174 1    
   102   50   51 2    
   103   50   52 1    
   104   52   53 1    
   105   52   54 1    
   106   52  175 1    
   107   53  176 1    
   108   53  177 1    
   109   53  178 1    
   110   54   55 am   BACKBONE|DICT|INTERRES
   111   54  179 1    
   112   55   56 2    
   113   55   57 1    
   114   57   58 1    
   115   57   59 1    
   116   57  180 1    
   117   58  181 1    
   118   58  182 1    
   119   58  183 1    
   120   59   60 am   BACKBONE|DICT|INTERRES
   121   59  184 1    
   122   60   61 2    
   123   60   62 1    
   124   62   63 1    
   125   62   64 1    
   126   62  185 1    
   127   63  186 1    
   128   63  187 1    
   129   63  188 1    
   130   64   65 am   BACKBONE|DICT|INTERRES
   131   64  189 1    
   132   65   66 2    
   133   67   68 2    
   134   67   69 am   BACKBONE|DICT|INTERRES
   135   69   70 1    
   136   69  190 1    
   137   70   71 1    
   138   70   72 1    
   139   70  191 1    
   140   71  192 1    
   141   71  193 1    
   142   71  194 1    
   143   72   73 2    
   144   72   74 am   BACKBONE|DICT|INTERRES
   145   74   75 1    
   146   74  195 1    
   147   75   76 1    
   148   75   77 1    
   149   75  196 1    
   150   76  197 1    
   151   76  198 1    
   152   76  199 1    
   153   77   78 2    
   154   77   79 am   BACKBONE|DICT|INTERRES
   155   79   80 1    
   156   79  200 1    
   157   80   81 1    
   158   80   82 1    
   159   80  201 1    
   160   81  202 1    
   161   81  203 1    
   162   81  204 1    
   163   82   83 2    
   164   82   84 am   BACKBONE|DICT|INTERRES
   165   84   85 1    
   166   84  205 1    
   167   85   86 1    
   168   85   87 1    
   169   85  206 1    
   170   86  207 1    
   171   86  208 1    
   172   86  209 1    
   173   87   88 2    
   174   87   89 am   BACKBONE|DICT|INTERRES
   175   89   90 1    
   176   89  210 1    
   177   90   91 1    
   178   90   92 1    
   179   90  211 1    
   180   91  212 1    
   181   91  213 1    
   182   91  214 1    
   183   92   93 2    
   184   92   94 am   BACKBONE|DICT|INTERRES
   185   94   95 1    
   186   94  215 1    
   187   95   96 1    
   188   95   97 1    
   189   95  216 1    
   190   96  217 1    
   191   96  218 1    
   192   96  219 1    
   193   97   98 2    
   194   97   99 am   BACKBONE|DICT|INTERRES
   195   99  100 1    
   196   99  220 1    
   197  100  101 1    
   198  100  102 1    
   199  100  221 1    
   200  101  222 1    
   201  101  223 1    
   202  101  224 1    
   203  102  103 2    
   204  102  104 am   BACKBONE|DICT|INTERRES
   205  104  105 1    
   206  104  225 1    
   207  105  106 1    
   208  105  107 1    
   209  105  226 1    
   210  106  227 1    
   211  106  228 1    
   212  106  229 1    
   213  107  108 2    
   214  107  109 am   BACKBONE|DICT|INTERRES
   215  109  110 1    
   216  109  230 1    
   217  110  111 1    
   218  110  112 1    
   219  110  231 1    
   220  111  232 1    
   221  111  233 1    
   222  111  234 1    
   223  112  113 2    
   224  112  114 am   BACKBONE|DICT|INTERRES
   225  114  115 1    
   226  114  235 1    
   227  115  116 1    
   228  115  117 1    
   229  115  236 1    
   230  116  237 1    
   231  116  238 1    
   232  116  239 1    
   233  117  118 2    
   234  117  119 am   BACKBONE|DICT|INTERRES
   235  119  120 1    
   236  119  240 1    
   237  120  121 1    
   238  120  124 1    
   239  120  241 1    
   240  121  122 am   BACKBONE|DICT|INTERRES
   241  121  123 2    
   242  122  242 1    
   243  122  243 1    
   244  124  125 1    
   245  124  244 1    
   246  124  245 1    
   247  125  126 1    
   248  126  246 1    
   249  126  247 1    
@<TRIPOS>SUBSTRUCTURE
     1 UNK         1 GROUP             0       ****    0 ROOT    
