@<TRIPOS>MOLECULE
3R540
247   249    1
SMALL
USER_CHARGES


@<TRIPOS>ATOM
      1 CA          7.6109  -14.9960  -47.1099 C.3       0 UNK        -0.1800 
      2 C           6.2873  -14.4350  -46.6112 C.2       0 UNK         0.5000 
      3 O           5.9334  -14.6336  -45.4488 O.2       0 UNK        -0.5000 
      4 N           5.5602  -13.7155  -47.4743 N.am      1 UNK        -0.5000 
      5 CA          4.2343  -13.1348  -47.2174 C.3       1 UNK         0.1400 
      6 C6          3.4295  -12.9243  -48.5291 C.3       23 UNK        -0.0398 
      7 S7          3.2583  -14.4399  -49.5325 S.3       23 UNK        -0.2404 
      8 C8          1.6515  -15.0811  -48.9653 C.3       23 UNK        -0.0205 
      9 C9          1.2264  -16.3020  -49.7658 C.ar      23 UNK        -0.0193 
     10 C10         0.1310  -16.2258  -50.6276 C.ar      23 UNK        -0.1150 
     11 C11        -0.2604  -17.3348  -51.3813 C.ar      23 UNK        -0.0193 
     12 C12         0.4529  -18.5325  -51.2696 C.ar      23 UNK        -0.1150 
     13 C13         1.5587  -18.6197  -50.4172 C.ar      23 UNK        -0.0193 
     14 C14         1.9317  -17.5048  -49.6587 C.ar      23 UNK        -0.1150 
     15 C15         2.3956  -19.8908  -50.3658 C.3       23 UNK        -0.0205 
     16 S16         2.2913  -20.7392  -48.7605 S.3       23 UNK        -0.2404 
     17 C17         0.6568  -21.5351  -48.8723 C.3       23 UNK        -0.0398 
     18 CA          0.4699  -22.6004  -47.7651 C.3       11 UNK         0.1400 
     19 N           0.4125  -22.0263  -46.4167 N.am      11 UNK        -0.5000 
     20 C           0.4628  -22.7418  -45.2836 C.2       10 UNK         0.5000 
     21 O           0.6544  -23.9571  -45.2538 O.2       10 UNK        -0.5000 
     22 CA          0.2010  -21.9898  -43.9648 C.3       10 UNK         0.1400 
     23 CB          1.4821  -21.3260  -43.4386 C.3       10 UNK        -0.1800 
     24 N          -0.8653  -20.9948  -44.0915 N.am      10 UNK        -0.5000 
     25 C          -2.1491  -21.2941  -44.3351 C.2       9 UNK         0.5000 
     26 O          -2.5735  -22.4475  -44.3956 O.2       9 UNK        -0.5000 
     27 CA         -3.1125  -20.1203  -44.6002 C.3       9 UNK         0.1400 
     28 CB         -3.6694  -19.5588  -43.2842 C.3       9 UNK        -0.1800 
     29 N          -2.5035  -19.0430  -45.3826 N.am      9 UNK        -0.5000 
     30 C          -2.0682  -19.1839  -46.6436 C.2       8 UNK         0.5000 
     31 O          -2.1609  -20.2301  -47.2831 O.2       8 UNK        -0.5000 
     32 CA         -1.3482  -17.9795  -47.2755 C.3       8 UNK         0.1400 
     33 CB         -2.3636  -16.9355  -47.7625 C.3       8 UNK        -0.1800 
     34 N          -0.3853  -17.3607  -46.3612 N.am      8 UNK        -0.5000 
     35 C           0.6807  -17.9927  -45.8474 C.2       7 UNK         0.5000 
     36 O           0.9891  -19.1461  -46.1395 O.2       7 UNK        -0.5000 
     37 CA          1.4954  -17.2535  -44.7690 C.3       7 UNK         0.1400 
     38 CB          2.4737  -16.2378  -45.3735 C.3       7 UNK        -0.1800 
     39 N           0.6456  -16.5814  -43.7906 N.am      7 UNK        -0.5000 
     40 C          -0.1844  -17.2038  -42.9448 C.2       6 UNK         0.5000 
     41 O          -0.2825  -18.4267  -42.8567 O.2       6 UNK        -0.5000 
     42 CA         -1.0871  -16.3034  -42.0866 C.3       6 UNK         0.1400 
     43 CB         -0.3308  -15.7783  -40.8569 C.3       6 UNK        -0.1800 
     44 N          -1.6178  -15.1782  -42.8565 N.am      6 UNK        -0.5000 
     45 C          -2.5449  -15.2929  -43.8173 C.2       5 UNK         0.5000 
     46 O          -3.0676  -16.3599  -44.1391 O.2       5 UNK        -0.5000 
     47 CA         -2.9281  -14.0018  -44.5638 C.3       5 UNK         0.1400 
     48 CB         -3.9592  -13.1953  -43.7605 C.3       5 UNK        -0.1800 
     49 N          -1.7723  -13.1539  -44.8644 N.am      5 UNK        -0.5000 
     50 C          -0.8078  -13.4877  -45.7319 C.2       4 UNK         0.5000 
     51 O          -0.7869  -14.5429  -46.3611 O.2       4 UNK        -0.5000 
     52 CA          0.3575  -12.5003  -45.9023 C.3       4 UNK         0.1400 
     53 CB         -0.0199  -11.3836  -46.8864 C.3       4 UNK        -0.1800 
     54 N           0.8680  -11.9097  -44.6620 N.am      4 UNK        -0.5000 
     55 C           1.2567  -12.5866  -43.5729 C.2       3 UNK         0.5000 
     56 O           1.0940  -13.7970  -43.4184 O.2       3 UNK        -0.5000 
     57 CA          2.0712  -11.7877  -42.5491 C.3       3 UNK         0.1400 
     58 CB          2.1495  -12.4805  -41.1769 C.3       3 UNK        -0.1800 
     59 N           3.4083  -11.6918  -43.1186 N.am      3 UNK        -0.5000 
     60 C           4.0309  -10.5646  -43.4780 C.2       2 UNK         0.5000 
     61 O           3.6323   -9.4336  -43.1987 O.2       2 UNK        -0.5000 
     62 CA          5.2867  -10.7462  -44.3515 C.3       2 UNK         0.1400 
     63 CB          6.5269  -10.9995  -43.4811 C.3       2 UNK        -0.1800 
     64 N           5.1358  -11.8451  -45.3113 N.am      2 UNK        -0.5000 
     65 C           4.3070  -11.8416  -46.3652 C.2       1 UNK         0.5000 
     66 O           3.6180  -10.8665  -46.6682 O.2       1 UNK        -0.5000 
     67 C          -0.7539  -23.4928  -48.0522 C.2       11 UNK         0.5000 
     68 O          -0.5772  -24.5931  -48.5752 O.2       11 UNK        -0.5000 
     69 N          -1.9547  -23.0345  -47.6681 N.am      12 UNK        -0.5000 
     70 CA         -3.2194  -23.7673  -47.7854 C.3       12 UNK         0.1400 
     71 CB         -4.3843  -22.8624  -47.3602 C.3       12 UNK        -0.1800 
     72 C          -3.2412  -25.0740  -46.9722 C.2       12 UNK         0.5000 
     73 O          -3.7817  -26.0749  -47.4420 O.2       12 UNK        -0.5000 
     74 N          -2.6375  -25.0438  -45.7765 N.am      13 UNK        -0.5000 
     75 CA         -2.4559  -26.2011  -44.8991 C.3       13 UNK         0.1400 
     76 CB         -2.0603  -25.7074  -43.4989 C.3       13 UNK        -0.1800 
     77 C          -1.4222  -27.2162  -45.4296 C.2       13 UNK         0.5000 
     78 O          -1.4524  -28.3754  -45.0130 O.2       13 UNK        -0.5000 
     79 N          -0.5328  -26.7689  -46.3251 N.am      14 UNK        -0.5000 
     80 CA          0.4515  -27.5829  -47.0282 C.3       14 UNK         0.1400 
     81 CB          1.7602  -26.7765  -47.1593 C.3       14 UNK        -0.1800 
     82 C          -0.1394  -28.0626  -48.3712 C.2       14 UNK         0.5000 
     83 O          -1.1876  -28.7109  -48.3756 O.2       14 UNK        -0.5000 
     84 N           0.5448  -27.7722  -49.4857 N.am      15 UNK        -0.5000 
     85 CA          0.1617  -28.1999  -50.8334 C.3       15 UNK         0.1400 
     86 CB          1.3856  -28.0815  -51.7554 C.3       15 UNK        -0.1800 
     87 C          -1.0297  -27.4194  -51.4238 C.2       15 UNK         0.5000 
     88 O          -1.7409  -27.9737  -52.2631 O.2       15 UNK        -0.5000 
     89 N          -1.2121  -26.1680  -50.9745 N.am      16 UNK        -0.5000 
     90 CA         -2.1776  -25.1563  -51.4182 C.3       16 UNK         0.1400 
     91 CB         -3.6289  -25.6507  -51.2604 C.3       16 UNK        -0.1800 
     92 C          -1.9249  -24.6240  -52.8429 C.2       16 UNK         0.5000 
     93 O          -1.5179  -25.3657  -53.7390 O.2       16 UNK        -0.5000 
     94 N          -2.2134  -23.3315  -53.0286 N.am      17 UNK        -0.5000 
     95 CA         -2.2561  -22.6639  -54.3333 C.3       17 UNK         0.1400 
     96 CB         -1.4911  -21.3344  -54.2463 C.3       17 UNK        -0.1800 
     97 C          -3.7079  -22.4350  -54.8024 C.2       17 UNK         0.5000 
     98 O          -3.9123  -22.0859  -55.9657 O.2       17 UNK        -0.5000 
     99 N          -4.6804  -22.6509  -53.9016 N.am      18 UNK        -0.5000 
    100 CA        -6.1256  -22.4968  -54.0875 C.3       18 UNK         0.1400 
    101 CB        -6.6577  -23.5236  -55.1133 C.3       18 UNK        -0.1800 
    102 C         -6.5253  -21.0343  -54.3815 C.2       18 UNK         0.5000 
    103 O         -5.9268  -20.1185  -53.8130 O.2       18 UNK        -0.5000 
    104 N         -7.5534  -20.8424  -55.2207 N.am      19 UNK        -0.5000 
    105 CA        -8.1528  -19.5838  -55.6903 C.3       19 UNK         0.1400 
    106 CB        -7.1203  -18.7125  -56.4317 C.3       19 UNK        -0.1800 
    107 C         -8.8944  -18.7659  -54.6125 C.2       19 UNK         0.5000 
    108 O         -9.9805  -18.2545  -54.8897 O.2       19 UNK        -0.5000 
    109 N         -8.3153  -18.6596  -53.4144 N.am      20 UNK        -0.5000 
    110 CA        -8.8452  -17.9391  -52.2622 C.3       20 UNK         0.1400 
    111 CB        -8.5993  -16.4221  -52.4280 C.3       20 UNK        -0.1800 
    112 C         -8.2417  -18.5449  -50.9818 C.2       20 UNK         0.5000 
    113 O         -8.1816  -19.7712  -50.8605 O.2       20 UNK        -0.5000 
    114 N         -7.7830  -17.6885  -50.0570 N.am      21 UNK        -0.5000 
    115 CA        -7.1858  -18.0434  -48.7629 C.3       21 UNK         0.1400 
    116 CB        -6.8975  -16.7519  -47.9804 C.3       21 UNK        -0.1800 
    117 C         -5.9093  -18.9042  -48.8527 C.2       21 UNK         0.5000 
    118 O         -5.5467  -19.5418  -47.8656 O.2       21 UNK        -0.5000 
    119 N         -5.2676  -18.9116  -50.0266 N.am      22 UNK        -0.5000 
    120 CA        -4.1049  -19.7430  -50.3661 C.3       22 UNK         0.1400 
    121 C         -4.4426  -21.2414  -50.6341 C.2       22 UNK         0.5000 
    122 N         -5.7006  -21.6668  -50.5925 N.am      22 UNK        -0.7600 
    123 O         -3.5454  -22.0363  -50.9039 O.2       22 UNK        -0.5000 
    124 C124       -3.2960  -19.1581  -51.5510 C.3       23 UNK        -0.0398 
    125 S125       -3.0224  -17.3559  -51.4774 S.3       23 UNK        -0.2404 
    126 C126       -1.4311  -17.2083  -52.3417 C.3       23 UNK        -0.0205 
    127 H127        7.7939  -14.7362  -48.1528 H         1 UNK         0.0600 
    128 H128        7.6126  -16.0826  -47.0247 H         1 UNK         0.0600 
    129 H129        8.4336  -14.6043  -46.5117 H         1 UNK         0.0600 
    130 H130        5.9154  -13.5720  -48.4090 H         1 UNK         0.3000 
    131 H131        3.6732  -13.8507  -46.6148 H         1 UNK         0.0600 
    132 H132        2.4336  -12.5319  -48.3209 H         1 UNK         0.0800 
    133 H133        3.9190  -12.1723  -49.1503 H         1 UNK         0.0800 
    134 H134        1.7125  -15.3527  -47.9153 H         1 UNK         0.0800 
    135 H135        0.8980  -14.2950  -49.0369 H         1 UNK         0.0800 
    136 H136       -0.4179  -15.2990  -50.7198 H         1 UNK         0.1150 
    137 H137        0.1653  -19.3861  -51.8670 H         1 UNK         0.1150 
    138 H138        2.7882  -17.5660  -49.0020 H         1 UNK         0.1150 
    139 H139        2.1149  -20.5795  -51.1641 H         1 UNK         0.0800 
    140 H140        3.4382  -19.6273  -50.5492 H         1 UNK         0.0800 
    141 H141        0.5725  -21.9926  -49.8600 H         1 UNK         0.0800 
    142 H142       -0.1159  -20.7678  -48.8201 H         1 UNK         0.0800 
    143 H143        1.3413  -23.2586  -47.7933 H         1 UNK         0.0600 
    144 H144        0.3272  -21.0158  -46.3556 H         1 UNK         0.3000 
    145 H145       -0.1207  -22.7255  -43.2248 H         1 UNK         0.0600 
    146 H146        1.3059  -20.8311  -42.4834 H         1 UNK         0.0600 
    147 H147        2.2667  -22.0672  -43.2822 H         1 UNK         0.0600 
    148 H148        1.8701  -20.5825  -44.1337 H         1 UNK         0.0600 
    149 H149       -0.6000  -20.0203  -43.9873 H         1 UNK         0.3000 
    150 H150       -3.9520  -20.5085  -45.1805 H         1 UNK         0.0600 
    151 H151       -4.1538  -20.3423  -42.7003 H         1 UNK         0.0600 
    152 H152       -4.4139  -18.7846  -43.4707 H         1 UNK         0.0600 
    153 H153       -2.8842  -19.1257  -42.6650 H         1 UNK         0.0600 
    154 H154       -2.4259  -18.1378  -44.9310 H         1 UNK         0.3000 
    155 H155       -0.7947  -18.3416  -48.1447 H         1 UNK         0.0600 
    156 H156       -2.8959  -16.4711  -46.9324 H         1 UNK         0.0600 
    157 H157       -1.8730  -16.1463  -48.3320 H         1 UNK         0.0600 
    158 H158       -3.1089  -17.3902  -48.4153 H         1 UNK         0.0600 
    159 H159       -0.5565  -16.3885  -46.1181 H         1 UNK         0.3000 
    160 H160        2.0840  -18.0056  -44.2396 H         1 UNK         0.0600 
    161 H161        3.2106  -15.9201  -44.6356 H         1 UNK         0.0600 
    162 H162        1.9524  -15.3454  -45.7149 H         1 UNK         0.0600 
    163 H163        3.0199  -16.6602  -46.2182 H         1 UNK         0.0600 
    164 H164        0.6947  -15.5655  -43.7601 H         1 UNK         0.3000 
    165 H165       -1.9274  -16.9063  -41.7360 H         1 UNK         0.0600 
    166 H166       -0.9787  -15.1715  -40.2243 H         1 UNK         0.0600 
    167 H167        0.0390  -16.6036  -40.2473 H         1 UNK         0.0600 
    168 H168        0.5288  -15.1698  -41.1386 H         1 UNK         0.0600 
    169 H169       -1.1800  -14.2805  -42.7083 H         1 UNK         0.3000 
    170 H170       -3.3894  -14.2928  -45.5102 H         1 UNK         0.0600 
    171 H171       -3.5500  -12.8475  -42.8112 H         1 UNK         0.0600 
    172 H172       -4.2995  -12.3233  -44.3194 H         1 UNK         0.0600 
    173 H173       -4.8389  -13.8004  -43.5371 H         1 UNK         0.0600 
    174 H174       -1.7050  -12.2723  -44.3774 H         1 UNK         0.3000 
    175 H175        1.1824  -13.0646  -46.3384 H         1 UNK         0.0600 
    176 H176        0.8373  -10.7495  -47.1134 H         1 UNK         0.0600 
    177 H177       -0.8114  -10.7474  -46.4887 H         1 UNK         0.0600 
    178 H178       -0.3739  -11.7980  -47.8315 H         1 UNK         0.0600 
    179 H179        1.0757  -10.9219  -44.7023 H         1 UNK         0.3000 
    180 H180        1.6114  -10.8051  -42.4250 H         1 UNK         0.0600 
    181 H181        2.6133  -13.4657  -41.2424 H         1 UNK         0.0600 
    182 H182        1.1547  -12.6115  -40.7496 H         1 UNK         0.0600 
    183 H183        2.7315  -11.8862  -40.4726 H         1 UNK         0.0600 
    184 H184        3.8097  -12.5675  -43.4235 H         1 UNK         0.3000 
    185 H185        5.4430   -9.8213  -44.9107 H         1 UNK         0.0600 
    186 H186        7.4289  -11.0615  -44.0902 H         1 UNK         0.0600 
    187 H187        6.6733  -10.1896  -42.7653 H         1 UNK         0.0600 
    188 H188        6.4403  -11.9278  -42.9149 H         1 UNK         0.0600 
    189 H189        5.6512  -12.6999  -45.1262 H         1 UNK         0.3000 
    190 H190       -2.0157  -22.0858  -47.3044 H         1 UNK         0.3000 
    191 H191       -3.3567  -24.0185  -48.8368 H         1 UNK         0.0600 
    192 H192       -4.3334  -21.8934  -47.8522 H         1 UNK         0.0600 
    193 H193       -5.3416  -23.3127  -47.6240 H         1 UNK         0.0600 
    194 H194       -4.3929  -22.6843  -46.2857 H         1 UNK         0.0600 
    195 H195       -2.2947  -24.1527  -45.4310 H         1 UNK         0.3000 
    196 H196       -3.4132  -26.7201  -44.8191 H         1 UNK         0.0600 
    197 H197       -1.9542  -26.5419  -42.8047 H         1 UNK         0.0600 
    198 H198       -2.8157  -25.0369  -43.0887 H         1 UNK         0.0600 
    199 H199       -1.1111  -25.1713  -43.5157 H         1 UNK         0.0600 
    200 H200       -0.6040  -25.8059  -46.6268 H         1 UNK         0.3000 
    201 H201        0.6756  -28.4772  -46.4435 H         1 UNK         0.0600 
    202 H202        2.1261  -26.4733  -46.1780 H         1 UNK         0.0600 
    203 H203        1.6292  -25.8697  -47.7497 H         1 UNK         0.0600 
    204 H204        2.5489  -27.3713  -47.6218 H         1 UNK         0.0600 
    205 H205        1.3933  -27.2313  -49.4048 H         1 UNK         0.3000 
    206 H206       -0.1259  -29.2527  -50.7898 H         1 UNK         0.0600 
    207 H207        2.2124  -28.6943  -51.3959 H         1 UNK         0.0600 
    208 H208        1.1477  -28.4190  -52.7651 H         1 UNK         0.0600 
    209 H209        1.7359  -27.0512  -51.8287 H         1 UNK         0.0600 
    210 H210       -0.5987  -25.8469  -50.2337 H         1 UNK         0.3000 
    211 H211       -2.0398  -24.3159  -50.7391 H         1 UNK         0.0600 
    212 H212       -3.8766  -26.4269  -51.9848 H         1 UNK         0.0600 
    213 H213       -4.3355  -24.8335  -51.4071 H         1 UNK         0.0600 
    214 H214       -3.8027  -26.0555  -50.2636 H         1 UNK         0.0600 
    215 H215       -2.5541  -22.7919  -52.2339 H         1 UNK         0.3000 
    216 H216       -1.7671  -23.2786  -55.0916 H         1 UNK         0.0600 
    217 H217       -1.4178  -20.8639  -55.2276 H         1 UNK         0.0600 
    218 H218       -0.4753  -21.4834  -53.8800 H         1 UNK         0.0600 
    219 H219       -1.9883  -20.6283  -53.5864 H         1 UNK         0.0600 
    220 H220       -4.3920  -22.8770  -52.9609 H         1 UNK         0.3000 
    221 H221       -6.5782  -22.7381  -53.1254 H         1 UNK         0.0600 
    222 H222       -6.3353  -23.2922  -56.1292 H         1 UNK         0.0600 
    223 H223       -6.3063  -24.5280  -54.8767 H         1 UNK         0.0600 
    224 H224       -7.7475  -23.5627  -55.1095 H         1 UNK         0.0600 
    225 H225       -7.9889  -21.6730  -55.5967 H         1 UNK         0.3000 
    226 H226       -8.9063  -19.8801  -56.4218 H         1 UNK         0.0600 
    227 H227       -6.6422  -19.2682  -57.2385 H         1 UNK         0.0600 
    228 H228       -7.5980  -17.8388  -56.8766 H         1 UNK         0.0600 
    229 H229       -6.3376  -18.3491  -55.7652 H         1 UNK         0.0600 
    230 H230       -7.4304  -19.1427  -53.2753 H         1 UNK         0.3000 
    231 H231       -9.9216  -18.1123  -52.2050 H         1 UNK         0.0600 
    232 H232       -7.5347  -16.1879  -52.4702 H         1 UNK         0.0600 
    233 H233       -9.0406  -15.8532  -51.6088 H         1 UNK         0.0600 
    234 H234       -9.0530  -16.0477  -53.3458 H         1 UNK         0.0600 
    235 H235       -7.8605  -16.7004  -50.2500 H         1 UNK         0.3000 
    236 H236       -7.9255  -18.6240  -48.2081 H         1 UNK         0.0600 
    237 H237       -7.8074  -16.1727  -47.8224 H         1 UNK         0.0600 
    238 H238       -6.4812  -16.9741  -46.9966 H         1 UNK         0.0600 
    239 H239       -6.1798  -16.1182  -48.5031 H         1 UNK         0.0600 
    240 H240       -5.6346  -18.3448  -50.7756 H         1 UNK         0.3000 
    241 H241       -3.4465  -19.7405  -49.4977 H         1 UNK         0.0600 
    242 H242       -6.4586  -21.0130  -50.4418 H         1 UNK         0.3800 
    243 H243       -5.9049  -22.6423  -50.7230 H         1 UNK         0.3800 
    244 H244       -2.3247  -19.6517  -51.5855 H         1 UNK         0.0800 
    245 H245       -3.7900  -19.3719  -52.4996 H         1 UNK         0.0800 
    246 H246       -1.3905  -16.2343  -52.8314 H         1 UNK         0.0800 
    247 H247       -1.3643  -17.9485  -53.1407 H         1 UNK         0.0800 
@<TRIPOS>BOND
     1    1    2 1    
     2    1  127 1    
     3    1  128 1    
     4    1  129 1    
     5    2    3 2    
     6    2    4 am   BACKBONE|DICT|INTERRES
     7    4    5 1    
     8    4  130 1    
     9    5    6 1    
    10    5   65 1    
    11    5  131 1    
    12    6    7 1    
    13    6  132 1    
    14    6  133 1    
    15    7    8 1    
    16    8    9 1    
    17    8  134 1    
    18    8  135 1    
    19    9   10 ar   
    20    9   14 ar   
    21   10   11 ar   
    22   10  136 1    
    23   11   12 ar   
    24   11  126 1    
    25   12   13 ar   
    26   12  137 1    
    27   13   14 ar   
    28   13   15 1    
    29   14  138 1    
    30   15   16 1    
    31   15  139 1    
    32   15  140 1    
    33   16   17 1    
    34   17   18 1    
    35   17  141 1    
    36   17  142 1    
    37   18   19 1    
    38   18   67 1    
    39   18  143 1    
    40   19   20 am   BACKBONE|DICT|INTERRES
    41   19  144 1    
    42   20   21 2    
    43   20   22 1    
    44   22   23 1    
    45   22   24 1    
    46   22  145 1    
    47   23  146 1    
    48   23  147 1    
    49   23  148 1    
    50   24   25 am   BACKBONE|DICT|INTERRES
    51   24  149 1    
    52   25   26 2    
    53   25   27 1    
    54   27   28 1    
    55   27   29 1    
    56   27  150 1    
    57   28  151 1    
    58   28  152 1    
    59   28  153 1    
    60   29   30 am   BACKBONE|DICT|INTERRES
    61   29  154 1    
    62   30   31 2    
    63   30   32 1    
    64   32   33 1    
    65   32   34 1    
    66   32  155 1    
    67   33  156 1    
    68   33  157 1    
    69   33  158 1    
    70   34   35 am   BACKBONE|DICT|INTERRES
    71   34  159 1    
    72   35   36 2    
    73   35   37 1    
    74   37   38 1    
    75   37   39 1    
    76   37  160 1    
    77   38  161 1    
    78   38  162 1    
    79   38  163 1    
    80   39   40 am   BACKBONE|DICT|INTERRES
    81   39  164 1    
    82   40   41 2    
    83   40   42 1    
    84   42   43 1    
    85   42   44 1    
    86   42  165 1    
    87   43  166 1    
    88   43  167 1    
    89   43  168 1    
    90   44   45 am   BACKBONE|DICT|INTERRES
    91   44  169 1    
    92   45   46 2    
    93   45   47 1    
    94   47   48 1    
    95   47   49 1    
    96   47  170 1    
    97   48  171 1    
    98   48  172 1    
    99   48  173 1    
   100   49   50 am   BACKBONE|DICT|INTERRES
   101   49  174 1    
   102   50   51 2    
   103   50   52 1    
   104   52   53 1    
   105   52   54 1    
   106   52  175 1    
   107   53  176 1    
   108   53  177 1    
   109   53  178 1    
   110   54   55 am   BACKBONE|DICT|INTERRES
   111   54  179 1    
   112   55   56 2    
   113   55   57 1    
   114   57   58 1    
   115   57   59 1    
   116   57  180 1    
   117   58  181 1    
   118   58  182 1    
   119   58  183 1    
   120   59   60 am   BACKBONE|DICT|INTERRES
   121   59  184 1    
   122   60   61 2    
   123   60   62 1    
   124   62   63 1    
   125   62   64 1    
   126   62  185 1    
   127   63  186 1    
   128   63  187 1    
   129   63  188 1    
   130   64   65 am   BACKBONE|DICT|INTERRES
   131   64  189 1    
   132   65   66 2    
   133   67   68 2    
   134   67   69 am   BACKBONE|DICT|INTERRES
   135   69   70 1    
   136   69  190 1    
   137   70   71 1    
   138   70   72 1    
   139   70  191 1    
   140   71  192 1    
   141   71  193 1    
   142   71  194 1    
   143   72   73 2    
   144   72   74 am   BACKBONE|DICT|INTERRES
   145   74   75 1    
   146   74  195 1    
   147   75   76 1    
   148   75   77 1    
   149   75  196 1    
   150   76  197 1    
   151   76  198 1    
   152   76  199 1    
   153   77   78 2    
   154   77   79 am   BACKBONE|DICT|INTERRES
   155   79   80 1    
   156   79  200 1    
   157   80   81 1    
   158   80   82 1    
   159   80  201 1    
   160   81  202 1    
   161   81  203 1    
   162   81  204 1    
   163   82   83 2    
   164   82   84 am   BACKBONE|DICT|INTERRES
   165   84   85 1    
   166   84  205 1    
   167   85   86 1    
   168   85   87 1    
   169   85  206 1    
   170   86  207 1    
   171   86  208 1    
   172   86  209 1    
   173   87   88 2    
   174   87   89 am   BACKBONE|DICT|INTERRES
   175   89   90 1    
   176   89  210 1    
   177   90   91 1    
   178   90   92 1    
   179   90  211 1    
   180   91  212 1    
   181   91  213 1    
   182   91  214 1    
   183   92   93 2    
   184   92   94 am   BACKBONE|DICT|INTERRES
   185   94   95 1    
   186   94  215 1    
   187   95   96 1    
   188   95   97 1    
   189   95  216 1    
   190   96  217 1    
   191   96  218 1    
   192   96  219 1    
   193   97   98 2    
   194   97   99 am   BACKBONE|DICT|INTERRES
   195   99  100 1    
   196   99  220 1    
   197  100  101 1    
   198  100  102 1    
   199  100  221 1    
   200  101  222 1    
   201  101  223 1    
   202  101  224 1    
   203  102  103 2    
   204  102  104 am   BACKBONE|DICT|INTERRES
   205  104  105 1    
   206  104  225 1    
   207  105  106 1    
   208  105  107 1    
   209  105  226 1    
   210  106  227 1    
   211  106  228 1    
   212  106  229 1    
   213  107  108 2    
   214  107  109 am   BACKBONE|DICT|INTERRES
   215  109  110 1    
   216  109  230 1    
   217  110  111 1    
   218  110  112 1    
   219  110  231 1    
   220  111  232 1    
   221  111  233 1    
   222  111  234 1    
   223  112  113 2    
   224  112  114 am   BACKBONE|DICT|INTERRES
   225  114  115 1    
   226  114  235 1    
   227  115  116 1    
   228  115  117 1    
   229  115  236 1    
   230  116  237 1    
   231  116  238 1    
   232  116  239 1    
   233  117  118 2    
   234  117  119 am   BACKBONE|DICT|INTERRES
   235  119  120 1    
   236  119  240 1    
   237  120  121 1    
   238  120  124 1    
   239  120  241 1    
   240  121  122 am   BACKBONE|DICT|INTERRES
   241  121  123 2    
   242  122  242 1    
   243  122  243 1    
   244  124  125 1    
   245  124  244 1    
   246  124  245 1    
   247  125  126 1    
   248  126  246 1    
   249  126  247 1    
@<TRIPOS>SUBSTRUCTURE
     1 UNK         1 GROUP             0       ****    0 ROOT    
