@<TRIPOS>MOLECULE
3R540
247   249    1
SMALL
USER_CHARGES


@<TRIPOS>ATOM
      1 CA         -4.7521  -16.3401  -43.1596 C.3       0 UNK        -0.1800 
      2 C          -4.5228  -15.1256  -44.0478 C.2       0 UNK         0.5000 
      3 O          -5.3243  -14.1911  -44.0299 O.2       0 UNK        -0.5000 
      4 N          -3.4328  -15.1376  -44.8224 N.am      1 UNK        -0.5000 
      5 CA         -2.9878  -14.0321  -45.6715 C.3       1 UNK         0.1400 
      6 C6         -1.8840  -14.5168  -46.6435 C.3       23 UNK        -0.0398 
      7 S7         -1.4951  -13.3348  -47.9804 S.3       23 UNK        -0.2404 
      8 C8         -1.6009  -14.3861  -49.4725 C.3       23 UNK        -0.0205 
      9 C9         -0.6716  -15.6026  -49.5006 C.ar      23 UNK        -0.0193 
     10 C10        -0.9884  -16.6672  -50.3513 C.ar      23 UNK        -0.1150 
     11 C11        -0.1658  -17.7946  -50.4266 C.ar      23 UNK        -0.0193 
     12 C12         0.9868  -17.8575  -49.6393 C.ar      23 UNK        -0.1150 
     13 C13         1.3211  -16.8039  -48.7853 C.ar      23 UNK        -0.0193 
     14 C14         0.4970  -15.6764  -48.7304 C.ar      23 UNK        -0.1150 
     15 C15         2.5765  -16.8770  -47.9257 C.3       23 UNK        -0.0205 
     16 S16         2.4953  -18.1860  -46.6555 S.3       23 UNK        -0.2404 
     17 C17         0.8893  -17.8724  -45.8470 C.3       23 UNK        -0.0398 
     18 CA         -0.2001  -18.8802  -46.2846 C.3       11 UNK         0.1400 
     19 N           0.1525  -20.2571  -45.9229 N.am      11 UNK        -0.5000 
     20 C          -0.3241  -21.3709  -46.4950 C.2       10 UNK         0.5000 
     21 O          -1.1483  -21.3641  -47.4087 O.2       10 UNK        -0.5000 
     22 CA          0.1430  -22.7035  -45.8917 C.3       10 UNK         0.1400 
     23 CB          1.5818  -23.0304  -46.3224 C.3       10 UNK        -0.1800 
     24 N           0.0584  -22.6532  -44.4327 N.am      10 UNK        -0.5000 
     25 C          -1.0565  -22.9106  -43.7329 C.2       9 UNK         0.5000 
     26 O          -2.1013  -23.3204  -44.2381 O.2       9 UNK        -0.5000 
     27 CA         -1.0051  -22.6683  -42.2111 C.3       9 UNK         0.1400 
     28 CB         -0.6035  -23.9554  -41.4748 C.3       9 UNK        -0.1800 
     29 N          -0.0845  -21.5957  -41.8338 N.am      9 UNK        -0.5000 
     30 C          -0.2910  -20.2931  -42.0737 C.2       8 UNK         0.5000 
     31 O          -1.3275  -19.8450  -42.5619 O.2       8 UNK        -0.5000 
     32 CA          0.8675  -19.3317  -41.7386 C.3       8 UNK         0.1400 
     33 CB          0.6521  -18.6784  -40.3660 C.3       8 UNK        -0.1800 
     34 N           2.1948  -19.9558  -41.7672 N.am      8 UNK        -0.5000 
     35 C           2.7667  -20.5185  -42.8393 C.2       7 UNK         0.5000 
     36 O           2.1944  -20.6251  -43.9248 O.2       7 UNK        -0.5000 
     37 CA          4.2089  -21.0398  -42.6605 C.3       7 UNK         0.1400 
     38 CB          4.7533  -21.7082  -43.9358 C.3       7 UNK        -0.1800 
     39 N           5.1129  -19.9570  -42.2763 N.am      7 UNK        -0.5000 
     40 C           5.2312  -19.4310  -41.0491 C.2       6 UNK         0.5000 
     41 O           4.6618  -19.8866  -40.0562 O.2       6 UNK        -0.5000 
     42 CA          6.0743  -18.1440  -40.9260 C.3       6 UNK         0.1400 
     43 CB          7.5286  -18.4839  -40.5671 C.3       6 UNK        -0.1800 
     44 N           6.0557  -17.3199  -42.1414 N.am      6 UNK        -0.5000 
     45 C           4.9525  -16.7753  -42.6752 C.2       5 UNK         0.5000 
     46 O           3.8381  -16.8574  -42.1512 O.2       5 UNK        -0.5000 
     47 CA          5.1248  -16.0661  -44.0351 C.3       5 UNK         0.1400 
     48 CB          5.7670  -17.0009  -45.0770 C.3       5 UNK        -0.1800 
     49 N           3.8286  -15.6361  -44.5523 N.am      5 UNK        -0.5000 
     50 C           3.2055  -14.5021  -44.2156 C.2       4 UNK         0.5000 
     51 O           3.7168  -13.5977  -43.5501 O.2       4 UNK        -0.5000 
     52 CA          1.7364  -14.4016  -44.6613 C.3       4 UNK         0.1400 
     53 CB          0.8144  -14.9766  -43.5724 C.3       4 UNK        -0.1800 
     54 N           1.3251  -13.0380  -44.9887 N.am      4 UNK        -0.5000 
     55 C           1.8047  -12.3303  -46.0216 C.2       3 UNK         0.5000 
     56 O           2.6113  -12.7855  -46.8347 O.2       3 UNK        -0.5000 
     57 CA          1.2662  -10.8955  -46.1872 C.3       3 UNK         0.1400 
     58 CB          1.4811  -10.3447  -47.6090 C.3       3 UNK        -0.1800 
     59 N          -0.1625  -10.8570  -45.8829 N.am      3 UNK        -0.5000 
     60 C          -0.7391  -10.1928  -44.8736 C.2       2 UNK         0.5000 
     61 O          -0.1243   -9.4809  -44.0792 O.2       2 UNK        -0.5000 
     62 CA         -2.2642  -10.3686  -44.7143 C.3       2 UNK         0.1400 
     63 CB         -3.0100   -9.1843  -45.3478 C.3       2 UNK        -0.1800 
     64 N          -2.7624  -11.6153  -45.3042 N.am      2 UNK        -0.5000 
     65 C          -2.5074  -12.8374  -44.8179 C.2       1 UNK         0.5000 
     66 O          -1.8784  -13.0345  -43.7760 O.2       1 UNK        -0.5000 
     67 C          -1.6045  -18.4862  -45.7699 C.2       11 UNK         0.5000 
     68 O          -1.7725  -17.4430  -45.1354 O.2       11 UNK        -0.5000 
     69 N          -2.5969  -19.3285  -46.0730 N.am      12 UNK        -0.5000 
     70 CA         -4.0005  -19.1757  -45.7005 C.3       12 UNK         0.1400 
     71 CB         -4.6371  -20.5739  -45.6580 C.3       12 UNK        -0.1800 
     72 C          -4.7820  -18.2573  -46.6608 C.2       12 UNK         0.5000 
     73 O          -5.9450  -17.9635  -46.3853 O.2       12 UNK        -0.5000 
     74 N          -4.1467  -17.8519  -47.7735 N.am      13 UNK        -0.5000 
     75 CA         -4.7211  -17.1125  -48.9039 C.3       13 UNK         0.1400 
     76 CB         -5.2032  -15.7089  -48.4823 C.3       13 UNK        -0.1800 
     77 C          -5.8074  -17.9298  -49.6307 C.2       13 UNK         0.5000 
     78 O          -6.8557  -17.3950  -49.9981 O.2       13 UNK        -0.5000 
     79 N          -5.5308  -19.2258  -49.8307 N.am      14 UNK        -0.5000 
     80 CA         -6.4189  -20.2096  -50.4526 C.3       14 UNK         0.1400 
     81 CB         -5.9774  -21.6131  -50.0043 C.3       14 UNK        -0.1800 
     82 C          -6.4676  -20.0620  -51.9883 C.2       14 UNK         0.5000 
     83 O          -6.1023  -20.9869  -52.7157 O.2       14 UNK        -0.5000 
     84 N          -6.8624  -18.8662  -52.4505 N.am      15 UNK        -0.5000 
     85 CA         -7.0148  -18.4277  -53.8467 C.3       15 UNK         0.1400 
     86 CB         -8.1717  -19.1980  -54.5162 C.3       15 UNK        -0.1800 
     87 C          -5.7211  -18.4946  -54.6911 C.2       15 UNK         0.5000 
     88 O          -5.7924  -18.4073  -55.9178 O.2       15 UNK        -0.5000 
     89 N          -4.5714  -18.6796  -54.0231 N.am      16 UNK        -0.5000 
     90 CA         -3.2587  -19.0214  -54.5805 C.3       16 UNK         0.1400 
     91 CB         -2.6826  -17.8490  -55.4004 C.3       16 UNK        -0.1800 
     92 C          -3.2538  -20.3622  -55.3530 C.2       16 UNK         0.5000 
     93 O          -2.4073  -20.5605  -56.2261 O.2       16 UNK        -0.5000 
     94 N          -4.1972  -21.2596  -55.0293 N.am      17 UNK        -0.5000 
     95 CA         -4.3619  -22.5561  -55.6762 C.3       17 UNK         0.1400 
     96 CB         -5.7924  -23.0641  -55.4387 C.3       17 UNK        -0.1800 
     97 C          -3.3290  -23.5584  -55.1431 C.2       17 UNK         0.5000 
     98 O          -3.2898  -23.8079  -53.9369 O.2       17 UNK        -0.5000 
     99 N          -2.5388  -24.1396  -56.0544 N.am      18 UNK        -0.5000 
    100 CA        -1.4823  -25.1109  -55.7536 C.3       18 UNK         0.1400 
    101 CB        -0.6627  -25.3662  -57.0277 C.3       18 UNK        -0.1800 
    102 C         -2.0018  -26.4417  -55.1724 C.2       18 UNK         0.5000 
    103 O         -1.2582  -27.1285  -54.4717 O.2       18 UNK        -0.5000 
    104 N         -3.2644  -26.7755  -55.4713 N.am      19 UNK        -0.5000 
    105 CA        -3.9695  -27.9470  -54.9508 C.3       19 UNK         0.1400 
    106 CB        -5.1062  -28.3029  -55.9225 C.3       19 UNK        -0.1800 
    107 C         -4.5253  -27.7411  -53.5262 C.2       19 UNK         0.5000 
    108 O         -4.8959  -28.7251  -52.8836 O.2       19 UNK        -0.5000 
    109 N         -4.5961  -26.4851  -53.0649 N.am      20 UNK        -0.5000 
    110 CA        -5.0547  -26.1034  -51.7308 C.3       20 UNK         0.1400 
    111 CB        -5.9372  -24.8480  -51.8596 C.3       20 UNK        -0.1800 
    112 C         -3.8482  -25.8881  -50.7947 C.2       20 UNK         0.5000 
    113 O         -2.7556  -26.3911  -51.0684 O.2       20 UNK        -0.5000 
    114 N         -4.0521  -25.1326  -49.7046 N.am      21 UNK        -0.5000 
    115 CA        -3.0262  -24.7785  -48.7136 C.3       21 UNK         0.1400 
    116 CB        -3.6695  -23.9271  -47.6088 C.3       21 UNK        -0.1800 
    117 C         -1.8105  -24.0448  -49.3159 C.2       21 UNK         0.5000 
    118 O         -0.6847  -24.2571  -48.8651 O.2       21 UNK        -0.5000 
    119 N         -2.0670  -23.2440  -50.3569 N.am      22 UNK        -0.5000 
    120 CA        -1.0575  -22.5805  -51.1920 C.3       22 UNK         0.1400 
    121 C         -0.2786  -23.5335  -52.1520 C.2       22 UNK         0.5000 
    122 N         -0.5708  -24.8272  -52.2169 N.am      22 UNK        -0.7600 
    123 O          0.6347  -23.0899  -52.8426 O.2       22 UNK        -0.5000 
    124 C124       -1.6783  -21.3743  -51.9469 C.3       23 UNK        -0.0398 
    125 S125       -1.9077  -19.9318  -50.8482 S.3       23 UNK        -0.2404 
    126 C126       -0.4913  -18.9226  -51.3927 C.3       23 UNK        -0.0205 
    127 H127       -5.5675  -16.9460  -43.5549 H         1 UNK         0.0600 
    128 H128       -5.0174  -16.0244  -42.1507 H         1 UNK         0.0600 
    129 H129       -3.8589  -16.9620  -43.0921 H         1 UNK         0.0600 
    130 H130       -2.8081  -15.9409  -44.7894 H         1 UNK         0.3000 
    131 H131       -3.8493  -13.7060  -46.2572 H         1 UNK         0.0600 
    132 H132       -2.1934  -15.4587  -47.0980 H         1 UNK         0.0800 
    133 H133       -0.9634  -14.7433  -46.1063 H         1 UNK         0.0800 
    134 H134       -1.3744  -13.7663  -50.3407 H         1 UNK         0.0800 
    135 H135       -2.6351  -14.7094  -49.5913 H         1 UNK         0.0800 
    136 H136       -1.8723  -16.6158  -50.9713 H         1 UNK         0.1150 
    137 H137        1.6289  -18.7259  -49.6885 H         1 UNK         0.1150 
    138 H138        0.7762  -14.8559  -48.0856 H         1 UNK         0.1150 
    139 H139        3.4355  -17.0700  -48.5698 H         1 UNK         0.0800 
    140 H140        2.7735  -15.9179  -47.4454 H         1 UNK         0.0800 
    141 H141        0.5706  -16.8574  -46.0770 H         1 UNK         0.0800 
    142 H142        1.0341  -17.9143  -44.7675 H         1 UNK         0.0800 
    143 H143       -0.2681  -18.8350  -47.3724 H         1 UNK         0.0600 
    144 H144        0.8434  -20.3558  -45.1833 H         1 UNK         0.3000 
    145 H145       -0.5071  -23.4971  -46.2645 H         1 UNK         0.0600 
    146 H146        2.2868  -22.2541  -46.0246 H         1 UNK         0.0600 
    147 H147        1.9177  -23.9733  -45.8912 H         1 UNK         0.0600 
    148 H148        1.6444  -23.1282  -47.4070 H         1 UNK         0.0600 
    149 H149        0.8545  -22.2522  -43.9539 H         1 UNK         0.3000 
    150 H150       -2.0095  -22.3880  -41.8863 H         1 UNK         0.0600 
    151 H151       -1.2866  -24.7712  -41.7150 H         1 UNK         0.0600 
    152 H152       -0.6320  -23.8171  -40.3938 H         1 UNK         0.0600 
    153 H153        0.4022  -24.2786  -41.7468 H         1 UNK         0.0600 
    154 H154        0.7903  -21.8709  -41.4125 H         1 UNK         0.3000 
    155 H155        0.8604  -18.5419  -42.4913 H         1 UNK         0.0600 
    156 H156        0.6841  -19.4138  -39.5611 H         1 UNK         0.0600 
    157 H157       -0.3161  -18.1781  -40.3182 H         1 UNK         0.0600 
    158 H158        1.4156  -17.9261  -40.1658 H         1 UNK         0.0600 
    159 H159        2.7503  -19.8870  -40.9219 H         1 UNK         0.3000 
    160 H160        4.1920  -21.7913  -41.8685 H         1 UNK         0.0600 
    161 H161        4.7822  -21.0124  -44.7757 H         1 UNK         0.0600 
    162 H162        4.1300  -22.5535  -44.2303 H         1 UNK         0.0600 
    163 H163        5.7626  -22.0899  -43.7812 H         1 UNK         0.0600 
    164 H164        5.5967  -19.4953  -43.0316 H         1 UNK         0.3000 
    165 H165        5.6498  -17.5506  -40.1136 H         1 UNK         0.0600 
    166 H166        8.1148  -17.5807  -40.3966 H         1 UNK         0.0600 
    167 H167        7.5765  -19.0777  -39.6532 H         1 UNK         0.0600 
    168 H168        8.0153  -19.0574  -41.3570 H         1 UNK         0.0600 
    169 H169        6.9391  -17.2037  -42.6167 H         1 UNK         0.3000 
    170 H170        5.7709  -15.1976  -43.8922 H         1 UNK         0.0600 
    171 H171        6.7943  -17.2512  -44.8110 H         1 UNK         0.0600 
    172 H172        5.2147  -17.9366  -45.1753 H         1 UNK         0.0600 
    173 H173        5.7998  -16.5306  -46.0602 H         1 UNK         0.0600 
    174 H174        3.3161  -16.3413  -45.0616 H         1 UNK         0.3000 
    175 H175        1.6196  -14.9933  -45.5675 H         1 UNK         0.0600 
    176 H176        0.7784  -14.3292  -42.6956 H         1 UNK         0.0600 
    177 H177       -0.2040  -15.1077  -43.9345 H         1 UNK         0.0600 
    178 H178        1.1593  -15.9556  -43.2368 H         1 UNK         0.0600 
    179 H179        0.6679  -12.5991  -44.3594 H         1 UNK         0.3000 
    180 H180        1.8259  -10.2676  -45.4914 H         1 UNK         0.0600 
    181 H181        1.0901   -9.3313  -47.7011 H         1 UNK         0.0600 
    182 H182        0.9861  -10.9642  -48.3581 H         1 UNK         0.0600 
    183 H183        2.5418  -10.3055  -47.8601 H         1 UNK         0.0600 
    184 H184       -0.7488  -11.4376  -46.4673 H         1 UNK         0.3000 
    185 H185       -2.4857  -10.3815  -43.6450 H         1 UNK         0.0600 
    186 H186       -2.6839   -8.2391  -44.9117 H         1 UNK         0.0600 
    187 H187       -2.8358   -9.1271  -46.4230 H         1 UNK         0.0600 
    188 H188       -4.0851   -9.2618  -45.1844 H         1 UNK         0.0600 
    189 H189       -3.2812  -11.5269  -46.1665 H         1 UNK         0.3000 
    190 H190       -2.3498  -20.1620  -46.6015 H         1 UNK         0.3000 
    191 H191       -4.0563  -18.7442  -44.7004 H         1 UNK         0.0600 
    192 H192       -5.6722  -20.5246  -45.3178 H         1 UNK         0.0600 
    193 H193       -4.1013  -21.2312  -44.9723 H         1 UNK         0.0600 
    194 H194       -4.6365  -21.0440  -46.6417 H         1 UNK         0.0600 
    195 H195       -3.1950  -18.1663  -47.8948 H         1 UNK         0.3000 
    196 H196       -3.9135  -16.9784  -49.6238 H         1 UNK         0.0600 
    197 H197       -6.0600  -15.7526  -47.8097 H         1 UNK         0.0600 
    198 H198       -4.4137  -15.1565  -47.9802 H         1 UNK         0.0600 
    199 H199       -5.5026  -15.1226  -49.3517 H         1 UNK         0.0600 
    200 H200       -4.6324  -19.5724  -49.5278 H         1 UNK         0.3000 
    201 H201       -7.4331  -20.0475  -50.0815 H         1 UNK         0.0600 
    202 H202       -4.9713  -21.8521  -50.3512 H         1 UNK         0.0600 
    203 H203       -6.6558  -22.3697  -50.3972 H         1 UNK         0.0600 
    204 H204       -5.9914  -21.7017  -48.9180 H         1 UNK         0.0600 
    205 H205       -7.0803  -18.1651  -51.7466 H         1 UNK         0.3000 
    206 H206       -7.2946  -17.3742  -53.8059 H         1 UNK         0.0600 
    207 H207       -9.0840  -19.1334  -53.9233 H         1 UNK         0.0600 
    208 H208       -8.3994  -18.7902  -55.5017 H         1 UNK         0.0600 
    209 H209       -7.9307  -20.2536  -54.6474 H         1 UNK         0.0600 
    210 H210       -4.6421  -18.7411  -53.0180 H         1 UNK         0.3000 
    211 H211       -2.6019  -19.1708  -53.7251 H         1 UNK         0.0600 
    212 H212       -1.6458  -18.0395  -55.6799 H         1 UNK         0.0600 
    213 H213       -2.6964  -16.9225  -54.8263 H         1 UNK         0.0600 
    214 H214       -3.2428  -17.6829  -56.3208 H         1 UNK         0.0600 
    215 H215       -4.8357  -21.0593  -54.2651 H         1 UNK         0.3000 
    216 H216       -4.2247  -22.4319  -56.7526 H         1 UNK         0.0600 
    217 H217       -6.0073  -23.1835  -54.3767 H         1 UNK         0.0600 
    218 H218       -5.9504  -24.0315  -55.9169 H         1 UNK         0.0600 
    219 H219       -6.5280  -22.3721  -55.8493 H         1 UNK         0.0600 
    220 H220       -2.6344  -23.8722  -57.0236 H         1 UNK         0.3000 
    221 H221       -0.8211  -24.6619  -55.0110 H         1 UNK         0.0600 
    222 H222        0.1541  -26.0629  -56.8338 H         1 UNK         0.0600 
    223 H223       -1.2761  -25.7925  -57.8225 H         1 UNK         0.0600 
    224 H224       -0.2181  -24.4441  -57.4025 H         1 UNK         0.0600 
    225 H225       -3.7931  -26.1558  -56.0669 H         1 UNK         0.3000 
    226 H226       -3.2763  -28.7900  -54.9140 H         1 UNK         0.0600 
    227 H227       -5.8358  -27.4959  -56.0013 H         1 UNK         0.0600 
    228 H228       -4.7216  -28.5079  -56.9218 H         1 UNK         0.0600 
    229 H229       -5.6389  -29.1956  -55.5921 H         1 UNK         0.0600 
    230 H230       -4.1807  -25.7403  -53.6112 H         1 UNK         0.3000 
    231 H231       -5.6638  -26.9009  -51.3010 H         1 UNK         0.0600 
    232 H232       -5.3523  -23.9625  -52.1127 H         1 UNK         0.0600 
    233 H233       -6.4696  -24.6463  -50.9305 H         1 UNK         0.0600 
    234 H234       -6.6948  -24.9767  -52.6329 H         1 UNK         0.0600 
    235 H235       -4.9771  -24.7643  -49.5395 H         1 UNK         0.3000 
    236 H236       -2.6634  -25.7063  -48.2667 H         1 UNK         0.0600 
    237 H237       -4.4869  -24.4575  -47.1204 H         1 UNK         0.0600 
    238 H238       -2.9415  -23.6735  -46.8378 H         1 UNK         0.0600 
    239 H239       -4.0610  -22.9900  -48.0042 H         1 UNK         0.0600 
    240 H240       -3.0206  -23.1663  -50.6734 H         1 UNK         0.3000 
    241 H241       -0.2910  -22.1907  -50.5189 H         1 UNK         0.0600 
    242 H242       -0.0453  -25.4256  -52.8327 H         1 UNK         0.3800 
    243 H243       -1.3351  -25.2273  -51.6821 H         1 UNK         0.3800 
    244 H244       -2.6440  -21.6474  -52.3748 H         1 UNK         0.0800 
    245 H245       -1.0617  -21.0714  -52.7949 H         1 UNK         0.0800 
    246 H246        0.3809  -19.5673  -51.5142 H         1 UNK         0.0800 
    247 H247       -0.6998  -18.5034  -52.3776 H         1 UNK         0.0800 
@<TRIPOS>BOND
     1    1    2 1    
     2    1  127 1    
     3    1  128 1    
     4    1  129 1    
     5    2    3 2    
     6    2    4 am   BACKBONE|DICT|INTERRES
     7    4    5 1    
     8    4  130 1    
     9    5    6 1    
    10    5   65 1    
    11    5  131 1    
    12    6    7 1    
    13    6  132 1    
    14    6  133 1    
    15    7    8 1    
    16    8    9 1    
    17    8  134 1    
    18    8  135 1    
    19    9   10 ar   
    20    9   14 ar   
    21   10   11 ar   
    22   10  136 1    
    23   11   12 ar   
    24   11  126 1    
    25   12   13 ar   
    26   12  137 1    
    27   13   14 ar   
    28   13   15 1    
    29   14  138 1    
    30   15   16 1    
    31   15  139 1    
    32   15  140 1    
    33   16   17 1    
    34   17   18 1    
    35   17  141 1    
    36   17  142 1    
    37   18   19 1    
    38   18   67 1    
    39   18  143 1    
    40   19   20 am   BACKBONE|DICT|INTERRES
    41   19  144 1    
    42   20   21 2    
    43   20   22 1    
    44   22   23 1    
    45   22   24 1    
    46   22  145 1    
    47   23  146 1    
    48   23  147 1    
    49   23  148 1    
    50   24   25 am   BACKBONE|DICT|INTERRES
    51   24  149 1    
    52   25   26 2    
    53   25   27 1    
    54   27   28 1    
    55   27   29 1    
    56   27  150 1    
    57   28  151 1    
    58   28  152 1    
    59   28  153 1    
    60   29   30 am   BACKBONE|DICT|INTERRES
    61   29  154 1    
    62   30   31 2    
    63   30   32 1    
    64   32   33 1    
    65   32   34 1    
    66   32  155 1    
    67   33  156 1    
    68   33  157 1    
    69   33  158 1    
    70   34   35 am   BACKBONE|DICT|INTERRES
    71   34  159 1    
    72   35   36 2    
    73   35   37 1    
    74   37   38 1    
    75   37   39 1    
    76   37  160 1    
    77   38  161 1    
    78   38  162 1    
    79   38  163 1    
    80   39   40 am   BACKBONE|DICT|INTERRES
    81   39  164 1    
    82   40   41 2    
    83   40   42 1    
    84   42   43 1    
    85   42   44 1    
    86   42  165 1    
    87   43  166 1    
    88   43  167 1    
    89   43  168 1    
    90   44   45 am   BACKBONE|DICT|INTERRES
    91   44  169 1    
    92   45   46 2    
    93   45   47 1    
    94   47   48 1    
    95   47   49 1    
    96   47  170 1    
    97   48  171 1    
    98   48  172 1    
    99   48  173 1    
   100   49   50 am   BACKBONE|DICT|INTERRES
   101   49  174 1    
   102   50   51 2    
   103   50   52 1    
   104   52   53 1    
   105   52   54 1    
   106   52  175 1    
   107   53  176 1    
   108   53  177 1    
   109   53  178 1    
   110   54   55 am   BACKBONE|DICT|INTERRES
   111   54  179 1    
   112   55   56 2    
   113   55   57 1    
   114   57   58 1    
   115   57   59 1    
   116   57  180 1    
   117   58  181 1    
   118   58  182 1    
   119   58  183 1    
   120   59   60 am   BACKBONE|DICT|INTERRES
   121   59  184 1    
   122   60   61 2    
   123   60   62 1    
   124   62   63 1    
   125   62   64 1    
   126   62  185 1    
   127   63  186 1    
   128   63  187 1    
   129   63  188 1    
   130   64   65 am   BACKBONE|DICT|INTERRES
   131   64  189 1    
   132   65   66 2    
   133   67   68 2    
   134   67   69 am   BACKBONE|DICT|INTERRES
   135   69   70 1    
   136   69  190 1    
   137   70   71 1    
   138   70   72 1    
   139   70  191 1    
   140   71  192 1    
   141   71  193 1    
   142   71  194 1    
   143   72   73 2    
   144   72   74 am   BACKBONE|DICT|INTERRES
   145   74   75 1    
   146   74  195 1    
   147   75   76 1    
   148   75   77 1    
   149   75  196 1    
   150   76  197 1    
   151   76  198 1    
   152   76  199 1    
   153   77   78 2    
   154   77   79 am   BACKBONE|DICT|INTERRES
   155   79   80 1    
   156   79  200 1    
   157   80   81 1    
   158   80   82 1    
   159   80  201 1    
   160   81  202 1    
   161   81  203 1    
   162   81  204 1    
   163   82   83 2    
   164   82   84 am   BACKBONE|DICT|INTERRES
   165   84   85 1    
   166   84  205 1    
   167   85   86 1    
   168   85   87 1    
   169   85  206 1    
   170   86  207 1    
   171   86  208 1    
   172   86  209 1    
   173   87   88 2    
   174   87   89 am   BACKBONE|DICT|INTERRES
   175   89   90 1    
   176   89  210 1    
   177   90   91 1    
   178   90   92 1    
   179   90  211 1    
   180   91  212 1    
   181   91  213 1    
   182   91  214 1    
   183   92   93 2    
   184   92   94 am   BACKBONE|DICT|INTERRES
   185   94   95 1    
   186   94  215 1    
   187   95   96 1    
   188   95   97 1    
   189   95  216 1    
   190   96  217 1    
   191   96  218 1    
   192   96  219 1    
   193   97   98 2    
   194   97   99 am   BACKBONE|DICT|INTERRES
   195   99  100 1    
   196   99  220 1    
   197  100  101 1    
   198  100  102 1    
   199  100  221 1    
   200  101  222 1    
   201  101  223 1    
   202  101  224 1    
   203  102  103 2    
   204  102  104 am   BACKBONE|DICT|INTERRES
   205  104  105 1    
   206  104  225 1    
   207  105  106 1    
   208  105  107 1    
   209  105  226 1    
   210  106  227 1    
   211  106  228 1    
   212  106  229 1    
   213  107  108 2    
   214  107  109 am   BACKBONE|DICT|INTERRES
   215  109  110 1    
   216  109  230 1    
   217  110  111 1    
   218  110  112 1    
   219  110  231 1    
   220  111  232 1    
   221  111  233 1    
   222  111  234 1    
   223  112  113 2    
   224  112  114 am   BACKBONE|DICT|INTERRES
   225  114  115 1    
   226  114  235 1    
   227  115  116 1    
   228  115  117 1    
   229  115  236 1    
   230  116  237 1    
   231  116  238 1    
   232  116  239 1    
   233  117  118 2    
   234  117  119 am   BACKBONE|DICT|INTERRES
   235  119  120 1    
   236  119  240 1    
   237  120  121 1    
   238  120  124 1    
   239  120  241 1    
   240  121  122 am   BACKBONE|DICT|INTERRES
   241  121  123 2    
   242  122  242 1    
   243  122  243 1    
   244  124  125 1    
   245  124  244 1    
   246  124  245 1    
   247  125  126 1    
   248  126  246 1    
   249  126  247 1    
@<TRIPOS>SUBSTRUCTURE
     1 UNK         1 GROUP             0       ****    0 ROOT    
