@<TRIPOS>MOLECULE
3R540
247   249    1
SMALL
USER_CHARGES


@<TRIPOS>ATOM
      1 CA         -1.9727  -10.1838  -49.3684 C.3       0 UNK        -0.1800 
      2 C          -0.8503  -10.9574  -48.6934 C.2       0 UNK         0.5000 
      3 O          -0.8424  -11.0829  -47.4693 O.2       0 UNK        -0.5000 
      4 N           0.0903  -11.4954  -49.4817 N.am      1 UNK        -0.5000 
      5 CA          1.2557  -12.2540  -49.0059 C.3       1 UNK         0.1400 
      6 C6          2.2458  -12.5397  -50.1588 C.3       23 UNK        -0.0398 
      7 S7          3.9161  -12.9892  -49.5740 S.3       23 UNK        -0.2404 
      8 C8          4.2973  -14.4379  -50.6080 C.3       23 UNK        -0.0205 
      9 C9          3.5013  -15.6714  -50.2062 C.ar      23 UNK        -0.0193 
     10 C10         2.3654  -16.0461  -50.9275 C.ar      23 UNK        -0.1150 
     11 C11         1.6628  -17.2042  -50.5903 C.ar      23 UNK        -0.0193 
     12 C12         2.1101  -17.9983  -49.5314 C.ar      23 UNK        -0.1150 
     13 C13         3.2375  -17.6294  -48.7833 C.ar      23 UNK        -0.0193 
     14 C14         3.9227  -16.4608  -49.1325 C.ar      23 UNK        -0.1150 
     15 C15         3.7730  -18.4476  -47.6034 C.3       23 UNK        -0.0205 
     16 S16         2.8426  -19.9482  -47.1442 S.3       23 UNK        -0.2404 
     17 C17         1.2853  -19.2510  -46.4930 C.3       23 UNK        -0.0398 
     18 CA          0.1142  -20.2245  -46.7539 C.3       11 UNK         0.1400 
     19 N           0.2654  -21.4700  -45.9988 N.am      11 UNK        -0.5000 
     20 C          -0.4156  -22.5996  -46.2290 C.2       10 UNK         0.5000 
     21 O          -1.2373  -22.7340  -47.1339 O.2       10 UNK        -0.5000 
     22 CA         -0.1673  -23.7612  -45.2511 C.3       10 UNK         0.1400 
     23 CB          0.9915  -24.6398  -45.7424 C.3       10 UNK        -0.1800 
     24 N           0.1134  -23.3019  -43.8894 N.am      10 UNK        -0.5000 
     25 C          -0.7362  -22.6112  -43.1197 C.2       9 UNK         0.5000 
     26 O          -1.8733  -22.3018  -43.4775 O.2       9 UNK        -0.5000 
     27 CA         -0.2144  -22.1345  -41.7530 C.3       9 UNK         0.1400 
     28 CB         -0.1437  -23.2907  -40.7382 C.3       9 UNK        -0.1800 
     29 N           1.0506  -21.3894  -41.8241 N.am      9 UNK        -0.5000 
     30 C           2.2829  -21.8247  -42.1367 C.2       8 UNK         0.5000 
     31 O           2.5314  -22.9868  -42.4604 O.2       8 UNK        -0.5000 
     32 CA          3.4366  -20.7965  -42.1125 C.3       8 UNK         0.1400 
     33 CB          3.9226  -20.4993  -43.5386 C.3       8 UNK        -0.1800 
     34 N           3.0843  -19.5300  -41.4680 N.am      8 UNK        -0.5000 
     35 C           2.9189  -19.3619  -40.1475 C.2       7 UNK         0.5000 
     36 O           3.1521  -20.2406  -39.3169 O.2       7 UNK        -0.5000 
     37 CA          2.3694  -18.0000  -39.6699 C.3       7 UNK         0.1400 
     38 CB          3.5066  -17.1271  -39.1179 C.3       7 UNK        -0.1800 
     39 N           1.6505  -17.2408  -40.6982 N.am      7 UNK        -0.5000 
     40 C           0.5657  -17.6528  -41.3705 C.2       6 UNK         0.5000 
     41 O           0.0124  -18.7344  -41.1727 O.2       6 UNK        -0.5000 
     42 CA          0.0316  -16.7285  -42.4814 C.3       6 UNK         0.1400 
     43 CB         -1.2014  -15.9654  -41.9762 C.3       6 UNK        -0.1800 
     44 N           1.0105  -15.7759  -43.0183 N.am      6 UNK        -0.5000 
     45 C           2.1693  -16.0978  -43.6146 C.2       5 UNK         0.5000 
     46 O           2.5619  -17.2601  -43.7349 O.2       5 UNK        -0.5000 
     47 CA          3.0402  -14.9358  -44.1360 C.3       5 UNK         0.1400 
     48 CB          3.8539  -15.3323  -45.3780 C.3       5 UNK        -0.1800 
     49 N           2.2390  -13.7567  -44.4625 N.am      5 UNK        -0.5000 
     50 C           2.1016  -12.6703  -43.6930 C.2       4 UNK         0.5000 
     51 O           2.6362  -12.5366  -42.5920 O.2       4 UNK        -0.5000 
     52 CA          1.1812  -11.5602  -44.2337 C.3       4 UNK         0.1400 
     53 CB          1.9294  -10.6849  -45.2499 C.3       4 UNK        -0.1800 
     54 N          -0.0400  -12.0878  -44.8465 N.am      4 UNK        -0.5000 
     55 C          -1.0094  -12.7255  -44.1752 C.2       3 UNK         0.5000 
     56 O          -0.9804  -12.9129  -42.9595 O.2       3 UNK        -0.5000 
     57 CA         -2.2008  -13.2534  -44.9924 C.3       3 UNK         0.1400 
     58 CB         -3.2592  -12.1564  -45.1852 C.3       3 UNK        -0.1800 
     59 N          -1.7783  -13.7589  -46.2970 N.am      3 UNK        -0.5000 
     60 C          -1.3220  -15.0001  -46.5200 C.2       2 UNK         0.5000 
     61 O          -1.2565  -15.8727  -45.6547 O.2       2 UNK        -0.5000 
     62 CA         -0.8510  -15.3179  -47.9545 C.3       2 UNK         0.1400 
     63 CB         -2.0334  -15.8231  -48.7957 C.3       2 UNK        -0.1800 
     64 N          -0.2429  -14.1732  -48.6380 N.am      2 UNK        -0.5000 
     65 C           0.8614  -13.5316  -48.2281 C.2       1 UNK         0.5000 
     66 O           1.5065  -13.8607  -47.2337 O.2       1 UNK        -0.5000 
     67 C          -1.2447  -19.5524  -46.4814 C.2       11 UNK         0.5000 
     68 O          -1.8571  -19.0479  -47.4208 O.2       11 UNK        -0.5000 
     69 N          -1.7178  -19.6060  -45.2265 N.am      12 UNK        -0.5000 
     70 CA         -3.0318  -19.0976  -44.8224 C.3       12 UNK         0.1400 
     71 CB         -3.1169  -19.0410  -43.2896 C.3       12 UNK        -0.1800 
     72 C          -4.1767  -19.9578  -45.3848 C.2       12 UNK         0.5000 
     73 O          -5.1943  -19.4189  -45.8196 O.2       12 UNK        -0.5000 
     74 N          -3.9705  -21.2817  -45.3856 N.am      13 UNK        -0.5000 
     75 CA         -4.8900  -22.2758  -45.9388 C.3       13 UNK         0.1400 
     76 CB         -4.5310  -23.6476  -45.3453 C.3       13 UNK        -0.1800 
     77 C          -4.8749  -22.3444  -47.4796 C.2       13 UNK         0.5000 
     78 O          -5.7297  -23.0206  -48.0525 O.2       13 UNK        -0.5000 
     79 N          -3.8845  -21.7030  -48.1185 N.am      14 UNK        -0.5000 
     80 CA         -3.5838  -21.7314  -49.5543 C.3       14 UNK         0.1400 
     81 CB         -4.6637  -20.9713  -50.3479 C.3       14 UNK        -0.1800 
     82 C          -3.3536  -23.1697  -50.0643 C.2       14 UNK         0.5000 
     83 O          -3.9367  -23.5781  -51.0703 O.2       14 UNK        -0.5000 
     84 N          -2.5463  -23.9268  -49.3061 N.am      15 UNK        -0.5000 
     85 CA         -2.2535  -25.3556  -49.4637 C.3       15 UNK         0.1400 
     86 CB         -1.4363  -25.6046  -50.7482 C.3       15 UNK        -0.1800 
     87 C          -3.5236  -26.2299  -49.3776 C.2       15 UNK         0.5000 
     88 O          -3.6865  -27.1612  -50.1646 O.2       15 UNK        -0.5000 
     89 N          -4.4232  -25.8800  -48.4449 N.am      16 UNK        -0.5000 
     90 CA         -5.7734  -26.4345  -48.2709 C.3       16 UNK         0.1400 
     91 CB         -5.7157  -27.9053  -47.8081 C.3       16 UNK        -0.1800 
     92 C          -6.6433  -26.2184  -49.5284 C.2       16 UNK         0.5000 
     93 O          -7.2925  -27.1466  -50.0128 O.2       16 UNK        -0.5000 
     94 N          -6.5890  -24.9840  -50.0471 N.am      17 UNK        -0.5000 
     95 CA         -7.2147  -24.4716  -51.2701 C.3       17 UNK         0.1400 
     96 CB         -8.7522  -24.5421  -51.1752 C.3       17 UNK        -0.1800 
     97 C          -6.6839  -25.0803  -52.5878 C.2       17 UNK         0.5000 
     98 O          -7.2289  -24.7677  -53.6475 O.2       17 UNK        -0.5000 
     99 N          -5.6230  -25.8999  -52.5369 N.am      18 UNK        -0.5000 
    100 CA        -4.9776  -26.4741  -53.7217 C.3       18 UNK         0.1400 
    101 CB        -4.1148  -27.6761  -53.3121 C.3       18 UNK        -0.1800 
    102 C         -4.1310  -25.4468  -54.4974 C.2       18 UNK         0.5000 
    103 O         -3.9076  -25.6319  -55.6943 O.2       18 UNK        -0.5000 
    104 N         -3.6897  -24.3843  -53.8136 N.am      19 UNK        -0.5000 
    105 CA        -2.9178  -23.2743  -54.3614 C.3       19 UNK         0.1400 
    106 CB        -1.5235  -23.2565  -53.7082 C.3       19 UNK        -0.1800 
    107 C         -3.6863  -21.9586  -54.1513 C.2       19 UNK         0.5000 
    108 O         -3.0856  -20.9431  -53.8030 O.2       19 UNK        -0.5000 
    109 N         -5.0082  -21.9831  -54.3804 N.am      20 UNK        -0.5000 
    110 CA        -5.9231  -20.8433  -54.2232 C.3       20 UNK         0.1400 
    111 CB        -7.3619  -21.3200  -54.4723 C.3       20 UNK        -0.1800 
    112 C         -5.5964  -19.6178  -55.1058 C.2       20 UNK         0.5000 
    113 O         -6.0368  -18.5119  -54.7916 O.2       20 UNK        -0.5000 
    114 N         -4.8212  -19.8277  -56.1784 N.am      21 UNK        -0.5000 
    115 CA        -4.2880  -18.7826  -57.0532 C.3       21 UNK         0.1400 
    116 CB        -3.8292  -19.4336  -58.3678 C.3       21 UNK        -0.1800 
    117 C         -3.1348  -17.9703  -56.4225 C.2       21 UNK         0.5000 
    118 O         -2.8079  -16.9027  -56.9430 O.2       21 UNK        -0.5000 
    119 N         -2.5252  -18.4810  -55.3424 N.am      22 UNK        -0.5000 
    120 CA        -1.4600  -17.8179  -54.5767 C.3       22 UNK         0.1400 
    121 C         -1.9600  -16.5187  -53.8826 C.2       22 UNK         0.5000 
    122 N         -1.2466  -15.4101  -54.0287 N.am      22 UNK        -0.7600 
    123 O         -2.9695  -16.5187  -53.1826 O.2       22 UNK        -0.5000 
    124 C124       -0.8345  -18.8047  -53.5571 C.3       23 UNK        -0.0398 
    125 S125        0.8257  -18.3192  -52.9790 S.3       23 UNK        -0.2404 
    126 C126        0.4145  -17.5903  -51.3649 C.3       23 UNK        -0.0205 
    127 H127       -1.9822   -9.1535  -49.0131 H         1 UNK         0.0600 
    128 H128       -1.8614  -10.1699  -50.4527 H         1 UNK         0.0600 
    129 H129       -2.9351  -10.6365  -49.1298 H         1 UNK         0.0600 
    130 H130        0.0273  -11.3608  -50.4810 H         1 UNK         0.3000 
    131 H131        1.7651  -11.5992  -48.2973 H         1 UNK         0.0600 
    132 H132        2.3661  -11.6439  -50.7697 H         1 UNK         0.0800 
    133 H133        1.8471  -13.2998  -50.8297 H         1 UNK         0.0800 
    134 H134        5.3630  -14.6556  -50.5223 H         1 UNK         0.0800 
    135 H135        4.1250  -14.1926  -51.6572 H         1 UNK         0.0800 
    136 H136        2.0315  -15.4473  -51.7629 H         1 UNK         0.1150 
    137 H137        1.5664  -18.9013  -49.3004 H         1 UNK         0.1150 
    138 H138        4.7988  -16.1669  -48.5711 H         1 UNK         0.1150 
    139 H139        4.7946  -18.7507  -47.8362 H         1 UNK         0.0800 
    140 H140        3.8382  -17.8140  -46.7209 H         1 UNK         0.0800 
    141 H141        1.3976  -19.0504  -45.4269 H         1 UNK         0.0800 
    142 H142        1.0975  -18.2830  -46.9601 H         1 UNK         0.0800 
    143 H143        0.1221  -20.4820  -47.8159 H         1 UNK         0.0600 
    144 H144        0.9416  -21.4661  -45.2507 H         1 UNK         0.3000 
    145 H145       -1.0731  -24.3699  -45.2214 H         1 UNK         0.0600 
    146 H146        1.1273  -25.5086  -45.0982 H         1 UNK         0.0600 
    147 H147        0.8017  -25.0096  -46.7511 H         1 UNK         0.0600 
    148 H148        1.9328  -24.0888  -45.7649 H         1 UNK         0.0600 
    149 H149        1.0439  -23.4753  -43.5176 H         1 UNK         0.3000 
    150 H150       -0.9484  -21.4208  -41.3750 H         1 UNK         0.0600 
    151 H151       -1.1205  -23.7611  -40.6191 H         1 UNK         0.0600 
    152 H152        0.1663  -22.9324  -39.7565 H         1 UNK         0.0600 
    153 H153        0.5547  -24.0688  -41.0467 H         1 UNK         0.0600 
    154 H154        0.9500  -20.4054  -41.5925 H         1 UNK         0.3000 
    155 H155        4.2618  -21.2492  -41.5590 H         1 UNK         0.0600 
    156 H156        4.2103  -21.4135  -44.0596 H         1 UNK         0.0600 
    157 H157        4.7928  -19.8427  -43.5307 H         1 UNK         0.0600 
    158 H158        3.1468  -20.0139  -44.1288 H         1 UNK         0.0600 
    159 H159        2.8845  -18.7515  -42.0855 H         1 UNK         0.3000 
    160 H160        1.6659  -18.2023  -38.8599 H         1 UNK         0.0600 
    161 H161        4.2271  -16.8682  -39.8949 H         1 UNK         0.0600 
    162 H162        3.1226  -16.1999  -38.6921 H         1 UNK         0.0600 
    163 H163        4.0495  -17.6453  -38.3262 H         1 UNK         0.0600 
    164 H164        2.0335  -16.3384  -40.9376 H         1 UNK         0.3000 
    165 H165       -0.2753  -17.3710  -43.3088 H         1 UNK         0.0600 
    166 H166       -1.7455  -15.5168  -42.8054 H         1 UNK         0.0600 
    167 H167       -1.8995  -16.6241  -41.4583 H         1 UNK         0.0600 
    168 H168       -0.9269  -15.1728  -41.2793 H         1 UNK         0.0600 
    169 H169        0.7588  -14.7986  -42.9651 H         1 UNK         0.3000 
    170 H170        3.7498  -14.6965  -43.3418 H         1 UNK         0.0600 
    171 H171        4.5386  -16.1512  -45.1555 H         1 UNK         0.0600 
    172 H172        3.2032  -15.6481  -46.1935 H         1 UNK         0.0600 
    173 H173        4.4552  -14.4979  -45.7391 H         1 UNK         0.0600 
    174 H174        1.7845  -13.7737  -45.3735 H         1 UNK         0.3000 
    175 H175        0.8866  -10.9280  -43.3935 H         1 UNK         0.0600 
    176 H176        2.3107  -11.2750  -46.0827 H         1 UNK         0.0600 
    177 H177        1.2839   -9.9056  -45.6555 H         1 UNK         0.0600 
    178 H178        2.7830  -10.1923  -44.7828 H         1 UNK         0.0600 
    179 H179       -0.1709  -11.9116  -45.8378 H         1 UNK         0.3000 
    180 H180       -2.6658  -14.0643  -44.4287 H         1 UNK         0.0600 
    181 H181       -3.6193  -11.7913  -44.2226 H         1 UNK         0.0600 
    182 H182       -2.8644  -11.2999  -45.7321 H         1 UNK         0.0600 
    183 H183       -4.1226  -12.5344  -45.7328 H         1 UNK         0.0600 
    184 H184       -1.7414  -13.0831  -47.0482 H         1 UNK         0.3000 
    185 H185       -0.1030  -16.1112  -47.8921 H         1 UNK         0.0600 
    186 H186       -2.5311  -16.6627  -48.3099 H         1 UNK         0.0600 
    187 H187       -2.7830  -15.0450  -48.9442 H         1 UNK         0.0600 
    188 H188       -1.7078  -16.1653  -49.7767 H         1 UNK         0.0600 
    189 H189       -0.7298  -13.8188  -49.4477 H         1 UNK         0.3000 
    190 H190       -1.1871  -20.0947  -44.5215 H         1 UNK         0.3000 
    191 H191       -3.1400  -18.0825  -45.2115 H         1 UNK         0.0600 
    192 H192       -4.0405  -18.5570  -42.9703 H         1 UNK         0.0600 
    193 H193       -2.2912  -18.4753  -42.8671 H         1 UNK         0.0600 
    194 H194       -3.0979  -20.0343  -42.8409 H         1 UNK         0.0600 
    195 H195       -3.1304  -21.6390  -44.9421 H         1 UNK         0.3000 
    196 H196       -5.9062  -22.0218  -45.6305 H         1 UNK         0.0600 
    197 H197       -5.2375  -24.4135  -45.6666 H         1 UNK         0.0600 
    198 H198       -4.5557  -23.6239  -44.2556 H         1 UNK         0.0600 
    199 H199       -3.5336  -23.9678  -45.6485 H         1 UNK         0.0600 
    200 H200       -3.2121  -21.2098  -47.5476 H         1 UNK         0.3000 
    201 H201       -2.6394  -21.2008  -49.6844 H         1 UNK         0.0600 
    202 H202       -4.8052  -19.9645  -49.9552 H         1 UNK         0.0600 
    203 H203       -5.6267  -21.4815  -50.3212 H         1 UNK         0.0600 
    204 H204       -4.3708  -20.8719  -51.3918 H         1 UNK         0.0600 
    205 H205       -2.1119  -23.4811  -48.4979 H         1 UNK         0.3000 
    206 H206       -1.6292  -25.6363  -48.6144 H         1 UNK         0.0600 
    207 H207       -0.5526  -24.9678  -50.7839 H         1 UNK         0.0600 
    208 H208       -1.0941  -26.6388  -50.7988 H         1 UNK         0.0600 
    209 H209       -2.0239  -25.4131  -51.6455 H         1 UNK         0.0600 
    210 H210       -4.2139  -25.0692  -47.8820 H         1 UNK         0.3000 
    211 H211       -6.2450  -25.8588  -47.4734 H         1 UNK         0.0600 
    212 H212       -5.3048  -28.5601  -48.5769 H         1 UNK         0.0600 
    213 H213       -6.7123  -28.2751  -47.5648 H         1 UNK         0.0600 
    214 H214       -5.1026  -28.0124  -46.9134 H         1 UNK         0.0600 
    215 H215       -6.0431  -24.2966  -49.5351 H         1 UNK         0.3000 
    216 H216       -6.9409  -23.4165  -51.3107 H         1 UNK         0.0600 
    217 H217       -9.1118  -24.0795  -50.2561 H         1 UNK         0.0600 
    218 H218       -9.1136  -25.5703  -51.1988 H         1 UNK         0.0600 
    219 H219       -9.2207  -24.0139  -52.0064 H         1 UNK         0.0600 
    220 H220       -5.2059  -26.1109  -51.6396 H         1 UNK         0.3000 
    221 H221       -5.7581  -26.8369  -54.3939 H         1 UNK         0.0600 
    222 H222       -3.2443  -27.3682  -52.7329 H         1 UNK         0.0600 
    223 H223       -4.6831  -28.3898  -52.7151 H         1 UNK         0.0600 
    224 H224       -3.7466  -28.2059  -54.1914 H         1 UNK         0.0600 
    225 H225       -3.9368  -24.2895  -52.8302 H         1 UNK         0.3000 
    226 H226       -2.7856  -23.3897  -55.4387 H         1 UNK         0.0600 
    227 H227       -1.0100  -24.2074  -53.8500 H         1 UNK         0.0600 
    228 H228       -0.8948  -22.4803  -54.1461 H         1 UNK         0.0600 
    229 H229       -1.5835  -23.0648  -52.6366 H         1 UNK         0.0600 
    230 H230       -5.4288  -22.8607  -54.6520 H         1 UNK         0.3000 
    231 H231       -5.8564  -20.5086  -53.1870 H         1 UNK         0.0600 
    232 H232       -7.6560  -22.0793  -53.7481 H         1 UNK         0.0600 
    233 H233       -8.0716  -20.4969  -54.3785 H         1 UNK         0.0600 
    234 H234       -7.4783  -21.7428  -55.4708 H         1 UNK         0.0600 
    235 H235       -4.5179  -20.7716  -56.3656 H         1 UNK         0.3000 
    236 H236       -5.0929  -18.0812  -57.2829 H         1 UNK         0.0600 
    237 H237       -4.6517  -19.9540  -58.8590 H         1 UNK         0.0600 
    238 H238       -3.4579  -18.6837  -59.0676 H         1 UNK         0.0600 
    239 H239       -3.0265  -20.1531  -58.2016 H         1 UNK         0.0600 
    240 H240       -2.8727  -19.3477  -54.9448 H         1 UNK         0.3000 
    241 H241       -0.6866  -17.5475  -55.2985 H         1 UNK         0.0600 
    242 H242       -1.5612  -14.5636  -53.5821 H         1 UNK         0.3800 
    243 H243       -0.4144  -15.3908  -54.5973 H         1 UNK         0.3800 
    244 H244       -1.5022  -18.9749  -52.7104 H         1 UNK         0.0800 
    245 H245       -0.7068  -19.7800  -54.0285 H         1 UNK         0.0800 
    246 H246       -0.1885  -18.2924  -50.7864 H         1 UNK         0.0800 
    247 H247       -0.2011  -16.7035  -51.5165 H         1 UNK         0.0800 
@<TRIPOS>BOND
     1    1    2 1    
     2    1  127 1    
     3    1  128 1    
     4    1  129 1    
     5    2    3 2    
     6    2    4 am   BACKBONE|DICT|INTERRES
     7    4    5 1    
     8    4  130 1    
     9    5    6 1    
    10    5   65 1    
    11    5  131 1    
    12    6    7 1    
    13    6  132 1    
    14    6  133 1    
    15    7    8 1    
    16    8    9 1    
    17    8  134 1    
    18    8  135 1    
    19    9   10 ar   
    20    9   14 ar   
    21   10   11 ar   
    22   10  136 1    
    23   11   12 ar   
    24   11  126 1    
    25   12   13 ar   
    26   12  137 1    
    27   13   14 ar   
    28   13   15 1    
    29   14  138 1    
    30   15   16 1    
    31   15  139 1    
    32   15  140 1    
    33   16   17 1    
    34   17   18 1    
    35   17  141 1    
    36   17  142 1    
    37   18   19 1    
    38   18   67 1    
    39   18  143 1    
    40   19   20 am   BACKBONE|DICT|INTERRES
    41   19  144 1    
    42   20   21 2    
    43   20   22 1    
    44   22   23 1    
    45   22   24 1    
    46   22  145 1    
    47   23  146 1    
    48   23  147 1    
    49   23  148 1    
    50   24   25 am   BACKBONE|DICT|INTERRES
    51   24  149 1    
    52   25   26 2    
    53   25   27 1    
    54   27   28 1    
    55   27   29 1    
    56   27  150 1    
    57   28  151 1    
    58   28  152 1    
    59   28  153 1    
    60   29   30 am   BACKBONE|DICT|INTERRES
    61   29  154 1    
    62   30   31 2    
    63   30   32 1    
    64   32   33 1    
    65   32   34 1    
    66   32  155 1    
    67   33  156 1    
    68   33  157 1    
    69   33  158 1    
    70   34   35 am   BACKBONE|DICT|INTERRES
    71   34  159 1    
    72   35   36 2    
    73   35   37 1    
    74   37   38 1    
    75   37   39 1    
    76   37  160 1    
    77   38  161 1    
    78   38  162 1    
    79   38  163 1    
    80   39   40 am   BACKBONE|DICT|INTERRES
    81   39  164 1    
    82   40   41 2    
    83   40   42 1    
    84   42   43 1    
    85   42   44 1    
    86   42  165 1    
    87   43  166 1    
    88   43  167 1    
    89   43  168 1    
    90   44   45 am   BACKBONE|DICT|INTERRES
    91   44  169 1    
    92   45   46 2    
    93   45   47 1    
    94   47   48 1    
    95   47   49 1    
    96   47  170 1    
    97   48  171 1    
    98   48  172 1    
    99   48  173 1    
   100   49   50 am   BACKBONE|DICT|INTERRES
   101   49  174 1    
   102   50   51 2    
   103   50   52 1    
   104   52   53 1    
   105   52   54 1    
   106   52  175 1    
   107   53  176 1    
   108   53  177 1    
   109   53  178 1    
   110   54   55 am   BACKBONE|DICT|INTERRES
   111   54  179 1    
   112   55   56 2    
   113   55   57 1    
   114   57   58 1    
   115   57   59 1    
   116   57  180 1    
   117   58  181 1    
   118   58  182 1    
   119   58  183 1    
   120   59   60 am   BACKBONE|DICT|INTERRES
   121   59  184 1    
   122   60   61 2    
   123   60   62 1    
   124   62   63 1    
   125   62   64 1    
   126   62  185 1    
   127   63  186 1    
   128   63  187 1    
   129   63  188 1    
   130   64   65 am   BACKBONE|DICT|INTERRES
   131   64  189 1    
   132   65   66 2    
   133   67   68 2    
   134   67   69 am   BACKBONE|DICT|INTERRES
   135   69   70 1    
   136   69  190 1    
   137   70   71 1    
   138   70   72 1    
   139   70  191 1    
   140   71  192 1    
   141   71  193 1    
   142   71  194 1    
   143   72   73 2    
   144   72   74 am   BACKBONE|DICT|INTERRES
   145   74   75 1    
   146   74  195 1    
   147   75   76 1    
   148   75   77 1    
   149   75  196 1    
   150   76  197 1    
   151   76  198 1    
   152   76  199 1    
   153   77   78 2    
   154   77   79 am   BACKBONE|DICT|INTERRES
   155   79   80 1    
   156   79  200 1    
   157   80   81 1    
   158   80   82 1    
   159   80  201 1    
   160   81  202 1    
   161   81  203 1    
   162   81  204 1    
   163   82   83 2    
   164   82   84 am   BACKBONE|DICT|INTERRES
   165   84   85 1    
   166   84  205 1    
   167   85   86 1    
   168   85   87 1    
   169   85  206 1    
   170   86  207 1    
   171   86  208 1    
   172   86  209 1    
   173   87   88 2    
   174   87   89 am   BACKBONE|DICT|INTERRES
   175   89   90 1    
   176   89  210 1    
   177   90   91 1    
   178   90   92 1    
   179   90  211 1    
   180   91  212 1    
   181   91  213 1    
   182   91  214 1    
   183   92   93 2    
   184   92   94 am   BACKBONE|DICT|INTERRES
   185   94   95 1    
   186   94  215 1    
   187   95   96 1    
   188   95   97 1    
   189   95  216 1    
   190   96  217 1    
   191   96  218 1    
   192   96  219 1    
   193   97   98 2    
   194   97   99 am   BACKBONE|DICT|INTERRES
   195   99  100 1    
   196   99  220 1    
   197  100  101 1    
   198  100  102 1    
   199  100  221 1    
   200  101  222 1    
   201  101  223 1    
   202  101  224 1    
   203  102  103 2    
   204  102  104 am   BACKBONE|DICT|INTERRES
   205  104  105 1    
   206  104  225 1    
   207  105  106 1    
   208  105  107 1    
   209  105  226 1    
   210  106  227 1    
   211  106  228 1    
   212  106  229 1    
   213  107  108 2    
   214  107  109 am   BACKBONE|DICT|INTERRES
   215  109  110 1    
   216  109  230 1    
   217  110  111 1    
   218  110  112 1    
   219  110  231 1    
   220  111  232 1    
   221  111  233 1    
   222  111  234 1    
   223  112  113 2    
   224  112  114 am   BACKBONE|DICT|INTERRES
   225  114  115 1    
   226  114  235 1    
   227  115  116 1    
   228  115  117 1    
   229  115  236 1    
   230  116  237 1    
   231  116  238 1    
   232  116  239 1    
   233  117  118 2    
   234  117  119 am   BACKBONE|DICT|INTERRES
   235  119  120 1    
   236  119  240 1    
   237  120  121 1    
   238  120  124 1    
   239  120  241 1    
   240  121  122 am   BACKBONE|DICT|INTERRES
   241  121  123 2    
   242  122  242 1    
   243  122  243 1    
   244  124  125 1    
   245  124  244 1    
   246  124  245 1    
   247  125  126 1    
   248  126  246 1    
   249  126  247 1    
@<TRIPOS>SUBSTRUCTURE
     1 UNK         1 GROUP             0       ****    0 ROOT    
