@<TRIPOS>MOLECULE
3R540
247   249    1
SMALL
USER_CHARGES


@<TRIPOS>ATOM
      1 CA          3.9654  -13.8033  -49.8684 C.3       0 UNK        -0.1800 
      2 C           4.9582  -13.7005  -48.7191 C.2       0 UNK         0.5000 
      3 O           5.5359  -12.6365  -48.4980 O.2       0 UNK        -0.5000 
      4 N           5.1498  -14.8009  -47.9805 N.am      1 UNK        -0.5000 
      5 CA          5.9932  -14.8778  -46.7780 C.3       1 UNK         0.1400 
      6 C6          6.4812  -16.3241  -46.5060 C.3       23 UNK        -0.0398 
      7 S7          5.1337  -17.5473  -46.3386 S.3       23 UNK        -0.2404 
      8 C8          5.2361  -18.4001  -47.9425 C.3       23 UNK        -0.0205 
      9 C9          4.0395  -19.3131  -48.1432 C.ar      23 UNK        -0.0193 
     10 C10         2.8084  -18.7709  -48.5231 C.ar      23 UNK        -0.1150 
     11 C11         1.6877  -19.5907  -48.6755 C.ar      23 UNK        -0.0193 
     12 C12         1.8170  -20.9673  -48.4822 C.ar      23 UNK        -0.1150 
     13 C13         3.0428  -21.5240  -48.0966 C.ar      23 UNK        -0.0193 
     14 C14         4.1522  -20.6905  -47.9314 C.ar      23 UNK        -0.1150 
     15 C15         3.1641  -23.0264  -47.8624 C.3       23 UNK        -0.0205 
     16 S16         3.1750  -23.4983  -46.0974 S.3       23 UNK        -0.2404 
     17 C17         1.6909  -22.6630  -45.4377 C.3       23 UNK        -0.0398 
     18 CA          0.4776  -23.5748  -45.1390 C.3       11 UNK         0.1400 
     19 N          -0.5550  -22.7973  -44.4525 N.am      11 UNK        -0.5000 
     20 C          -1.5461  -23.2858  -43.6941 C.2       10 UNK         0.5000 
     21 O          -1.6236  -24.4706  -43.3654 O.2       10 UNK        -0.5000 
     22 CA         -2.6456  -22.2996  -43.2402 C.3       10 UNK         0.1400 
     23 CB         -2.4159  -21.8747  -41.7821 C.3       10 UNK        -0.1800 
     24 N          -2.7423  -21.0966  -44.0725 N.am      10 UNK        -0.5000 
     25 C          -3.1145  -21.0750  -45.3607 C.2       9 UNK         0.5000 
     26 O          -3.5238  -22.0672  -45.9615 O.2       9 UNK        -0.5000 
     27 CA         -2.9827  -19.7347  -46.1189 C.3       9 UNK         0.1400 
     28 CB         -4.3646  -19.0929  -46.3035 C.3       9 UNK        -0.1800 
     29 N          -2.0643  -18.7503  -45.5228 N.am      9 UNK        -0.5000 
     30 C          -0.7606  -18.9582  -45.2721 C.2       8 UNK         0.5000 
     31 O          -0.2180  -20.0459  -45.4547 O.2       8 UNK        -0.5000 
     32 CA          0.0802  -17.7993  -44.7000 C.3       8 UNK         0.1400 
     33 CB          1.3924  -17.6211  -45.4855 C.3       8 UNK        -0.1800 
     34 N          -0.6493  -16.5306  -44.6851 N.am      8 UNK        -0.5000 
     35 C          -1.2034  -15.9689  -43.6006 C.2       7 UNK         0.5000 
     36 O          -1.1296  -16.4572  -42.4727 O.2       7 UNK        -0.5000 
     37 CA         -1.9867  -14.6498  -43.7913 C.3       7 UNK         0.1400 
     38 CB         -1.1960  -13.4524  -43.2479 C.3       7 UNK        -0.1800 
     39 N          -2.3696  -14.3706  -45.1768 N.am      7 UNK        -0.5000 
     40 C          -3.2575  -15.0937  -45.8723 C.2       6 UNK         0.5000 
     41 O          -3.8685  -16.0494  -45.3962 O.2       6 UNK        -0.5000 
     42 CA         -3.4472  -14.7275  -47.3560 C.3       6 UNK         0.1400 
     43 CB         -4.5019  -13.6200  -47.5015 C.3       6 UNK        -0.1800 
     44 N          -2.2224  -14.2872  -48.0234 N.am      6 UNK        -0.5000 
     45 C          -1.0515  -14.9324  -48.0824 C.2       5 UNK         0.5000 
     46 O          -0.8605  -16.0253  -47.5539 O.2       5 UNK        -0.5000 
     47 CA          0.1197  -14.2331  -48.8063 C.3       5 UNK         0.1400 
     48 CB          0.2338  -14.7106  -50.2657 C.3       5 UNK        -0.1800 
     49 N           0.1002  -12.7650  -48.7102 N.am      5 UNK        -0.5000 
     50 C          -0.7883  -11.8974  -49.2213 C.2       4 UNK         0.5000 
     51 O          -1.7034  -12.2334  -49.9737 O.2       4 UNK        -0.5000 
     52 CA         -0.6835  -10.4221  -48.7743 C.3       4 UNK         0.1400 
     53 CB         -2.0666   -9.7422  -48.6920 C.3       4 UNK        -0.1800 
     54 N           0.0504  -10.2158  -47.5195 N.am      4 UNK        -0.5000 
     55 C          -0.2224  -10.7240  -46.3077 C.2       3 UNK         0.5000 
     56 O          -1.1471  -11.5037  -46.0625 O.2       3 UNK        -0.5000 
     57 CA          0.7554  -10.3098  -45.1897 C.3       3 UNK         0.1400 
     58 CB         -0.0019   -9.7013  -43.9986 C.3       3 UNK        -0.1800 
     59 N           1.6153  -11.3951  -44.7056 N.am      3 UNK        -0.5000 
     60 C           2.2857  -12.2915  -45.4432 C.2       2 UNK         0.5000 
     61 O           2.2117  -12.3809  -46.6738 O.2       2 UNK        -0.5000 
     62 CA          3.1999  -13.2515  -44.6642 C.3       2 UNK         0.1400 
     63 CB          2.3852  -14.2488  -43.8254 C.3       2 UNK        -0.1800 
     64 N           4.0107  -13.9826  -45.6281 N.am      2 UNK        -0.5000 
     65 C           5.3177  -14.2490  -45.5349 C.2       1 UNK         0.5000 
     66 O           5.9939  -14.0050  -44.5342 O.2       1 UNK        -0.5000 
     67 C          -0.1639  -24.2085  -46.3943 C.2       11 UNK         0.5000 
     68 O          -0.0322  -23.6855  -47.5001 O.2       11 UNK        -0.5000 
     69 N          -0.9286  -25.2860  -46.1724 N.am      12 UNK        -0.5000 
     70 CA         -1.9060  -25.8514  -47.1042 C.3       12 UNK         0.1400 
     71 CB         -2.6125  -27.0345  -46.4267 C.3       12 UNK        -0.1800 
     72 C          -1.3695  -26.2784  -48.4819 C.2       12 UNK         0.5000 
     73 O          -2.1366  -26.2468  -49.4439 O.2       12 UNK        -0.5000 
     74 N          -0.0917  -26.6776  -48.5485 N.am      13 UNK        -0.5000 
     75 CA          0.5802  -27.1895  -49.7442 C.3       13 UNK         0.1400 
     76 CB          1.9902  -27.6770  -49.3680 C.3       13 UNK        -0.1800 
     77 C           0.6126  -26.1706  -50.8985 C.2       13 UNK         0.5000 
     78 O          -0.1036  -26.3432  -51.8862 O.2       13 UNK        -0.5000 
     79 N           1.4139  -25.1067  -50.7441 N.am      14 UNK        -0.5000 
     80 CA          1.5347  -24.0310  -51.7357 C.3       14 UNK         0.1400 
     81 CB          2.8166  -23.2240  -51.4896 C.3       14 UNK        -0.1800 
     82 C           0.2975  -23.1133  -51.7800 C.2       14 UNK         0.5000 
     83 O           0.0883  -22.4362  -52.7863 O.2       14 UNK        -0.5000 
     84 N          -0.5287  -23.1485  -50.7234 N.am      15 UNK        -0.5000 
     85 CA         -1.8461  -22.5163  -50.6808 C.3       15 UNK         0.1400 
     86 CB         -2.2434  -22.2467  -49.2222 C.3       15 UNK        -0.1800 
     87 C          -2.9387  -23.3106  -51.4273 C.2       15 UNK         0.5000 
     88 O          -4.0940  -22.8963  -51.3796 O.2       15 UNK        -0.5000 
     89 N          -2.5786  -24.4191  -52.0947 N.am      16 UNK        -0.5000 
     90 CA         -3.4184  -25.2330  -52.9798 C.3       16 UNK         0.1400 
     91 CB         -3.7914  -24.4352  -54.2472 C.3       16 UNK        -0.1800 
     92 C          -4.6435  -25.8256  -52.2567 C.2       16 UNK         0.5000 
     93 O          -5.7843  -25.5675  -52.6447 O.2       16 UNK        -0.5000 
     94 N          -4.3617  -26.5959  -51.1978 N.am      17 UNK        -0.5000 
     95 CA         -5.3106  -27.1884  -50.2502 C.3       17 UNK         0.1400 
     96 CB         -6.3210  -28.1269  -50.9446 C.3       17 UNK        -0.1800 
     97 C          -5.9647  -26.1185  -49.3540 C.2       17 UNK         0.5000 
     98 O          -7.1602  -26.1916  -49.0649 O.2       17 UNK        -0.5000 
     99 N          -5.1356  -25.1606  -48.9150 N.am      18 UNK        -0.5000 
    100 CA        -5.4434  -24.0735  -47.9824 C.3       18 UNK         0.1400 
    101 CB        -5.7389  -24.6320  -46.5736 C.3       18 UNK        -0.1800 
    102 C         -6.5352  -23.1102  -48.4894 C.2       18 UNK         0.5000 
    103 O         -7.4919  -22.8232  -47.7657 O.2       18 UNK        -0.5000 
    104 N         -6.3703  -22.6050  -49.7200 N.am      19 UNK        -0.5000 
    105 CA        -7.1633  -21.4978  -50.2516 C.3       19 UNK         0.1400 
    106 CB        -6.9184  -21.3576  -51.7615 C.3       19 UNK        -0.1800 
    107 C         -6.7961  -20.1957  -49.5182 C.2       19 UNK         0.5000 
    108 O         -5.6106  -19.9254  -49.3118 O.2       19 UNK        -0.5000 
    109 N         -7.8162  -19.4139  -49.1442 N.am      20 UNK        -0.5000 
    110 CA        -7.7135  -18.2414  -48.2672 C.3       20 UNK         0.1400 
    111 CB        -9.1289  -17.7183  -47.9772 C.3       20 UNK        -0.1800 
    112 C         -6.8173  -17.0984  -48.7836 C.2       20 UNK         0.5000 
    113 O         -6.3680  -16.2852  -47.9790 O.2       20 UNK        -0.5000 
    114 N         -6.5765  -17.0536  -50.0988 N.am      21 UNK        -0.5000 
    115 CA        -5.7204  -16.0722  -50.7657 C.3       21 UNK         0.1400 
    116 CB        -6.4586  -15.5678  -52.0185 C.3       21 UNK        -0.1800 
    117 C         -4.3351  -16.6435  -51.1357 C.2       21 UNK         0.5000 
    118 O         -3.5763  -15.9524  -51.8164 O.2       21 UNK        -0.5000 
    119 N         -4.0292  -17.8819  -50.7167 N.am      22 UNK        -0.5000 
    120 CA        -2.8830  -18.6845  -51.1790 C.3       22 UNK         0.1400 
    121 C         -3.0595  -19.1746  -52.6541 C.2       22 UNK         0.5000 
    122 N         -2.0235  -19.7141  -53.2810 N.am      22 UNK        -0.7600 
    123 O         -4.1405  -19.1058  -53.2357 O.2       22 UNK        -0.5000 
    124 C124       -1.5143  -17.9933  -50.8919 C.3       23 UNK        -0.0398 
    125 S125       -0.0904  -19.1345  -50.7527 S.3       23 UNK        -0.2404 
    126 C126        0.3322  -18.9795  -48.9941 C.3       23 UNK        -0.0205 
    127 H127        4.4532  -13.5543  -50.8111 H         1 UNK         0.0600 
    128 H128        3.1434  -13.1040  -49.7128 H         1 UNK         0.0600 
    129 H129        3.5466  -14.8065  -49.9560 H         1 UNK         0.0600 
    130 H130        4.6464  -15.6467  -48.2041 H         1 UNK         0.3000 
    131 H131        6.8865  -14.2773  -46.9636 H         1 UNK         0.0600 
    132 H132        7.1502  -16.6363  -47.3089 H         1 UNK         0.0800 
    133 H133        7.0888  -16.3580  -45.5998 H         1 UNK         0.0800 
    134 H134        5.2765  -17.6724  -48.7539 H         1 UNK         0.0800 
    135 H135        6.1659  -18.9691  -47.9907 H         1 UNK         0.0800 
    136 H136        2.7158  -17.7040  -48.6681 H         1 UNK         0.1150 
    137 H137        0.9510  -21.6012  -48.6036 H         1 UNK         0.1150 
    138 H138        5.0988  -21.1145  -47.6271 H         1 UNK         0.1150 
    139 H139        2.3541  -23.5531  -48.3641 H         1 UNK         0.0800 
    140 H140        4.0839  -23.3875  -48.3245 H         1 UNK         0.0800 
    141 H141        1.3907  -21.8496  -46.0896 H         1 UNK         0.0800 
    142 H142        2.0030  -22.1765  -44.5127 H         1 UNK         0.0800 
    143 H143        0.8134  -24.3789  -44.4808 H         1 UNK         0.0600 
    144 H144       -0.5863  -21.8142  -44.7086 H         1 UNK         0.3000 
    145 H145       -3.5999  -22.8269  -43.2993 H         1 UNK         0.0600 
    146 H146       -3.2272  -21.2415  -41.4226 H         1 UNK         0.0600 
    147 H147       -2.3681  -22.7437  -41.1243 H         1 UNK         0.0600 
    148 H148       -1.4817  -21.3236  -41.6665 H         1 UNK         0.0600 
    149 H149       -2.4217  -20.2336  -43.6596 H         1 UNK         0.3000 
    150 H150       -2.5936  -19.9770  -47.1094 H         1 UNK         0.0600 
    151 H151       -5.0837  -19.8133  -46.6950 H         1 UNK         0.0600 
    152 H152       -4.3221  -18.2643  -47.0108 H         1 UNK         0.0600 
    153 H153       -4.7621  -18.7145  -45.3614 H         1 UNK         0.0600 
    154 H154       -2.4516  -17.8328  -45.3411 H         1 UNK         0.3000 
    155 H155        0.3487  -18.0924  -43.6834 H         1 UNK         0.0600 
    156 H156        1.9366  -18.5625  -45.5749 H         1 UNK         0.0600 
    157 H157        1.2153  -17.2515  -46.4943 H         1 UNK         0.0600 
    158 H158        2.0621  -16.9228  -44.9871 H         1 UNK         0.0600 
    159 H159       -0.7912  -16.1034  -45.5958 H         1 UNK         0.3000 
    160 H160       -2.9019  -14.7401  -43.2024 H         1 UNK         0.0600 
    161 H161       -0.3336  -13.2313  -43.8738 H         1 UNK         0.0600 
    162 H162       -0.8364  -13.6364  -42.2347 H         1 UNK         0.0600 
    163 H163       -1.8192  -12.5588  -43.2148 H         1 UNK         0.0600 
    164 H164       -1.9189  -13.5821  -45.6276 H         1 UNK         0.3000 
    165 H165       -3.7959  -15.6216  -47.8753 H         1 UNK         0.0600 
    166 H166       -4.7264  -13.4236  -48.5498 H         1 UNK         0.0600 
    167 H167       -5.4371  -13.9020  -47.0162 H         1 UNK         0.0600 
    168 H168       -4.1662  -12.6853  -47.0498 H         1 UNK         0.0600 
    169 H169       -2.2795  -13.4140  -48.5360 H         1 UNK         0.3000 
    170 H170        1.0295  -14.5424  -48.2893 H         1 UNK         0.0600 
    171 H171       -0.6900  -14.5480  -50.8222 H         1 UNK         0.0600 
    172 H172        1.0374  -14.1954  -50.7912 H         1 UNK         0.0600 
    173 H173        0.4530  -15.7779  -50.3050 H         1 UNK         0.0600 
    174 H174        0.7897  -12.3885  -48.0650 H         1 UNK         0.3000 
    175 H175       -0.1100   -9.9145  -49.5510 H         1 UNK         0.0600 
    176 H176       -1.9763   -8.6995  -48.3874 H         1 UNK         0.0600 
    177 H177       -2.7209  -10.2445  -47.9784 H         1 UNK         0.0600 
    178 H178       -2.5696   -9.7513  -49.6597 H         1 UNK         0.0600 
    179 H179        0.8695   -9.6299  -47.6041 H         1 UNK         0.3000 
    180 H180        1.4191   -9.5374  -45.5831 H         1 UNK         0.0600 
    181 H181       -0.6328  -10.4390  -43.5025 H         1 UNK         0.0600 
    182 H182       -0.6473   -8.8836  -44.3222 H         1 UNK         0.0600 
    183 H183        0.6864   -9.2957  -43.2569 H         1 UNK         0.0600 
    184 H184        1.7379  -11.4266  -43.7043 H         1 UNK         0.3000 
    185 H185        3.8413  -12.6575  -44.0098 H         1 UNK         0.0600 
    186 H186        1.6118  -14.7307  -44.4227 H         1 UNK         0.0600 
    187 H187        3.0211  -15.0282  -43.4051 H         1 UNK         0.0600 
    188 H188        1.8940  -13.7500  -42.9898 H         1 UNK         0.0600 
    189 H189        3.5591  -14.1255  -46.5213 H         1 UNK         0.3000 
    190 H190       -1.0129  -25.5951  -45.2121 H         1 UNK         0.3000 
    191 H191       -2.6498  -25.0736  -47.2790 H         1 UNK         0.0600 
    192 H192       -3.0782  -26.7335  -45.4880 H         1 UNK         0.0600 
    193 H193       -3.4008  -27.4381  -47.0639 H         1 UNK         0.0600 
    194 H194       -1.9166  -27.8457  -46.2093 H         1 UNK         0.0600 
    195 H195        0.4536  -26.6464  -47.6999 H         1 UNK         0.3000 
    196 H196        0.0125  -28.0539  -50.0950 H         1 UNK         0.0600 
    197 H197        2.5323  -28.0254  -50.2482 H         1 UNK         0.0600 
    198 H198        1.9407  -28.5121  -48.6691 H         1 UNK         0.0600 
    199 H199        2.5863  -26.8912  -48.9026 H         1 UNK         0.0600 
    200 H200        1.9594  -25.0212  -49.9003 H         1 UNK         0.3000 
    201 H201        1.6263  -24.4949  -52.7204 H         1 UNK         0.0600 
    202 H202        3.6877  -23.8720  -51.3918 H         1 UNK         0.0600 
    203 H203        2.7422  -22.6135  -50.5940 H         1 UNK         0.0600 
    204 H204        3.0079  -22.5449  -52.3212 H         1 UNK         0.0600 
    205 H205       -0.2738  -23.7088  -49.9207 H         1 UNK         0.3000 
    206 H206       -1.7737  -21.5532  -51.1827 H         1 UNK         0.0600 
    207 H207       -1.4939  -21.6419  -48.7134 H         1 UNK         0.0600 
    208 H208       -3.1890  -21.7065  -49.1586 H         1 UNK         0.0600 
    209 H209       -2.3556  -23.1744  -48.6649 H         1 UNK         0.0600 
    210 H210       -1.6214  -24.7368  -52.0050 H         1 UNK         0.3000 
    211 H211       -2.8046  -26.0785  -53.2940 H         1 UNK         0.0600 
    212 H212       -4.4226  -23.5761  -54.0166 H         1 UNK         0.0600 
    213 H213       -4.3365  -25.0606  -54.9550 H         1 UNK         0.0600 
    214 H214       -2.9006  -24.0679  -54.7569 H         1 UNK         0.0600 
    215 H215       -3.3879  -26.6648  -50.9142 H         1 UNK         0.3000 
    216 H216       -4.7097  -27.8068  -49.5817 H         1 UNK         0.0600 
    217 H217       -6.8953  -28.6891  -50.2074 H         1 UNK         0.0600 
    218 H218       -5.8140  -28.8514  -51.5816 H         1 UNK         0.0600 
    219 H219       -7.0356  -27.5792  -51.5591 H         1 UNK         0.0600 
    220 H220       -4.1834  -25.1965  -49.2540 H         1 UNK         0.3000 
    221 H221       -4.5379  -23.4750  -47.9074 H         1 UNK         0.0600 
    222 H222       -6.6558  -25.2215  -46.5526 H         1 UNK         0.0600 
    223 H223       -4.9263  -25.2626  -46.2176 H         1 UNK         0.0600 
    224 H224       -5.8534  -23.8222  -45.8519 H         1 UNK         0.0600 
    225 H225       -5.5446  -22.8521  -50.2622 H         1 UNK         0.3000 
    226 H226       -8.2200  -21.7230  -50.0927 H         1 UNK         0.0600 
    227 H227       -7.0985  -22.2990  -52.2813 H         1 UNK         0.0600 
    228 H228       -7.5828  -20.6102  -52.1960 H         1 UNK         0.0600 
    229 H229       -5.8953  -21.0474  -51.9779 H         1 UNK         0.0600 
    230 H230       -8.7549  -19.7045  -49.3771 H         1 UNK         0.3000 
    231 H231       -7.2791  -18.5803  -47.3246 H         1 UNK         0.0600 
    232 H232       -9.6322  -17.3960  -48.8897 H         1 UNK         0.0600 
    233 H233       -9.1002  -16.8640  -47.2992 H         1 UNK         0.0600 
    234 H234       -9.7448  -18.4837  -47.5044 H         1 UNK         0.0600 
    235 H235       -6.9819  -17.7704  -50.6830 H         1 UNK         0.3000 
    236 H236       -5.5461  -15.2150  -50.1123 H         1 UNK         0.0600 
    237 H237       -7.4305  -15.1465  -51.7602 H         1 UNK         0.0600 
    238 H238       -5.8920  -14.7830  -52.5217 H         1 UNK         0.0600 
    239 H239       -6.6204  -16.3706  -52.7395 H         1 UNK         0.0600 
    240 H240       -4.7142  -18.3974  -50.1723 H         1 UNK         0.3000 
    241 H241       -2.9366  -19.5845  -50.5674 H         1 UNK         0.0600 
    242 H242       -1.1259  -19.8042  -52.8260 H         1 UNK         0.3800 
    243 H243       -2.1381  -20.0439  -54.2260 H         1 UNK         0.3800 
    244 H244       -1.5866  -17.4231  -49.9651 H         1 UNK         0.0800 
    245 H245       -1.2859  -17.2597  -51.6663 H         1 UNK         0.0800 
    246 H246        0.3419  -17.9255  -48.7223 H         1 UNK         0.0800 
    247 H247       -0.4418  -19.4487  -48.3861 H         1 UNK         0.0800 
@<TRIPOS>BOND
     1    1    2 1    
     2    1  127 1    
     3    1  128 1    
     4    1  129 1    
     5    2    3 2    
     6    2    4 am   BACKBONE|DICT|INTERRES
     7    4    5 1    
     8    4  130 1    
     9    5    6 1    
    10    5   65 1    
    11    5  131 1    
    12    6    7 1    
    13    6  132 1    
    14    6  133 1    
    15    7    8 1    
    16    8    9 1    
    17    8  134 1    
    18    8  135 1    
    19    9   10 ar   
    20    9   14 ar   
    21   10   11 ar   
    22   10  136 1    
    23   11   12 ar   
    24   11  126 1    
    25   12   13 ar   
    26   12  137 1    
    27   13   14 ar   
    28   13   15 1    
    29   14  138 1    
    30   15   16 1    
    31   15  139 1    
    32   15  140 1    
    33   16   17 1    
    34   17   18 1    
    35   17  141 1    
    36   17  142 1    
    37   18   19 1    
    38   18   67 1    
    39   18  143 1    
    40   19   20 am   BACKBONE|DICT|INTERRES
    41   19  144 1    
    42   20   21 2    
    43   20   22 1    
    44   22   23 1    
    45   22   24 1    
    46   22  145 1    
    47   23  146 1    
    48   23  147 1    
    49   23  148 1    
    50   24   25 am   BACKBONE|DICT|INTERRES
    51   24  149 1    
    52   25   26 2    
    53   25   27 1    
    54   27   28 1    
    55   27   29 1    
    56   27  150 1    
    57   28  151 1    
    58   28  152 1    
    59   28  153 1    
    60   29   30 am   BACKBONE|DICT|INTERRES
    61   29  154 1    
    62   30   31 2    
    63   30   32 1    
    64   32   33 1    
    65   32   34 1    
    66   32  155 1    
    67   33  156 1    
    68   33  157 1    
    69   33  158 1    
    70   34   35 am   BACKBONE|DICT|INTERRES
    71   34  159 1    
    72   35   36 2    
    73   35   37 1    
    74   37   38 1    
    75   37   39 1    
    76   37  160 1    
    77   38  161 1    
    78   38  162 1    
    79   38  163 1    
    80   39   40 am   BACKBONE|DICT|INTERRES
    81   39  164 1    
    82   40   41 2    
    83   40   42 1    
    84   42   43 1    
    85   42   44 1    
    86   42  165 1    
    87   43  166 1    
    88   43  167 1    
    89   43  168 1    
    90   44   45 am   BACKBONE|DICT|INTERRES
    91   44  169 1    
    92   45   46 2    
    93   45   47 1    
    94   47   48 1    
    95   47   49 1    
    96   47  170 1    
    97   48  171 1    
    98   48  172 1    
    99   48  173 1    
   100   49   50 am   BACKBONE|DICT|INTERRES
   101   49  174 1    
   102   50   51 2    
   103   50   52 1    
   104   52   53 1    
   105   52   54 1    
   106   52  175 1    
   107   53  176 1    
   108   53  177 1    
   109   53  178 1    
   110   54   55 am   BACKBONE|DICT|INTERRES
   111   54  179 1    
   112   55   56 2    
   113   55   57 1    
   114   57   58 1    
   115   57   59 1    
   116   57  180 1    
   117   58  181 1    
   118   58  182 1    
   119   58  183 1    
   120   59   60 am   BACKBONE|DICT|INTERRES
   121   59  184 1    
   122   60   61 2    
   123   60   62 1    
   124   62   63 1    
   125   62   64 1    
   126   62  185 1    
   127   63  186 1    
   128   63  187 1    
   129   63  188 1    
   130   64   65 am   BACKBONE|DICT|INTERRES
   131   64  189 1    
   132   65   66 2    
   133   67   68 2    
   134   67   69 am   BACKBONE|DICT|INTERRES
   135   69   70 1    
   136   69  190 1    
   137   70   71 1    
   138   70   72 1    
   139   70  191 1    
   140   71  192 1    
   141   71  193 1    
   142   71  194 1    
   143   72   73 2    
   144   72   74 am   BACKBONE|DICT|INTERRES
   145   74   75 1    
   146   74  195 1    
   147   75   76 1    
   148   75   77 1    
   149   75  196 1    
   150   76  197 1    
   151   76  198 1    
   152   76  199 1    
   153   77   78 2    
   154   77   79 am   BACKBONE|DICT|INTERRES
   155   79   80 1    
   156   79  200 1    
   157   80   81 1    
   158   80   82 1    
   159   80  201 1    
   160   81  202 1    
   161   81  203 1    
   162   81  204 1    
   163   82   83 2    
   164   82   84 am   BACKBONE|DICT|INTERRES
   165   84   85 1    
   166   84  205 1    
   167   85   86 1    
   168   85   87 1    
   169   85  206 1    
   170   86  207 1    
   171   86  208 1    
   172   86  209 1    
   173   87   88 2    
   174   87   89 am   BACKBONE|DICT|INTERRES
   175   89   90 1    
   176   89  210 1    
   177   90   91 1    
   178   90   92 1    
   179   90  211 1    
   180   91  212 1    
   181   91  213 1    
   182   91  214 1    
   183   92   93 2    
   184   92   94 am   BACKBONE|DICT|INTERRES
   185   94   95 1    
   186   94  215 1    
   187   95   96 1    
   188   95   97 1    
   189   95  216 1    
   190   96  217 1    
   191   96  218 1    
   192   96  219 1    
   193   97   98 2    
   194   97   99 am   BACKBONE|DICT|INTERRES
   195   99  100 1    
   196   99  220 1    
   197  100  101 1    
   198  100  102 1    
   199  100  221 1    
   200  101  222 1    
   201  101  223 1    
   202  101  224 1    
   203  102  103 2    
   204  102  104 am   BACKBONE|DICT|INTERRES
   205  104  105 1    
   206  104  225 1    
   207  105  106 1    
   208  105  107 1    
   209  105  226 1    
   210  106  227 1    
   211  106  228 1    
   212  106  229 1    
   213  107  108 2    
   214  107  109 am   BACKBONE|DICT|INTERRES
   215  109  110 1    
   216  109  230 1    
   217  110  111 1    
   218  110  112 1    
   219  110  231 1    
   220  111  232 1    
   221  111  233 1    
   222  111  234 1    
   223  112  113 2    
   224  112  114 am   BACKBONE|DICT|INTERRES
   225  114  115 1    
   226  114  235 1    
   227  115  116 1    
   228  115  117 1    
   229  115  236 1    
   230  116  237 1    
   231  116  238 1    
   232  116  239 1    
   233  117  118 2    
   234  117  119 am   BACKBONE|DICT|INTERRES
   235  119  120 1    
   236  119  240 1    
   237  120  121 1    
   238  120  124 1    
   239  120  241 1    
   240  121  122 am   BACKBONE|DICT|INTERRES
   241  121  123 2    
   242  122  242 1    
   243  122  243 1    
   244  124  125 1    
   245  124  244 1    
   246  124  245 1    
   247  125  126 1    
   248  126  246 1    
   249  126  247 1    
@<TRIPOS>SUBSTRUCTURE
     1 UNK         1 GROUP             0       ****    0 ROOT    
