@<TRIPOS>MOLECULE
3R540
247   249    1
SMALL
USER_CHARGES


@<TRIPOS>ATOM
      1 CA          2.4304  -10.9153  -53.7512 C.3       0 UNK        -0.1800 
      2 C           2.8786  -11.6431  -52.4915 C.2       0 UNK         0.5000 
      3 O           4.0207  -11.4812  -52.0617 O.2       0 UNK        -0.5000 
      4 N           1.9862  -12.4429  -51.9019 N.am      1 UNK        -0.5000 
      5 CA          2.2098  -13.2173  -50.6847 C.3       1 UNK         0.1400 
      6 C6          2.9424  -14.5564  -50.9778 C.3       23 UNK        -0.0398 
      7 S7          4.0382  -15.1205  -49.6295 S.3       23 UNK        -0.2404 
      8 C8          2.9082  -15.9935  -48.5022 C.3       23 UNK        -0.0205 
      9 C9          2.3401  -17.2789  -49.0808 C.ar      23 UNK        -0.0193 
     10 C10         1.1566  -17.2481  -49.8224 C.ar      23 UNK        -0.1150 
     11 C11         0.5905  -18.4243  -50.3145 C.ar      23 UNK        -0.0193 
     12 C12         1.2194  -19.6441  -50.0587 C.ar      23 UNK        -0.1150 
     13 C13         2.3765  -19.6961  -49.2772 C.ar      23 UNK        -0.0193 
     14 C14         2.9470  -18.5086  -48.8083 C.ar      23 UNK        -0.1150 
     15 C15         2.9584  -21.0429  -48.8849 C.3       23 UNK        -0.0205 
     16 S16         2.0139  -21.7386  -47.4947 S.3       23 UNK        -0.2404 
     17 C17         2.8285  -23.3535  -47.2807 C.3       23 UNK        -0.0398 
     18 CA          2.2220  -24.2252  -46.1510 C.3       11 UNK         0.1400 
     19 N           2.2819  -23.5534  -44.8518 N.am      11 UNK        -0.5000 
     20 C           2.2906  -24.1801  -43.6684 C.2       10 UNK         0.5000 
     21 O           2.3566  -25.4054  -43.5475 O.2       10 UNK        -0.5000 
     22 CA          2.2093  -23.2797  -42.4190 C.3       10 UNK         0.1400 
     23 CB          2.6331  -23.9919  -41.1177 C.3       10 UNK        -0.1800 
     24 N           2.9296  -22.0167  -42.5884 N.am      10 UNK        -0.5000 
     25 C           4.2449  -21.8265  -42.7632 C.2       9 UNK         0.5000 
     26 O           5.0831  -22.7287  -42.7694 O.2       9 UNK        -0.5000 
     27 CA          4.7002  -20.3685  -42.9714 C.3       9 UNK         0.1400 
     28 CB          4.8079  -20.0555  -44.4730 C.3       9 UNK        -0.1800 
     29 N           3.8054  -19.3942  -42.3406 N.am      9 UNK        -0.5000 
     30 C           3.6649  -19.2243  -41.0178 C.2       8 UNK         0.5000 
     31 O           4.3454  -19.8130  -40.1767 O.2       8 UNK        -0.5000 
     32 CA          2.5572  -18.2575  -40.5551 C.3       8 UNK         0.1400 
     33 CB          3.0464  -16.8023  -40.5989 C.3       8 UNK        -0.1800 
     34 N           1.3275  -18.3916  -41.3403 N.am      8 UNK        -0.5000 
     35 C           0.5317  -19.4711  -41.3211 C.2       7 UNK         0.5000 
     36 O           0.7193  -20.4453  -40.5926 O.2       7 UNK        -0.5000 
     37 CA         -0.6522  -19.4898  -42.3053 C.3       7 UNK         0.1400 
     38 CB         -1.8741  -18.7686  -41.7186 C.3       7 UNK        -0.1800 
     39 N          -0.3208  -18.9119  -43.6071 N.am      7 UNK        -0.5000 
     40 C           0.5658  -19.4313  -44.4685 C.2       6 UNK         0.5000 
     41 O           1.1674  -20.4876  -44.2765 O.2       6 UNK        -0.5000 
     42 CA          0.8587  -18.6021  -45.7311 C.3       6 UNK         0.1400 
     43 CB         -0.2681  -18.7842  -46.7593 C.3       6 UNK        -0.1800 
     44 N           1.0346  -17.1785  -45.4266 N.am      6 UNK        -0.5000 
     45 C           1.9963  -16.6833  -44.6332 C.2       5 UNK         0.5000 
     46 O           2.8959  -17.3666  -44.1482 O.2       5 UNK        -0.5000 
     47 CA          1.9038  -15.1944  -44.2526 C.3       5 UNK         0.1400 
     48 CB          2.6537  -14.2950  -45.2460 C.3       5 UNK        -0.1800 
     49 N           0.5175  -14.7494  -44.1226 N.am      5 UNK        -0.5000 
     50 C          -0.2816  -15.0768  -43.0973 C.2       4 UNK         0.5000 
     51 O           0.0908  -15.7386  -42.1287 O.2       4 UNK        -0.5000 
     52 CA         -1.7518  -14.6264  -43.1952 C.3       4 UNK         0.1400 
     53 CB         -1.9099  -13.1830  -42.6950 C.3       4 UNK        -0.1800 
     54 N          -2.2739  -14.7262  -44.5596 N.am      4 UNK        -0.5000 
     55 C          -2.4660  -15.8822  -45.2115 C.2       3 UNK         0.5000 
     56 O          -2.3114  -16.9851  -44.6884 O.2       3 UNK        -0.5000 
     57 CA         -2.8369  -15.7903  -46.7074 C.3       3 UNK         0.1400 
     58 CB         -4.3585  -15.8563  -46.8993 C.3       3 UNK        -0.1800 
     59 N          -2.3136  -14.5859  -47.3639 N.am      3 UNK        -0.5000 
     60 C          -1.0091  -14.3278  -47.5237 C.2       2 UNK         0.5000 
     61 O          -0.1208  -15.0856  -47.1343 O.2       2 UNK        -0.5000 
     62 CA         -0.6424  -12.9509  -48.1034 C.3       2 UNK         0.1400 
     63 CB         -0.5731  -11.9143  -46.9700 C.3       2 UNK        -0.1800 
     64 N           0.6444  -12.9561  -48.8034 N.am      2 UNK        -0.5000 
     65 C           0.8190  -13.4046  -50.0519 C.2       1 UNK         0.5000 
     66 O          -0.0847  -13.8960  -50.7302 O.2       1 UNK        -0.5000 
     67 C           0.7788  -24.6876  -46.4571 C.2       11 UNK         0.5000 
     68 O          -0.1749  -24.1982  -45.8445 O.2       11 UNK        -0.5000 
     69 N           0.6405  -25.6189  -47.4125 N.am      12 UNK        -0.5000 
     70 CA         -0.6192  -26.2759  -47.7848 C.3       12 UNK         0.1400 
     71 CB         -0.3455  -27.2974  -48.8983 C.3       12 UNK        -0.1800 
     72 C          -1.7540  -25.3223  -48.2052 C.2       12 UNK         0.5000 
     73 O          -2.9209  -25.6364  -47.9697 O.2       12 UNK        -0.5000 
     74 N          -1.4003  -24.1582  -48.7683 N.am      13 UNK        -0.5000 
     75 CA         -2.3274  -23.0948  -49.1649 C.3       13 UNK         0.1400 
     76 CB         -1.5416  -21.9697  -49.8469 C.3       13 UNK        -0.1800 
     77 C          -3.1601  -22.5195  -48.0036 C.2       13 UNK         0.5000 
     78 O          -4.2641  -22.0352  -48.2456 O.2       13 UNK        -0.5000 
     79 N          -2.6508  -22.6124  -46.7663 N.am      14 UNK        -0.5000 
     80 CA         -3.3690  -22.2074  -45.5573 C.3       14 UNK         0.1400 
     81 CB         -2.3885  -22.1774  -44.3770 C.3       14 UNK        -0.1800 
     82 C          -4.5712  -23.1196  -45.2383 C.2       14 UNK         0.5000 
     83 O          -5.5330  -22.6543  -44.6261 O.2       14 UNK        -0.5000 
     84 N          -4.4998  -24.3895  -45.6608 N.am      15 UNK        -0.5000 
     85 CA         -5.5610  -25.3820  -45.5016 C.3       15 UNK         0.1400 
     86 CB         -4.9313  -26.7366  -45.1399 C.3       15 UNK        -0.1800 
     87 C          -6.4063  -25.5045  -46.7800 C.2       15 UNK         0.5000 
     88 O          -7.6326  -25.5748  -46.6938 O.2       15 UNK        -0.5000 
     89 N          -5.7394  -25.5326  -47.9421 N.am      16 UNK        -0.5000 
     90 CA         -6.3543  -25.7298  -49.2560 C.3       16 UNK         0.1400 
     91 CB         -5.2700  -26.2002  -50.2389 C.3       16 UNK        -0.1800 
     92 C          -7.0671  -24.4826  -49.8118 C.2       16 UNK         0.5000 
     93 O          -7.8335  -24.6120  -50.7669 O.2       16 UNK        -0.5000 
     94 N          -6.7714  -23.3008  -49.2522 N.am      17 UNK        -0.5000 
     95 CA         -7.2279  -21.9536  -49.6255 C.3       17 UNK         0.1400 
     96 CB         -8.7641  -21.8374  -49.6014 C.3       17 UNK        -0.1800 
     97 C          -6.6414  -21.4317  -50.9533 C.2       17 UNK         0.5000 
     98 O          -6.3023  -20.2517  -51.0280 O.2       17 UNK        -0.5000 
     99 N          -6.5051  -22.3161  -51.9512 N.am      18 UNK        -0.5000 
    100 CA        -5.9512  -22.0917  -53.2896 C.3       18 UNK         0.1400 
    101 CB        -4.4538  -21.7208  -53.1967 C.3       18 UNK        -0.1800 
    102 C         -6.7742  -21.0927  -54.1362 C.2       18 UNK         0.5000 
    103 O         -7.9359  -20.8174  -53.8238 O.2       18 UNK        -0.5000 
    104 N         -6.1709  -20.6119  -55.2284 N.am      19 UNK        -0.5000 
    105 CA        -6.7457  -19.6602  -56.1745 C.3       19 UNK         0.1400 
    106 CB        -7.7406  -20.3708  -57.1156 C.3       19 UNK        -0.1800 
    107 C         -5.5906  -18.9749  -56.9211 C.2       19 UNK         0.5000 
    108 O         -5.4305  -19.1582  -58.1296 O.2       19 UNK        -0.5000 
    109 N         -4.7691  -18.2403  -56.1670 N.am      20 UNK        -0.5000 
    110 CA        -3.5984  -17.5131  -56.6495 C.3       20 UNK         0.1400 
    111 CB        -2.3491  -18.4108  -56.5208 C.3       20 UNK        -0.1800 
    112 C         -3.5178  -16.1854  -55.8779 C.2       20 UNK         0.5000 
    113 O         -4.5092  -15.4534  -55.8438 O.2       20 UNK        -0.5000 
    114 N         -2.3691  -15.8994  -55.2467 N.am      21 UNK        -0.5000 
    115 CA        -2.2131  -14.8024  -54.2845 C.3       21 UNK         0.1400 
    116 CB        -0.7212  -14.5969  -53.9812 C.3       21 UNK        -0.1800 
    117 C         -3.0155  -15.0655  -52.9924 C.2       21 UNK         0.5000 
    118 O         -3.5857  -14.1354  -52.4211 O.2       21 UNK        -0.5000 
    119 N         -3.0903  -16.3452  -52.6070 N.am      22 UNK        -0.5000 
    120 CA        -4.0573  -16.8833  -51.6458 C.3       22 UNK         0.1400 
    121 C         -5.4159  -17.1243  -52.3577 C.2       22 UNK         0.5000 
    122 N         -6.5227  -16.6881  -51.7729 N.am      22 UNK        -0.7600 
    123 O         -5.4700  -17.7252  -53.4299 O.2       22 UNK        -0.5000 
    124 C124       -3.5459  -18.1996  -51.0118 C.3       23 UNK        -0.0398 
    125 S125       -2.0948  -17.9570  -49.9411 S.3       23 UNK        -0.2404 
    126 C126       -0.7269  -18.3731  -51.0690 C.3       23 UNK        -0.0205 
    127 H127        1.4046  -11.1672  -54.0219 H         1 UNK         0.0600 
    128 H128        3.0768  -11.1805  -54.5878 H         1 UNK         0.0600 
    129 H129        2.4882   -9.8371  -53.6026 H         1 UNK         0.0600 
    130 H130        1.0499  -12.5286  -52.2760 H         1 UNK         0.3000 
    131 H131        2.8187  -12.6130  -50.0082 H         1 UNK         0.0600 
    132 H132        2.2589  -15.3420  -51.2950 H         1 UNK         0.0800 
    133 H133        3.6065  -14.4222  -51.8326 H         1 UNK         0.0800 
    134 H134        2.0973  -15.3249  -48.2307 H         1 UNK         0.0800 
    135 H135        3.4392  -16.2127  -47.5749 H         1 UNK         0.0800 
    136 H136        0.6447  -16.3120  -49.9861 H         1 UNK         0.1150 
    137 H137        0.7854  -20.5614  -50.4257 H         1 UNK         0.1150 
    138 H138        3.8373  -18.5443  -48.1963 H         1 UNK         0.1150 
    139 H139        2.9230  -21.7254  -49.7353 H         1 UNK         0.0800 
    140 H140        4.0073  -20.9421  -48.6022 H         1 UNK         0.0800 
    141 H141        3.8827  -23.1719  -47.0665 H         1 UNK         0.0800 
    142 H142        2.8078  -23.8871  -48.2322 H         1 UNK         0.0800 
    143 H143        2.8329  -25.1283  -46.0862 H         1 UNK         0.0600 
    144 H144        2.1491  -22.5494  -44.8654 H         1 UNK         0.3000 
    145 H145        1.1576  -23.0086  -42.3151 H         1 UNK         0.0600 
    146 H146        2.5554  -23.3219  -40.2612 H         1 UNK         0.0600 
    147 H147        1.9918  -24.8505  -40.9164 H         1 UNK         0.0600 
    148 H148        3.6595  -24.3559  -41.1684 H         1 UNK         0.0600 
    149 H149        2.3351  -21.2035  -42.6992 H         1 UNK         0.3000 
    150 H150        5.6911  -20.2614  -42.5256 H         1 UNK         0.0600 
    151 H151        5.4872  -20.7488  -44.9703 H         1 UNK         0.0600 
    152 H152        5.1905  -19.0485  -44.6397 H         1 UNK         0.0600 
    153 H153        3.8406  -20.1312  -44.9713 H         1 UNK         0.0600 
    154 H154        3.2626  -18.8074  -42.9693 H         1 UNK         0.3000 
    155 H155        2.3172  -18.4992  -39.5175 H         1 UNK         0.0600 
    156 H156        3.9147  -16.6655  -39.9533 H         1 UNK         0.0600 
    157 H157        2.2736  -16.1141  -40.2559 H         1 UNK         0.0600 
    158 H158        3.3392  -16.5047  -41.6051 H         1 UNK         0.0600 
    159 H159        1.0664  -17.6041  -41.9224 H         1 UNK         0.3000 
    160 H160       -0.9221  -20.5350  -42.4629 H         1 UNK         0.0600 
    161 H161       -1.6769  -17.7098  -41.5514 H         1 UNK         0.0600 
    162 H162       -2.1625  -19.2047  -40.7615 H         1 UNK         0.0600 
    163 H163       -2.7336  -18.8469  -42.3848 H         1 UNK         0.0600 
    164 H164       -0.8207  -18.0700  -43.8744 H         1 UNK         0.3000 
    165 H165        1.7911  -18.9606  -46.1702 H         1 UNK         0.0600 
    166 H166       -0.1861  -18.0601  -47.5668 H         1 UNK         0.0600 
    167 H167       -0.2302  -19.7778  -47.2054 H         1 UNK         0.0600 
    168 H168       -1.2569  -18.6734  -46.3177 H         1 UNK         0.0600 
    169 H169        0.3811  -16.5314  -45.8548 H         1 UNK         0.3000 
    170 H170        2.3906  -15.0789  -43.2823 H         1 UNK         0.0600 
    171 H171        3.6702  -14.6545  -45.4113 H         1 UNK         0.0600 
    172 H172        2.1574  -14.2499  -46.2125 H         1 UNK         0.0600 
    173 H173        2.7281  -13.2755  -44.8675 H         1 UNK         0.0600 
    174 H174        0.1224  -14.2674  -44.9160 H         1 UNK         0.3000 
    175 H175       -2.3452  -15.2798  -42.5520 H         1 UNK         0.0600 
    176 H176       -1.5419  -13.0825  -41.6730 H         1 UNK         0.0600 
    177 H177       -1.3555  -12.4769  -43.3146 H         1 UNK         0.0600 
    178 H178       -2.9568  -12.8789  -42.6935 H         1 UNK         0.0600 
    179 H179       -2.4406  -13.8617  -45.0518 H         1 UNK         0.3000 
    180 H180       -2.3967  -16.6569  -47.2034 H         1 UNK         0.0600 
    181 H181       -4.7704  -16.7551  -46.4382 H         1 UNK         0.0600 
    182 H182       -4.8596  -14.9972  -46.4519 H         1 UNK         0.0600 
    183 H183       -4.6198  -15.8877  -47.9573 H         1 UNK         0.0600 
    184 H184       -2.9951  -13.9153  -47.6889 H         1 UNK         0.3000 
    185 H185       -1.4239  -12.6484  -48.8041 H         1 UNK         0.0600 
    186 H186       -1.5217  -11.8483  -46.4357 H         1 UNK         0.0600 
    187 H187        0.1987  -12.1636  -46.2404 H         1 UNK         0.0600 
    188 H188       -0.3551  -10.9197  -47.3598 H         1 UNK         0.0600 
    189 H189        1.4313  -12.5791  -48.2964 H         1 UNK         0.3000 
    190 H190        1.4680  -25.9662  -47.8756 H         1 UNK         0.3000 
    191 H191       -0.9713  -26.8189  -46.9054 H         1 UNK         0.0600 
    192 H192        0.0513  -26.8187  -49.7945 H         1 UNK         0.0600 
    193 H193       -1.2598  -27.8203  -49.1831 H         1 UNK         0.0600 
    194 H194        0.3704  -28.0532  -48.5748 H         1 UNK         0.0600 
    195 H195       -0.4171  -23.9735  -48.9000 H         1 UNK         0.3000 
    196 H196       -3.0244  -23.5158  -49.8919 H         1 UNK         0.0600 
    197 H197       -2.2133  -21.1941  -50.2176 H         1 UNK         0.0600 
    198 H198       -0.9698  -22.3398  -50.6978 H         1 UNK         0.0600 
    199 H199       -0.8515  -21.4979  -49.1468 H         1 UNK         0.0600 
    200 H200       -1.7454  -23.0503  -46.6307 H         1 UNK         0.3000 
    201 H201       -3.7472  -21.1945  -45.7116 H         1 UNK         0.0600 
    202 H202       -2.8645  -21.7668  -43.4859 H         1 UNK         0.0600 
    203 H203       -2.0265  -23.1754  -44.1271 H         1 UNK         0.0600 
    204 H204       -1.5224  -21.5574  -44.6046 H         1 UNK         0.0600 
    205 H205       -3.6886  -24.6778  -46.1933 H         1 UNK         0.3000 
    206 H206       -6.2265  -25.0948  -44.6847 H         1 UNK         0.0600 
    207 H207       -4.3750  -26.6732  -44.2045 H         1 UNK         0.0600 
    208 H208       -5.6981  -27.5015  -45.0109 H         1 UNK         0.0600 
    209 H209       -4.2454  -27.0856  -45.9129 H         1 UNK         0.0600 
    210 H210       -4.7217  -25.5114  -47.9248 H         1 UNK         0.3000 
    211 H211       -7.1019  -26.5213  -49.1715 H         1 UNK         0.0600 
    212 H212       -5.6958  -26.4188  -51.2191 H         1 UNK         0.0600 
    213 H213       -4.7853  -27.1106  -49.8858 H         1 UNK         0.0600 
    214 H214       -4.4977  -25.4432  -50.3781 H         1 UNK         0.0600 
    215 H215       -6.0620  -23.3021  -48.5299 H         1 UNK         0.3000 
    216 H216       -6.8460  -21.2964  -48.8428 H         1 UNK         0.0600 
    217 H217       -9.0734  -20.8008  -49.7401 H         1 UNK         0.0600 
    218 H218       -9.1708  -22.1743  -48.6479 H         1 UNK         0.0600 
    219 H219       -9.2328  -22.4211  -50.3938 H         1 UNK         0.0600 
    220 H220       -6.8945  -23.2385  -51.7848 H         1 UNK         0.3000 
    221 H221       -6.0229  -23.0528  -53.8003 H         1 UNK         0.0600 
    222 H222       -4.3187  -20.6957  -52.8547 H         1 UNK         0.0600 
    223 H223       -3.9253  -22.3761  -52.5039 H         1 UNK         0.0600 
    224 H224       -3.9574  -21.8135  -54.1629 H         1 UNK         0.0600 
    225 H225       -5.2123  -20.8735  -55.4124 H         1 UNK         0.3000 
    226 H226       -7.2798  -18.8837  -55.6224 H         1 UNK         0.0600 
    227 H227       -8.1484  -19.6748  -57.8496 H         1 UNK         0.0600 
    228 H228       -7.2648  -21.1862  -57.6616 H         1 UNK         0.0600 
    229 H229       -8.5836  -20.7860  -56.5636 H         1 UNK         0.0600 
    230 H230       -5.0085  -18.0904  -55.1863 H         1 UNK         0.3000 
    231 H231       -3.7310  -17.2495  -57.7008 H         1 UNK         0.0600 
    232 H232       -2.4671  -19.3243  -57.1040 H         1 UNK         0.0600 
    233 H233       -2.1642  -18.7049  -55.4868 H         1 UNK         0.0600 
    234 H234       -1.4571  -17.9093  -56.8979 H         1 UNK         0.0600 
    235 H235       -1.5873  -16.5297  -55.3506 H         1 UNK         0.3000 
    236 H236       -2.5976  -13.8878  -54.7410 H         1 UNK         0.0600 
    237 H237       -0.1490  -14.4312  -54.8942 H         1 UNK         0.0600 
    238 H238       -0.5780  -13.7213  -53.3485 H         1 UNK         0.0600 
    239 H239       -0.2891  -15.4529  -53.4612 H         1 UNK         0.0600 
    240 H240       -2.6196  -17.0308  -53.1751 H         1 UNK         0.3000 
    241 H241       -4.2038  -16.1536  -50.8466 H         1 UNK         0.0600 
    242 H242       -7.4074  -16.8613  -52.2227 H         1 UNK         0.3800 
    243 H243       -6.5022  -16.1985  -50.8925 H         1 UNK         0.3800 
    244 H244       -4.3220  -18.6403  -50.3845 H         1 UNK         0.0800 
    245 H245       -3.3183  -18.9413  -51.7771 H         1 UNK         0.0800 
    246 H246       -0.6614  -17.6243  -51.8587 H         1 UNK         0.0800 
    247 H247       -0.9267  -19.3297  -51.5538 H         1 UNK         0.0800 
@<TRIPOS>BOND
     1    1    2 1    
     2    1  127 1    
     3    1  128 1    
     4    1  129 1    
     5    2    3 2    
     6    2    4 am   BACKBONE|DICT|INTERRES
     7    4    5 1    
     8    4  130 1    
     9    5    6 1    
    10    5   65 1    
    11    5  131 1    
    12    6    7 1    
    13    6  132 1    
    14    6  133 1    
    15    7    8 1    
    16    8    9 1    
    17    8  134 1    
    18    8  135 1    
    19    9   10 ar   
    20    9   14 ar   
    21   10   11 ar   
    22   10  136 1    
    23   11   12 ar   
    24   11  126 1    
    25   12   13 ar   
    26   12  137 1    
    27   13   14 ar   
    28   13   15 1    
    29   14  138 1    
    30   15   16 1    
    31   15  139 1    
    32   15  140 1    
    33   16   17 1    
    34   17   18 1    
    35   17  141 1    
    36   17  142 1    
    37   18   19 1    
    38   18   67 1    
    39   18  143 1    
    40   19   20 am   BACKBONE|DICT|INTERRES
    41   19  144 1    
    42   20   21 2    
    43   20   22 1    
    44   22   23 1    
    45   22   24 1    
    46   22  145 1    
    47   23  146 1    
    48   23  147 1    
    49   23  148 1    
    50   24   25 am   BACKBONE|DICT|INTERRES
    51   24  149 1    
    52   25   26 2    
    53   25   27 1    
    54   27   28 1    
    55   27   29 1    
    56   27  150 1    
    57   28  151 1    
    58   28  152 1    
    59   28  153 1    
    60   29   30 am   BACKBONE|DICT|INTERRES
    61   29  154 1    
    62   30   31 2    
    63   30   32 1    
    64   32   33 1    
    65   32   34 1    
    66   32  155 1    
    67   33  156 1    
    68   33  157 1    
    69   33  158 1    
    70   34   35 am   BACKBONE|DICT|INTERRES
    71   34  159 1    
    72   35   36 2    
    73   35   37 1    
    74   37   38 1    
    75   37   39 1    
    76   37  160 1    
    77   38  161 1    
    78   38  162 1    
    79   38  163 1    
    80   39   40 am   BACKBONE|DICT|INTERRES
    81   39  164 1    
    82   40   41 2    
    83   40   42 1    
    84   42   43 1    
    85   42   44 1    
    86   42  165 1    
    87   43  166 1    
    88   43  167 1    
    89   43  168 1    
    90   44   45 am   BACKBONE|DICT|INTERRES
    91   44  169 1    
    92   45   46 2    
    93   45   47 1    
    94   47   48 1    
    95   47   49 1    
    96   47  170 1    
    97   48  171 1    
    98   48  172 1    
    99   48  173 1    
   100   49   50 am   BACKBONE|DICT|INTERRES
   101   49  174 1    
   102   50   51 2    
   103   50   52 1    
   104   52   53 1    
   105   52   54 1    
   106   52  175 1    
   107   53  176 1    
   108   53  177 1    
   109   53  178 1    
   110   54   55 am   BACKBONE|DICT|INTERRES
   111   54  179 1    
   112   55   56 2    
   113   55   57 1    
   114   57   58 1    
   115   57   59 1    
   116   57  180 1    
   117   58  181 1    
   118   58  182 1    
   119   58  183 1    
   120   59   60 am   BACKBONE|DICT|INTERRES
   121   59  184 1    
   122   60   61 2    
   123   60   62 1    
   124   62   63 1    
   125   62   64 1    
   126   62  185 1    
   127   63  186 1    
   128   63  187 1    
   129   63  188 1    
   130   64   65 am   BACKBONE|DICT|INTERRES
   131   64  189 1    
   132   65   66 2    
   133   67   68 2    
   134   67   69 am   BACKBONE|DICT|INTERRES
   135   69   70 1    
   136   69  190 1    
   137   70   71 1    
   138   70   72 1    
   139   70  191 1    
   140   71  192 1    
   141   71  193 1    
   142   71  194 1    
   143   72   73 2    
   144   72   74 am   BACKBONE|DICT|INTERRES
   145   74   75 1    
   146   74  195 1    
   147   75   76 1    
   148   75   77 1    
   149   75  196 1    
   150   76  197 1    
   151   76  198 1    
   152   76  199 1    
   153   77   78 2    
   154   77   79 am   BACKBONE|DICT|INTERRES
   155   79   80 1    
   156   79  200 1    
   157   80   81 1    
   158   80   82 1    
   159   80  201 1    
   160   81  202 1    
   161   81  203 1    
   162   81  204 1    
   163   82   83 2    
   164   82   84 am   BACKBONE|DICT|INTERRES
   165   84   85 1    
   166   84  205 1    
   167   85   86 1    
   168   85   87 1    
   169   85  206 1    
   170   86  207 1    
   171   86  208 1    
   172   86  209 1    
   173   87   88 2    
   174   87   89 am   BACKBONE|DICT|INTERRES
   175   89   90 1    
   176   89  210 1    
   177   90   91 1    
   178   90   92 1    
   179   90  211 1    
   180   91  212 1    
   181   91  213 1    
   182   91  214 1    
   183   92   93 2    
   184   92   94 am   BACKBONE|DICT|INTERRES
   185   94   95 1    
   186   94  215 1    
   187   95   96 1    
   188   95   97 1    
   189   95  216 1    
   190   96  217 1    
   191   96  218 1    
   192   96  219 1    
   193   97   98 2    
   194   97   99 am   BACKBONE|DICT|INTERRES
   195   99  100 1    
   196   99  220 1    
   197  100  101 1    
   198  100  102 1    
   199  100  221 1    
   200  101  222 1    
   201  101  223 1    
   202  101  224 1    
   203  102  103 2    
   204  102  104 am   BACKBONE|DICT|INTERRES
   205  104  105 1    
   206  104  225 1    
   207  105  106 1    
   208  105  107 1    
   209  105  226 1    
   210  106  227 1    
   211  106  228 1    
   212  106  229 1    
   213  107  108 2    
   214  107  109 am   BACKBONE|DICT|INTERRES
   215  109  110 1    
   216  109  230 1    
   217  110  111 1    
   218  110  112 1    
   219  110  231 1    
   220  111  232 1    
   221  111  233 1    
   222  111  234 1    
   223  112  113 2    
   224  112  114 am   BACKBONE|DICT|INTERRES
   225  114  115 1    
   226  114  235 1    
   227  115  116 1    
   228  115  117 1    
   229  115  236 1    
   230  116  237 1    
   231  116  238 1    
   232  116  239 1    
   233  117  118 2    
   234  117  119 am   BACKBONE|DICT|INTERRES
   235  119  120 1    
   236  119  240 1    
   237  120  121 1    
   238  120  124 1    
   239  120  241 1    
   240  121  122 am   BACKBONE|DICT|INTERRES
   241  121  123 2    
   242  122  242 1    
   243  122  243 1    
   244  124  125 1    
   245  124  244 1    
   246  124  245 1    
   247  125  126 1    
   248  126  246 1    
   249  126  247 1    
@<TRIPOS>SUBSTRUCTURE
     1 UNK         1 GROUP             0       ****    0 ROOT    
