@<TRIPOS>MOLECULE
3R540
247   249    1
SMALL
USER_CHARGES


@<TRIPOS>ATOM
      1 CA          5.4074  -12.1618  -45.1838 C.3       0 UNK        -0.1800 
      2 C           5.4536  -13.6111  -45.6451 C.2       0 UNK         0.5000 
      3 O           6.5382  -14.1702  -45.8068 O.2       0 UNK        -0.5000 
      4 N           4.2798  -14.2187  -45.8581 N.am      1 UNK        -0.5000 
      5 CA          4.1296  -15.6259  -46.2526 C.3       1 UNK         0.1400 
      6 C6          2.7846  -15.8927  -46.9690 C.3       23 UNK        -0.0398 
      7 S7          2.6065  -14.9048  -48.4942 S.3       23 UNK        -0.2404 
      8 C8          3.6060  -15.8335  -49.7023 C.3       23 UNK        -0.0205 
      9 C9          2.9105  -17.0864  -50.2167 C.ar      23 UNK        -0.0193 
     10 C10         2.1280  -17.0379  -51.3754 C.ar      23 UNK        -0.1150 
     11 C11         1.5518  -18.2026  -51.8940 C.ar      23 UNK        -0.0193 
     12 C12         1.7273  -19.4134  -51.2157 C.ar      23 UNK        -0.1150 
     13 C13         2.4940  -19.4746  -50.0481 C.ar      23 UNK        -0.0193 
     14 C14         3.1014  -18.3096  -49.5695 C.ar      23 UNK        -0.1150 
     15 C15         2.6879  -20.8104  -49.3363 C.3       23 UNK        -0.0205 
     16 S16         2.5233  -20.7150  -47.5189 S.3       23 UNK        -0.2404 
     17 C17         0.8373  -20.0492  -47.3194 C.3       23 UNK        -0.0398 
     18 CA         -0.2135  -21.1370  -46.9968 C.3       11 UNK         0.1400 
     19 N          -1.3806  -20.5674  -46.3193 N.am      11 UNK        -0.5000 
     20 C          -2.4066  -21.2690  -45.8205 C.2       10 UNK         0.5000 
     21 O          -2.4510  -22.4973  -45.8135 O.2       10 UNK        -0.5000 
     22 CA         -3.6053  -20.4668  -45.2910 C.3       10 UNK         0.1400 
     23 CB         -3.3819  -20.0538  -43.8286 C.3       10 UNK        -0.1800 
     24 N          -3.8552  -19.2766  -46.1016 N.am      10 UNK        -0.5000 
     25 C          -4.4437  -19.2786  -47.3056 C.2       9 UNK         0.5000 
     26 O          -4.9006  -20.2820  -47.8586 O.2       9 UNK        -0.5000 
     27 CA         -4.5074  -17.9210  -48.0281 C.3       9 UNK         0.1400 
     28 CB         -5.7225  -17.1112  -47.5502 C.3       9 UNK        -0.1800 
     29 N          -3.2996  -17.1132  -47.8638 N.am      9 UNK        -0.5000 
     30 C          -2.0885  -17.4581  -48.3214 C.2       8 UNK         0.5000 
     31 O          -1.8551  -18.5131  -48.9076 O.2       8 UNK        -0.5000 
     32 CA         -0.9388  -16.4763  -48.0346 C.3       8 UNK         0.1400 
     33 CB         -0.9839  -15.3290  -49.0546 C.3       8 UNK        -0.1800 
     34 N          -0.9593  -15.9182  -46.6779 N.am      8 UNK        -0.5000 
     35 C          -1.0550  -16.6203  -45.5362 C.2       7 UNK         0.5000 
     36 O          -1.1333  -17.8477  -45.5018 O.2       7 UNK        -0.5000 
     37 CA         -1.0772  -15.8467  -44.2031 C.3       7 UNK         0.1400 
     38 CB          0.1853  -16.1571  -43.3888 C.3       7 UNK        -0.1800 
     39 N          -1.1975  -14.3978  -44.3560 N.am      7 UNK        -0.5000 
     40 C          -2.3011  -13.7516  -44.7601 C.2       6 UNK         0.5000 
     41 O          -3.3643  -14.3180  -45.0152 O.2       6 UNK        -0.5000 
     42 CA         -2.1936  -12.2225  -44.9389 C.3       6 UNK         0.1400 
     43 CB         -2.8613  -11.4981  -43.7600 C.3       6 UNK        -0.1800 
     44 N          -0.8174  -11.7345  -45.0715 N.am      6 UNK        -0.5000 
     45 C           0.0275  -12.0411  -46.0674 C.2       5 UNK         0.5000 
     46 O          -0.2768  -12.7615  -47.0160 O.2       5 UNK        -0.5000 
     47 CA          1.4656  -11.4985  -45.9503 C.3       5 UNK         0.1400 
     48 CB          1.6235  -10.2022  -46.7574 C.3       5 UNK        -0.1800 
     49 N           1.8657  -11.2540  -44.5596 N.am      5 UNK        -0.5000 
     50 C           2.0874  -12.2157  -43.6549 C.2       4 UNK         0.5000 
     51 O           2.0850  -13.4207  -43.9281 O.2       4 UNK        -0.5000 
     52 CA          2.3172  -11.7517  -42.2096 C.3       4 UNK         0.1400 
     53 CB          1.0258  -11.1679  -41.6065 C.3       4 UNK        -0.1800 
     54 N           2.7532  -12.8912  -41.4129 N.am      4 UNK        -0.5000 
     55 C           3.4919  -12.8396  -40.2985 C.2       3 UNK         0.5000 
     56 O           3.8723  -11.7892  -39.7798 O.2       3 UNK        -0.5000 
     57 CA          3.8747  -14.1876  -39.6501 C.3       3 UNK         0.1400 
     58 CB          2.9532  -14.4888  -38.4580 C.3       3 UNK        -0.1800 
     59 N           3.8260  -15.3184  -40.5824 N.am      3 UNK        -0.5000 
     60 C           4.6783  -15.5050  -41.5984 C.2       2 UNK         0.5000 
     61 O           5.6381  -14.7663  -41.8241 O.2       2 UNK        -0.5000 
     62 CA          4.3902  -16.6656  -42.5620 C.3       2 UNK         0.1400 
     63 CB          3.2764  -17.6310  -42.1061 C.3       2 UNK        -0.1800 
     64 N           4.0510  -16.0567  -43.8410 N.am      2 UNK        -0.5000 
     65 C           4.3170  -16.5699  -45.0466 C.2       1 UNK         0.5000 
     66 O           4.7303  -17.7153  -45.2287 O.2       1 UNK        -0.5000 
     67 C          -0.6212  -21.9300  -48.2570 C.2       11 UNK         0.5000 
     68 O          -0.1349  -23.0403  -48.4654 O.2       11 UNK        -0.5000 
     69 N          -1.5527  -21.3715  -49.0412 N.am      12 UNK        -0.5000 
     70 CA         -2.1354  -22.0017  -50.2247 C.3       12 UNK         0.1400 
     71 CB         -2.9878  -20.9626  -50.9643 C.3       12 UNK        -0.1800 
     72 C          -2.9587  -23.2639  -49.8923 C.2       12 UNK         0.5000 
     73 O          -2.9533  -24.2150  -50.6744 O.2       12 UNK        -0.5000 
     74 N          -3.6188  -23.2724  -48.7239 N.am      13 UNK        -0.5000 
     75 CA         -4.3138  -24.4417  -48.1832 C.3       13 UNK         0.1400 
     76 CB         -5.2530  -24.0162  -47.0422 C.3       13 UNK        -0.1800 
     77 C          -3.3204  -25.5169  -47.7049 C.2       13 UNK         0.5000 
     78 O          -3.4815  -26.6896  -48.0427 O.2       13 UNK        -0.5000 
     79 N          -2.2861  -25.0933  -46.9639 N.am      14 UNK        -0.5000 
     80 CA         -1.2053  -25.9399  -46.4481 C.3       14 UNK         0.1400 
     81 CB         -0.3180  -25.1123  -45.5063 C.3       14 UNK        -0.1800 
     82 C          -0.3562  -26.6030  -47.5508 C.2       14 UNK         0.5000 
     83 O           0.1832  -27.6877  -47.3303 O.2       14 UNK        -0.5000 
     84 N          -0.2884  -25.9646  -48.7270 N.am      15 UNK        -0.5000 
     85 CA          0.3393  -26.4776  -49.9462 C.3       15 UNK         0.1400 
     86 CB          0.4857  -25.3252  -50.9535 C.3       15 UNK        -0.1800 
     87 C          -0.3976  -27.6771  -50.5856 C.2       15 UNK         0.5000 
     88 O           0.1651  -28.2916  -51.4920 O.2       15 UNK        -0.5000 
     89 N          -1.6085  -27.9957  -50.0976 N.am      16 UNK        -0.5000 
     90 CA         -2.4806  -29.1114  -50.4747 C.3       16 UNK         0.1400 
     91 CB         -1.7784  -30.4705  -50.2694 C.3       16 UNK        -0.1800 
     92 C          -3.0452  -28.9478  -51.9054 C.2       16 UNK         0.5000 
     93 O          -2.4177  -29.4054  -52.8601 O.2       16 UNK        -0.5000 
     94 N          -4.2050  -28.3046  -52.0964 N.am      17 UNK        -0.5000 
     95 CA         -5.0996  -27.7224  -51.0950 C.3       17 UNK         0.1400 
     96 CB         -6.0201  -28.8102  -50.5019 C.3       17 UNK        -0.1800 
     97 C          -5.8858  -26.5642  -51.7293 C.2       17 UNK         0.5000 
     98 O          -7.1059  -26.4784  -51.5782 O.2       17 UNK        -0.5000 
     99 N          -5.1728  -25.6902  -52.4488 N.am      18 UNK        -0.5000 
    100 CA        -5.7098  -24.5275  -53.1573 C.3       18 UNK         0.1400 
    101 CB        -4.7242  -24.1470  -54.2771 C.3       18 UNK        -0.1800 
    102 C         -5.9989  -23.3536  -52.1984 C.2       18 UNK         0.5000 
    103 O         -5.4621  -22.2618  -52.3791 O.2       18 UNK        -0.5000 
    104 N         -6.8223  -23.6030  -51.1726 N.am      19 UNK        -0.5000 
    105 CA        -7.1707  -22.6621  -50.1083 C.3       19 UNK         0.1400 
    106 CB        -8.1900  -23.3221  -49.1678 C.3       19 UNK        -0.1800 
    107 C         -7.7027  -21.3208  -50.6449 C.2       19 UNK         0.5000 
    108 O         -8.6282  -21.3134  -51.4592 O.2       19 UNK        -0.5000 
    109 N         -7.0808  -20.2261  -50.1877 N.am      20 UNK        -0.5000 
    110 CA        -7.3480  -18.8316  -50.5565 C.3       20 UNK         0.1400 
    111 CB        -8.7980  -18.4271  -50.2184 C.3       20 UNK        -0.1800 
    112 C         -6.9489  -18.4284  -51.9931 C.2       20 UNK         0.5000 
    113 O         -7.1653  -17.2698  -52.3528 O.2       20 UNK        -0.5000 
    114 N         -6.3336  -19.3257  -52.7823 N.am      21 UNK        -0.5000 
    115 CA        -5.9268  -19.0483  -54.1686 C.3       21 UNK         0.1400 
    116 CB        -5.4723  -20.3445  -54.8531 C.3       21 UNK        -0.1800 
    117 C         -4.8350  -17.9672  -54.2923 C.2       21 UNK         0.5000 
    118 O         -4.8114  -17.2398  -55.2860 O.2       21 UNK        -0.5000 
    119 N         -3.9776  -17.8639  -53.2702 N.am      22 UNK        -0.5000 
    120 CA        -2.9611  -16.8087  -53.1269 C.3       22 UNK         0.1400 
    121 C         -3.5156  -15.4778  -52.5322 C.2       22 UNK         0.5000 
    122 N         -4.7981  -15.3614  -52.2038 N.am      22 UNK        -0.7600 
    123 O         -2.7654  -14.5194  -52.3733 O.2       22 UNK        -0.5000 
    124 C124       -1.7280  -17.3058  -52.3302 C.3       23 UNK        -0.0398 
    125 S125       -0.9127  -18.7415  -53.1051 S.3       23 UNK        -0.2404 
    126 C126        0.8121  -18.1712  -53.2275 C.3       23 UNK        -0.0205 
    127 H127        4.5380  -11.6445  -45.5882 H         1 UNK         0.0600 
    128 H128        6.2972  -11.6271  -45.5165 H         1 UNK         0.0600 
    129 H129        5.3669  -12.1153  -44.0954 H         1 UNK         0.0600 
    130 H130        3.4186  -13.7262  -45.6627 H         1 UNK         0.3000 
    131 H131        4.9304  -15.8682  -46.9538 H         1 UNK         0.0600 
    132 H132        2.6625  -16.9494  -47.2054 H         1 UNK         0.0800 
    133 H133        1.9529  -15.6377  -46.3107 H         1 UNK         0.0800 
    134 H134        3.8263  -15.1724  -50.5418 H         1 UNK         0.0800 
    135 H135        4.5731  -16.0896  -49.2687 H         1 UNK         0.0800 
    136 H136        2.0024  -16.0980  -51.8946 H         1 UNK         0.1150 
    137 H137        1.2803  -20.3136  -51.6139 H         1 UNK         0.1150 
    138 H138        3.7284  -18.3580  -48.6907 H         1 UNK         0.1150 
    139 H139        1.9816  -21.5519  -49.7123 H         1 UNK         0.0800 
    140 H140        3.6826  -21.1879  -49.5757 H         1 UNK         0.0800 
    141 H141        0.5467  -19.4588  -48.1886 H         1 UNK         0.0800 
    142 H142        0.8951  -19.3392  -46.4934 H         1 UNK         0.0800 
    143 H143        0.2315  -21.8441  -46.2938 H         1 UNK         0.0600 
    144 H144       -1.3982  -19.5557  -46.2213 H         1 UNK         0.3000 
    145 H145       -4.4864  -21.1108  -45.3339 H         1 UNK         0.0600 
    146 H146       -4.2482  -19.5241  -43.4324 H         1 UNK         0.0600 
    147 H147       -3.2198  -20.9291  -43.1982 H         1 UNK         0.0600 
    148 H148       -2.5124  -19.4049  -43.7179 H         1 UNK         0.0600 
    149 H149       -3.4616  -18.4110  -45.7614 H         1 UNK         0.3000 
    150 H150       -4.6143  -18.1259  -49.0943 H         1 UNK         0.0600 
    151 H151       -6.6385  -17.7016  -47.5987 H         1 UNK         0.0600 
    152 H152       -5.8723  -16.2257  -48.1682 H         1 UNK         0.0600 
    153 H153       -5.6044  -16.7822  -46.5169 H         1 UNK         0.0600 
    154 H154       -3.3969  -16.2376  -47.3693 H         1 UNK         0.3000 
    155 H155        0.0044  -17.0119  -48.1564 H         1 UNK         0.0600 
    156 H156       -0.1888  -14.6068  -48.8849 H         1 UNK         0.0600 
    157 H157       -1.9301  -14.7878  -49.0180 H         1 UNK         0.0600 
    158 H158       -0.8564  -15.7044  -50.0682 H         1 UNK         0.0600 
    159 H159       -0.8812  -14.9106  -46.6159 H         1 UNK         0.3000 
    160 H160       -1.9418  -16.2014  -43.6383 H         1 UNK         0.0600 
    161 H161        1.0905  -15.8827  -43.9300 H         1 UNK         0.0600 
    162 H162        0.2483  -17.2233  -43.1672 H         1 UNK         0.0600 
    163 H163        0.1864  -15.6261  -42.4368 H         1 UNK         0.0600 
    164 H164       -0.3588  -13.8602  -44.1872 H         1 UNK         0.3000 
    165 H165       -2.7311  -11.9635  -45.8533 H         1 UNK         0.0600 
    166 H166       -2.3495  -11.7044  -42.8191 H         1 UNK         0.0600 
    167 H167       -2.8660  -10.4184  -43.9111 H         1 UNK         0.0600 
    168 H168       -3.8996  -11.8122  -43.6447 H         1 UNK         0.0600 
    169 H169       -0.4842  -11.1306  -44.3356 H         1 UNK         0.3000 
    170 H170        2.1323  -12.2483  -46.3802 H         1 UNK         0.0600 
    171 H171        1.3558  -10.3592  -47.8032 H         1 UNK         0.0600 
    172 H172        0.9864   -9.4057  -46.3710 H         1 UNK         0.0600 
    173 H173        2.6546   -9.8487  -46.7371 H         1 UNK         0.0600 
    174 H174        1.9047  -10.2872  -44.2686 H         1 UNK         0.3000 
    175 H175        3.1010  -10.9915  -42.2190 H         1 UNK         0.0600 
    176 H176        1.1811  -10.8483  -40.5759 H         1 UNK         0.0600 
    177 H177        0.6846  -10.2944  -42.1627 H         1 UNK         0.0600 
    178 H178        0.2160  -11.8988  -41.6088 H         1 UNK         0.0600 
    179 H179        2.5116  -13.7901  -41.8071 H         1 UNK         0.3000 
    180 H180        4.8971  -14.0942  -39.2776 H         1 UNK         0.0600 
    181 H181        1.9149  -14.6054  -38.7713 H         1 UNK         0.0600 
    182 H182        2.9860  -13.6817  -37.7249 H         1 UNK         0.0600 
    183 H183        3.2554  -15.4027  -37.9461 H         1 UNK         0.0600 
    184 H184        3.0641  -15.9702  -40.4626 H         1 UNK         0.3000 
    185 H185        5.3196  -17.2297  -42.6646 H         1 UNK         0.0600 
    186 H186        3.1088  -18.4132  -42.8468 H         1 UNK         0.0600 
    187 H187        3.5486  -18.1268  -41.1735 H         1 UNK         0.0600 
    188 H188        2.3283  -17.1207  -41.9466 H         1 UNK         0.0600 
    189 H189        3.7397  -15.0944  -43.7970 H         1 UNK         0.3000 
    190 H190       -1.8501  -20.4198  -48.8418 H         1 UNK         0.3000 
    191 H191       -1.3113  -22.2962  -50.8778 H         1 UNK         0.0600 
    192 H192       -2.4807  -20.0022  -51.0219 H         1 UNK         0.0600 
    193 H193       -3.1739  -21.2823  -51.9889 H         1 UNK         0.0600 
    194 H194       -3.9499  -20.8001  -50.4774 H         1 UNK         0.0600 
    195 H195       -3.5711  -22.4525  -48.1350 H         1 UNK         0.3000 
    196 H196       -4.9249  -24.8707  -48.9803 H         1 UNK         0.0600 
    197 H197       -5.9085  -24.8399  -46.7578 H         1 UNK         0.0600 
    198 H198       -5.8871  -23.1790  -47.3301 H         1 UNK         0.0600 
    199 H199       -4.7065  -23.7177  -46.1484 H         1 UNK         0.0600 
    200 H200       -2.2553  -24.1127  -46.6933 H         1 UNK         0.3000 
    201 H201       -1.6660  -26.7404  -45.8659 H         1 UNK         0.0600 
    202 H202       -0.8995  -24.6840  -44.6897 H         1 UNK         0.0600 
    203 H203        0.1725  -24.2942  -46.0335 H         1 UNK         0.0600 
    204 H204        0.4627  -25.7304  -45.0613 H         1 UNK         0.0600 
    205 H205       -0.6771  -25.0296  -48.7793 H         1 UNK         0.3000 
    206 H206        1.3408  -26.8229  -49.6822 H         1 UNK         0.0600 
    207 H207        1.0545  -24.4977  -50.5289 H         1 UNK         0.0600 
    208 H208        1.0131  -25.6529  -51.8501 H         1 UNK         0.0600 
    209 H209       -0.4837  -24.9401  -51.2678 H         1 UNK         0.0600 
    210 H210       -1.9840  -27.4001  -49.3683 H         1 UNK         0.3000 
    211 H211       -3.2975  -29.0987  -49.7569 H         1 UNK         0.0600 
    212 H212       -0.9353  -30.6113  -50.9458 H         1 UNK         0.0600 
    213 H213       -2.4733  -31.2923  -50.4455 H         1 UNK         0.0600 
    214 H214       -1.4080  -30.5711  -49.2491 H         1 UNK         0.0600 
    215 H215       -4.5280  -28.1947  -53.0477 H         1 UNK         0.3000 
    216 H216       -4.5129  -27.2716  -50.2965 H         1 UNK         0.0600 
    217 H217       -5.4608  -29.6327  -50.0587 H         1 UNK         0.0600 
    218 H218       -6.6750  -29.2344  -51.2640 H         1 UNK         0.0600 
    219 H219       -6.6550  -28.3966  -49.7172 H         1 UNK         0.0600 
    220 H220       -4.1661  -25.7810  -52.4531 H         1 UNK         0.3000 
    221 H221       -6.6564  -24.8037  -53.6260 H         1 UNK         0.0600 
    222 H222       -3.7604  -23.8326  -53.8738 H         1 UNK         0.0600 
    223 H223       -4.5490  -24.9854  -54.9513 H         1 UNK         0.0600 
    224 H224       -5.1134  -23.3261  -54.8794 H         1 UNK         0.0600 
    225 H225       -7.2249  -24.5321  -51.1159 H         1 UNK         0.3000 
    226 H226       -6.2562  -22.4691  -49.5460 H         1 UNK         0.0600 
    227 H227       -7.8002  -24.2496  -48.7482 H         1 UNK         0.0600 
    228 H228       -8.4335  -22.6636  -48.3330 H         1 UNK         0.0600 
    229 H229       -9.1209  -23.5553  -49.6862 H         1 UNK         0.0600 
    230 H230       -6.3310  -20.3555  -49.5169 H         1 UNK         0.3000 
    231 H231       -6.7061  -18.2333  -49.9165 H         1 UNK         0.0600 
    232 H232       -8.9370  -17.3500  -50.3188 H         1 UNK         0.0600 
    233 H233       -9.0517  -18.6891  -49.1912 H         1 UNK         0.0600 
    234 H234       -9.5209  -18.9077  -50.8776 H         1 UNK         0.0600 
    235 H235       -6.1642  -20.2661  -52.4407 H         1 UNK         0.3000 
    236 H236       -6.8073  -18.6821  -54.7005 H         1 UNK         0.0600 
    237 H237       -5.2357  -20.1696  -55.9033 H         1 UNK         0.0600 
    238 H238       -4.5786  -20.7552  -54.3817 H         1 UNK         0.0600 
    239 H239       -6.2545  -21.1027  -54.8187 H         1 UNK         0.0600 
    240 H240       -4.0645  -18.5129  -52.5035 H         1 UNK         0.3000 
    241 H241       -2.6060  -16.5473  -54.1256 H         1 UNK         0.0600 
    242 H242       -5.1265  -14.4850  -51.8312 H         1 UNK         0.3800 
    243 H243       -5.4607  -16.1104  -52.3636 H         1 UNK         0.3800 
    244 H244       -0.9943  -16.5050  -52.2316 H         1 UNK         0.0800 
    245 H245       -2.0189  -17.5816  -51.3183 H         1 UNK         0.0800 
    246 H246        1.3395  -18.8218  -53.9263 H         1 UNK         0.0800 
    247 H247        0.8352  -17.1739  -53.6694 H         1 UNK         0.0800 
@<TRIPOS>BOND
     1    1    2 1    
     2    1  127 1    
     3    1  128 1    
     4    1  129 1    
     5    2    3 2    
     6    2    4 am   BACKBONE|DICT|INTERRES
     7    4    5 1    
     8    4  130 1    
     9    5    6 1    
    10    5   65 1    
    11    5  131 1    
    12    6    7 1    
    13    6  132 1    
    14    6  133 1    
    15    7    8 1    
    16    8    9 1    
    17    8  134 1    
    18    8  135 1    
    19    9   10 ar   
    20    9   14 ar   
    21   10   11 ar   
    22   10  136 1    
    23   11   12 ar   
    24   11  126 1    
    25   12   13 ar   
    26   12  137 1    
    27   13   14 ar   
    28   13   15 1    
    29   14  138 1    
    30   15   16 1    
    31   15  139 1    
    32   15  140 1    
    33   16   17 1    
    34   17   18 1    
    35   17  141 1    
    36   17  142 1    
    37   18   19 1    
    38   18   67 1    
    39   18  143 1    
    40   19   20 am   BACKBONE|DICT|INTERRES
    41   19  144 1    
    42   20   21 2    
    43   20   22 1    
    44   22   23 1    
    45   22   24 1    
    46   22  145 1    
    47   23  146 1    
    48   23  147 1    
    49   23  148 1    
    50   24   25 am   BACKBONE|DICT|INTERRES
    51   24  149 1    
    52   25   26 2    
    53   25   27 1    
    54   27   28 1    
    55   27   29 1    
    56   27  150 1    
    57   28  151 1    
    58   28  152 1    
    59   28  153 1    
    60   29   30 am   BACKBONE|DICT|INTERRES
    61   29  154 1    
    62   30   31 2    
    63   30   32 1    
    64   32   33 1    
    65   32   34 1    
    66   32  155 1    
    67   33  156 1    
    68   33  157 1    
    69   33  158 1    
    70   34   35 am   BACKBONE|DICT|INTERRES
    71   34  159 1    
    72   35   36 2    
    73   35   37 1    
    74   37   38 1    
    75   37   39 1    
    76   37  160 1    
    77   38  161 1    
    78   38  162 1    
    79   38  163 1    
    80   39   40 am   BACKBONE|DICT|INTERRES
    81   39  164 1    
    82   40   41 2    
    83   40   42 1    
    84   42   43 1    
    85   42   44 1    
    86   42  165 1    
    87   43  166 1    
    88   43  167 1    
    89   43  168 1    
    90   44   45 am   BACKBONE|DICT|INTERRES
    91   44  169 1    
    92   45   46 2    
    93   45   47 1    
    94   47   48 1    
    95   47   49 1    
    96   47  170 1    
    97   48  171 1    
    98   48  172 1    
    99   48  173 1    
   100   49   50 am   BACKBONE|DICT|INTERRES
   101   49  174 1    
   102   50   51 2    
   103   50   52 1    
   104   52   53 1    
   105   52   54 1    
   106   52  175 1    
   107   53  176 1    
   108   53  177 1    
   109   53  178 1    
   110   54   55 am   BACKBONE|DICT|INTERRES
   111   54  179 1    
   112   55   56 2    
   113   55   57 1    
   114   57   58 1    
   115   57   59 1    
   116   57  180 1    
   117   58  181 1    
   118   58  182 1    
   119   58  183 1    
   120   59   60 am   BACKBONE|DICT|INTERRES
   121   59  184 1    
   122   60   61 2    
   123   60   62 1    
   124   62   63 1    
   125   62   64 1    
   126   62  185 1    
   127   63  186 1    
   128   63  187 1    
   129   63  188 1    
   130   64   65 am   BACKBONE|DICT|INTERRES
   131   64  189 1    
   132   65   66 2    
   133   67   68 2    
   134   67   69 am   BACKBONE|DICT|INTERRES
   135   69   70 1    
   136   69  190 1    
   137   70   71 1    
   138   70   72 1    
   139   70  191 1    
   140   71  192 1    
   141   71  193 1    
   142   71  194 1    
   143   72   73 2    
   144   72   74 am   BACKBONE|DICT|INTERRES
   145   74   75 1    
   146   74  195 1    
   147   75   76 1    
   148   75   77 1    
   149   75  196 1    
   150   76  197 1    
   151   76  198 1    
   152   76  199 1    
   153   77   78 2    
   154   77   79 am   BACKBONE|DICT|INTERRES
   155   79   80 1    
   156   79  200 1    
   157   80   81 1    
   158   80   82 1    
   159   80  201 1    
   160   81  202 1    
   161   81  203 1    
   162   81  204 1    
   163   82   83 2    
   164   82   84 am   BACKBONE|DICT|INTERRES
   165   84   85 1    
   166   84  205 1    
   167   85   86 1    
   168   85   87 1    
   169   85  206 1    
   170   86  207 1    
   171   86  208 1    
   172   86  209 1    
   173   87   88 2    
   174   87   89 am   BACKBONE|DICT|INTERRES
   175   89   90 1    
   176   89  210 1    
   177   90   91 1    
   178   90   92 1    
   179   90  211 1    
   180   91  212 1    
   181   91  213 1    
   182   91  214 1    
   183   92   93 2    
   184   92   94 am   BACKBONE|DICT|INTERRES
   185   94   95 1    
   186   94  215 1    
   187   95   96 1    
   188   95   97 1    
   189   95  216 1    
   190   96  217 1    
   191   96  218 1    
   192   96  219 1    
   193   97   98 2    
   194   97   99 am   BACKBONE|DICT|INTERRES
   195   99  100 1    
   196   99  220 1    
   197  100  101 1    
   198  100  102 1    
   199  100  221 1    
   200  101  222 1    
   201  101  223 1    
   202  101  224 1    
   203  102  103 2    
   204  102  104 am   BACKBONE|DICT|INTERRES
   205  104  105 1    
   206  104  225 1    
   207  105  106 1    
   208  105  107 1    
   209  105  226 1    
   210  106  227 1    
   211  106  228 1    
   212  106  229 1    
   213  107  108 2    
   214  107  109 am   BACKBONE|DICT|INTERRES
   215  109  110 1    
   216  109  230 1    
   217  110  111 1    
   218  110  112 1    
   219  110  231 1    
   220  111  232 1    
   221  111  233 1    
   222  111  234 1    
   223  112  113 2    
   224  112  114 am   BACKBONE|DICT|INTERRES
   225  114  115 1    
   226  114  235 1    
   227  115  116 1    
   228  115  117 1    
   229  115  236 1    
   230  116  237 1    
   231  116  238 1    
   232  116  239 1    
   233  117  118 2    
   234  117  119 am   BACKBONE|DICT|INTERRES
   235  119  120 1    
   236  119  240 1    
   237  120  121 1    
   238  120  124 1    
   239  120  241 1    
   240  121  122 am   BACKBONE|DICT|INTERRES
   241  121  123 2    
   242  122  242 1    
   243  122  243 1    
   244  124  125 1    
   245  124  244 1    
   246  124  245 1    
   247  125  126 1    
   248  126  246 1    
   249  126  247 1    
@<TRIPOS>SUBSTRUCTURE
     1 UNK         1 GROUP             0       ****    0 ROOT    
