@<TRIPOS>MOLECULE
3R540
247   249    1
SMALL
USER_CHARGES


@<TRIPOS>ATOM
      1 CA          7.9930  -13.8218  -51.0544 C.3       0 UNK        -0.1800 
      2 C           6.5693  -14.1719  -50.6444 C.2       0 UNK         0.5000 
      3 O           6.3124  -15.3008  -50.2252 O.2       0 UNK        -0.5000 
      4 N           5.6433  -13.2133  -50.7716 N.am      1 UNK        -0.5000 
      5 CA          4.2434  -13.3441  -50.3606 C.3       1 UNK         0.1400 
      6 C6          3.3697  -12.2561  -51.0309 C.3       23 UNK        -0.0398 
      7 S7          1.5703  -12.4828  -50.8173 S.3       23 UNK        -0.2404 
      8 C8          1.2237  -13.9290  -51.8708 C.3       23 UNK        -0.0205 
      9 C9          0.7594  -15.1117  -51.0331 C.ar      23 UNK        -0.0193 
     10 C10        -0.5520  -15.1470  -50.5538 C.ar      23 UNK        -0.1150 
     11 C11        -0.9986  -16.2117  -49.7675 C.ar      23 UNK        -0.0193 
     12 C12        -0.1087  -17.2442  -49.4541 C.ar      23 UNK        -0.1150 
     13 C13         1.2057  -17.2381  -49.9391 C.ar      23 UNK        -0.0193 
     14 C14         1.6278  -16.1648  -50.7312 C.ar      23 UNK        -0.1150 
     15 C15         2.2062  -18.3466  -49.6060 C.3       23 UNK        -0.0205 
     16 S16         1.4909  -20.0211  -49.4716 S.3       23 UNK        -0.2404 
     17 C17         1.1384  -20.1197  -47.6811 C.3       23 UNK        -0.0398 
     18 CA          0.6925  -21.5193  -47.1984 C.3       11 UNK         0.1400 
     19 N           0.5804  -21.5588  -45.7402 N.am      11 UNK        -0.5000 
     20 C           0.3611  -22.6561  -45.0041 C.2       10 UNK         0.5000 
     21 O           0.2756  -23.7915  -45.4718 O.2       10 UNK        -0.5000 
     22 CA          0.1530  -22.4359  -43.4946 C.3       10 UNK         0.1400 
     23 CB          1.4950  -22.2199  -42.7794 C.3       10 UNK        -0.1800 
     24 N          -0.7426  -21.3116  -43.2141 N.am      10 UNK        -0.5000 
     25 C          -2.0371  -21.2765  -43.5632 C.2       9 UNK         0.5000 
     26 O          -2.6205  -22.2102  -44.1147 O.2       9 UNK        -0.5000 
     27 CA         -2.7994  -19.9678  -43.2861 C.3       9 UNK         0.1400 
     28 CB         -3.2161  -19.8813  -41.8104 C.3       9 UNK        -0.1800 
     29 N          -2.0356  -18.7746  -43.6536 N.am      9 UNK        -0.5000 
     30 C          -1.6419  -18.4767  -44.9002 C.2       8 UNK         0.5000 
     31 O          -1.9091  -19.1614  -45.8841 O.2       8 UNK        -0.5000 
     32 CA         -0.7433  -17.2425  -45.0747 C.3       8 UNK         0.1400 
     33 CB         -1.5676  -15.9479  -45.0628 C.3       8 UNK        -0.1800 
     34 N           0.3060  -17.1748  -44.0598 N.am      8 UNK        -0.5000 
     35 C           1.2775  -18.0863  -43.9085 C.2       7 UNK         0.5000 
     36 O           1.4133  -19.0713  -44.6324 O.2       7 UNK        -0.5000 
     37 CA          2.2323  -17.8862  -42.7218 C.3       7 UNK         0.1400 
     38 CB          3.3260  -16.8623  -43.0617 C.3       7 UNK        -0.1800 
     39 N           1.5155  -17.4698  -41.5175 N.am      7 UNK        -0.5000 
     40 C           0.6629  -18.2524  -40.8404 C.2       6 UNK         0.5000 
     41 O           0.4262  -19.4248  -41.1339 O.2       6 UNK        -0.5000 
     42 CA         -0.0822  -17.5942  -39.6656 C.3       6 UNK         0.1400 
     43 CB          0.7967  -17.5744  -38.4061 C.3       6 UNK        -0.1800 
     44 N          -0.5199  -16.2318  -39.9764 N.am      6 UNK        -0.5000 
     45 C          -1.4553  -15.9312  -40.8885 C.2       5 UNK         0.5000 
     46 O          -2.0635  -16.7746  -41.5460 O.2       5 UNK        -0.5000 
     47 CA         -1.7292  -14.4367  -41.1357 C.3       5 UNK         0.1400 
     48 CB         -2.7568  -13.9028  -40.1267 C.3       5 UNK        -0.1800 
     49 N          -0.5243  -13.6031  -41.0910 N.am      5 UNK        -0.5000 
     50 C           0.5102  -13.7147  -41.9340 C.2       4 UNK         0.5000 
     51 O           0.5981  -14.5863  -42.8016 O.2       4 UNK        -0.5000 
     52 CA          1.6619  -12.7150  -41.7467 C.3       4 UNK         0.1400 
     53 CB          2.8224  -13.3696  -40.9815 C.3       4 UNK        -0.1800 
     54 N           2.1462  -12.2400  -43.0413 N.am      4 UNK        -0.5000 
     55 C           1.5460  -11.2925  -43.7751 C.2       3 UNK         0.5000 
     56 O           0.5516  -10.6681  -43.4026 O.2       3 UNK        -0.5000 
     57 CA          2.1627  -10.9820  -45.1532 C.3       3 UNK         0.1400 
     58 CB          3.2001   -9.8547  -45.0379 C.3       3 UNK        -0.1800 
     59 N           2.7934  -12.1509  -45.7690 N.am      3 UNK        -0.5000 
     60 C           2.1185  -13.1603  -46.3319 C.2       2 UNK         0.5000 
     61 O           0.8928  -13.1816  -46.4534 O.2       2 UNK        -0.5000 
     62 CA          2.9643  -14.3295  -46.8657 C.3       2 UNK         0.1400 
     63 CB          2.2737  -15.6796  -46.6317 C.3       2 UNK        -0.1800 
     64 N           3.2286  -14.1780  -48.2916 N.am      2 UNK        -0.5000 
     65 C           4.1276  -13.3402  -48.8204 C.2       1 UNK         0.5000 
     66 O           4.8476  -12.5946  -48.1503 O.2       1 UNK        -0.5000 
     67 C          -0.6067  -22.0030  -47.8772 C.2       11 UNK         0.5000 
     68 O          -0.5384  -22.8717  -48.7453 O.2       11 UNK        -0.5000 
     69 N          -1.7626  -21.4889  -47.4314 N.am      12 UNK        -0.5000 
     70 CA         -3.0932  -21.8865  -47.8927 C.3       12 UNK         0.1400 
     71 CB         -4.1655  -21.0540  -47.1760 C.3       12 UNK        -0.1800 
     72 C          -3.3766  -23.3835  -47.6966 C.2       12 UNK         0.5000 
     73 O          -3.8852  -24.0222  -48.6157 O.2       12 UNK        -0.5000 
     74 N          -3.0197  -23.9192  -46.5215 N.am      13 UNK        -0.5000 
     75 CA         -3.1498  -25.3377  -46.1912 C.3       13 UNK         0.1400 
     76 CB         -2.8729  -25.5408  -44.6938 C.3       13 UNK        -0.1800 
     77 C          -2.2378  -26.2404  -47.0435 C.2       13 UNK         0.5000 
     78 O          -2.6697  -27.3170  -47.4569 O.2       13 UNK        -0.5000 
     79 N          -1.0010  -25.7888  -47.2906 N.am      14 UNK        -0.5000 
     80 CA         -0.0049  -26.5024  -48.0870 C.3       14 UNK         0.1400 
     81 CB          1.3857  -25.9047  -47.8199 C.3       14 UNK        -0.1800 
     82 C          -0.3233  -26.4926  -49.5929 C.2       14 UNK         0.5000 
     83 O          -0.2755  -27.5458  -50.2301 O.2       14 UNK        -0.5000 
     84 N          -0.6181  -25.3057  -50.1379 N.am      15 UNK        -0.5000 
     85 CA         -0.8495  -25.0882  -51.5656 C.3       15 UNK         0.1400 
     86 CB         -0.6056  -23.6082  -51.8911 C.3       15 UNK        -0.1800 
     87 C          -2.2557  -25.5074  -52.0220 C.2       15 UNK         0.5000 
     88 O          -2.4079  -25.9537  -53.1606 O.2       15 UNK        -0.5000 
     89 N          -3.2562  -25.3437  -51.1431 N.am      16 UNK        -0.5000 
     90 CA         -4.6784  -25.5969  -51.3803 C.3       16 UNK         0.1400 
     91 CB         -4.9468  -27.1174  -51.4423 C.3       16 UNK        -0.1800 
     92 C          -5.1893  -24.8026  -52.6003 C.2       16 UNK         0.5000 
     93 O          -5.0706  -23.5740  -52.6154 O.2       16 UNK        -0.5000 
     94 N          -5.7080  -25.5083  -53.6133 N.am      17 UNK        -0.5000 
     95 CA         -6.2376  -24.9579  -54.8612 C.3       17 UNK         0.1400 
     96 CB         -6.8076  -26.1040  -55.7098 C.3       17 UNK        -0.1800 
     97 C          -5.2242  -24.1353  -55.6808 C.2       17 UNK         0.5000 
     98 O          -5.6442  -23.2330  -56.4048 O.2       17 UNK        -0.5000 
     99 N          -3.9191  -24.4097  -55.5280 N.am      18 UNK        -0.5000 
    100 CA        -2.8417  -23.6722  -56.1972 C.3       18 UNK         0.1400 
    101 CB        -1.5198  -24.4400  -56.0490 C.3       18 UNK        -0.1800 
    102 C         -2.6905  -22.2182  -55.7028 C.2       18 UNK         0.5000 
    103 O         -2.1992  -21.3777  -56.4567 O.2       18 UNK        -0.5000 
    104 N         -3.1381  -21.9424  -54.4700 N.am      19 UNK        -0.5000 
    105 CA        -3.2232  -20.6002  -53.8876 C.3       19 UNK         0.1400 
    106 CB        -2.5542  -20.6202  -52.5015 C.3       19 UNK        -0.1800 
    107 C         -4.6840  -20.1228  -53.7716 C.2       19 UNK         0.5000 
    108 O         -4.9239  -19.0745  -53.1721 O.2       19 UNK        -0.5000 
    109 N         -5.6413  -20.9188  -54.2791 N.am      20 UNK        -0.5000 
    110 CA        -7.0957  -20.7807  -54.1116 C.3       20 UNK         0.1400 
    111 CB        -7.6195  -19.5830  -54.9295 C.3       20 UNK        -0.1800 
    112 C         -7.5200  -20.7225  -52.6254 C.2       20 UNK         0.5000 
    113 O         -8.4496  -19.9937  -52.2710 O.2       20 UNK        -0.5000 
    114 N         -6.7675  -21.4386  -51.7733 N.am      21 UNK        -0.5000 
    115 CA        -6.8017  -21.4240  -50.3066 C.3       21 UNK         0.1400 
    116 CB        -8.0588  -22.1577  -49.7996 C.3       21 UNK        -0.1800 
    117 C         -6.6430  -20.0135  -49.6877 C.2       21 UNK         0.5000 
    118 O         -7.1119  -19.7842  -48.5719 O.2       21 UNK        -0.5000 
    119 N         -6.0092  -19.0907  -50.4280 N.am      22 UNK        -0.5000 
    120 CA        -5.8934  -17.6548  -50.1228 C.3       22 UNK         0.1400 
    121 C         -7.2593  -16.8989  -50.0702 C.2       22 UNK         0.5000 
    122 N         -8.3242  -17.4122  -50.6782 N.am      22 UNK        -0.7600 
    123 O         -7.3561  -15.8140  -49.5028 O.2       22 UNK        -0.5000 
    124 C124       -4.9698  -17.3691  -48.9048 C.3       23 UNK        -0.0398 
    125 S125       -3.2394  -17.8389  -49.2568 S.3       23 UNK        -0.2404 
    126 C126       -2.4306  -16.2029  -49.2394 C.3       23 UNK        -0.0205 
    127 H127        8.3297  -14.4885  -51.8483 H         1 UNK         0.0600 
    128 H128        8.6661  -13.9346  -50.2045 H         1 UNK         0.0600 
    129 H129        8.0707  -12.7962  -51.4158 H         1 UNK         0.0600 
    130 H130        5.9249  -12.2968  -51.0891 H         1 UNK         0.3000 
    131 H131        3.9032  -14.3143  -50.7219 H         1 UNK         0.0600 
    132 H132        3.6352  -11.2687  -50.6490 H         1 UNK         0.0800 
    133 H133        3.5734  -12.2234  -52.1023 H         1 UNK         0.0800 
    134 H134        2.0987  -14.1957  -52.4653 H         1 UNK         0.0800 
    135 H135        0.4439  -13.6638  -52.5862 H         1 UNK         0.0800 
    136 H136       -1.2230  -14.3318  -50.7865 H         1 UNK         0.1150 
    137 H137       -0.4587  -18.0556  -48.8384 H         1 UNK         0.1150 
    138 H138        2.6383  -16.1526  -51.1135 H         1 UNK         0.1150 
    139 H139        2.9698  -18.3887  -50.3843 H         1 UNK         0.0800 
    140 H140        2.7307  -18.0910  -48.6856 H         1 UNK         0.0800 
    141 H141        0.3970  -19.3738  -47.4006 H         1 UNK         0.0800 
    142 H142        2.0519  -19.8393  -47.1549 H         1 UNK         0.0800 
    143 H143        1.4783  -22.2271  -47.4708 H         1 UNK         0.0600 
    144 H144        0.6788  -20.6663  -45.2620 H         1 UNK         0.3000 
    145 H145       -0.3064  -23.3393  -43.0880 H         1 UNK         0.0600 
    146 H146        1.9933  -21.3119  -43.1197 H         1 UNK         0.0600 
    147 H147        1.3571  -22.1396  -41.7010 H         1 UNK         0.0600 
    148 H148        2.1726  -23.0551  -42.9603 H         1 UNK         0.0600 
    149 H149       -0.3417  -20.5168  -42.7276 H         1 UNK         0.3000 
    150 H150       -3.7069  -19.9789  -43.8929 H         1 UNK         0.0600 
    151 H151       -3.7938  -20.7579  -41.5148 H         1 UNK         0.0600 
    152 H152       -3.8385  -19.0051  -41.6284 H         1 UNK         0.0600 
    153 H153       -2.3507  -19.8185  -41.1499 H         1 UNK         0.0600 
    154 H154       -1.8134  -18.1282  -42.9017 H         1 UNK         0.3000 
    155 H155       -0.2592  -17.3229  -46.0499 H         1 UNK         0.0600 
    156 H156       -2.0496  -15.7857  -44.0995 H         1 UNK         0.0600 
    157 H157       -0.9406  -15.0812  -45.2745 H         1 UNK         0.0600 
    158 H158       -2.3519  -15.9777  -45.8193 H         1 UNK         0.0600 
    159 H159        0.3017  -16.3580  -43.4547 H         1 UNK         0.3000 
    160 H160        2.7159  -18.8435  -42.5163 H         1 UNK         0.0600 
    161 H161        3.8928  -17.1771  -43.9388 H         1 UNK         0.0600 
    162 H162        2.9093  -15.8791  -43.2793 H         1 UNK         0.0600 
    163 H163        4.0335  -16.7531  -42.2397 H         1 UNK         0.0600 
    164 H164        1.6125  -16.5050  -41.2398 H         1 UNK         0.3000 
    165 H165       -0.9683  -18.1968  -39.4542 H         1 UNK         0.0600 
    166 H166        0.2490  -17.1804  -37.5498 H         1 UNK         0.0600 
    167 H167        1.1256  -18.5812  -38.1447 H         1 UNK         0.0600 
    168 H168        1.6892  -16.9629  -38.5445 H         1 UNK         0.0600 
    169 H169       -0.0694  -15.4780  -39.4791 H         1 UNK         0.3000 
    170 H170       -2.1578  -14.3428  -42.1353 H         1 UNK         0.0600 
    171 H171       -3.6731  -14.4943  -40.1529 H         1 UNK         0.0600 
    172 H172       -2.3746  -13.9345  -39.1056 H         1 UNK         0.0600 
    173 H173       -3.0315  -12.8720  -40.3512 H         1 UNK         0.0600 
    174 H174       -0.5138  -12.8686  -40.3979 H         1 UNK         0.3000 
    175 H175        1.3058  -11.8615  -41.1655 H         1 UNK         0.0600 
    176 H176        3.2391  -14.2187  -41.5233 H         1 UNK         0.0600 
    177 H177        3.6290  -12.6571  -40.8075 H         1 UNK         0.0600 
    178 H178        2.4942  -13.7312  -40.0062 H         1 UNK         0.0600 
    179 H179        2.9298  -12.7334  -43.4407 H         1 UNK         0.3000 
    180 H180        1.3586  -10.6359  -45.8065 H         1 UNK         0.0600 
    181 H181        4.0397  -10.1420  -44.4037 H         1 UNK         0.0600 
    182 H182        2.7548   -8.9571  -44.6067 H         1 UNK         0.0600 
    183 H183        3.5960   -9.5820  -46.0165 H         1 UNK         0.0600 
    184 H184        3.8038  -12.1744  -45.7755 H         1 UNK         0.3000 
    185 H185        3.9139  -14.3479  -46.3262 H         1 UNK         0.0600 
    186 H186        2.9297  -16.5118  -46.8846 H         1 UNK         0.0600 
    187 H187        2.0069  -15.7828  -45.5824 H         1 UNK         0.0600 
    188 H188        1.3575  -15.7766  -47.2155 H         1 UNK         0.0600 
    189 H189        2.6300  -14.7080  -48.9089 H         1 UNK         0.3000 
    190 H190       -1.7385  -20.7422  -46.7391 H         1 UNK         0.3000 
    191 H191       -3.1499  -21.6727  -48.9621 H         1 UNK         0.0600 
    192 H192       -4.0925  -21.1469  -46.0932 H         1 UNK         0.0600 
    193 H193       -5.1674  -21.3759  -47.4597 H         1 UNK         0.0600 
    194 H194       -4.0783  -19.9978  -47.4241 H         1 UNK         0.0600 
    195 H195       -2.6468  -23.3123  -45.7976 H         1 UNK         0.3000 
    196 H196       -4.1829  -25.6325  -46.3871 H         1 UNK         0.0600 
    197 H197       -2.9796  -26.5897  -44.4146 H         1 UNK         0.0600 
    198 H198       -3.5717  -24.9684  -44.0834 H         1 UNK         0.0600 
    199 H199       -1.8631  -25.2291  -44.4249 H         1 UNK         0.0600 
    200 H200       -0.7083  -24.9102  -46.8751 H         1 UNK         0.3000 
    201 H201        0.0115  -27.5435  -47.7577 H         1 UNK         0.0600 
    202 H202        1.6565  -25.9953  -46.7678 H         1 UNK         0.0600 
    203 H203        1.4286  -24.8474  -48.0841 H         1 UNK         0.0600 
    204 H204        2.1521  -26.4209  -48.3993 H         1 UNK         0.0600 
    205 H205       -0.6240  -24.4748  -49.5470 H         1 UNK         0.3000 
    206 H206       -0.1272  -25.6802  -52.1317 H         1 UNK         0.0600 
    207 H207        0.4133  -23.3111  -51.6421 H         1 UNK         0.0600 
    208 H208       -0.7563  -23.4024  -52.9508 H         1 UNK         0.0600 
    209 H209       -1.2846  -22.9658  -51.3310 H         1 UNK         0.0600 
    210 H210       -3.0502  -24.9297  -50.2404 H         1 UNK         0.3000 
    211 H211       -5.2203  -25.2031  -50.5204 H         1 UNK         0.0600 
    212 H212       -4.4342  -27.5956  -52.2776 H         1 UNK         0.0600 
    213 H213       -6.0129  -27.3281  -51.5349 H         1 UNK         0.0600 
    214 H214       -4.6055  -27.6046  -50.5286 H         1 UNK         0.0600 
    215 H215       -5.7308  -26.5138  -53.5250 H         1 UNK         0.3000 
    216 H216       -7.0586  -24.2883  -54.5976 H         1 UNK         0.0600 
    217 H217       -7.2391  -25.7269  -56.6381 H         1 UNK         0.0600 
    218 H218       -7.5984  -26.6340  -55.1784 H         1 UNK         0.0600 
    219 H219       -6.0368  -26.8282  -55.9763 H         1 UNK         0.0600 
    220 H220       -3.6393  -25.1385  -54.8817 H         1 UNK         0.3000 
    221 H221       -3.0825  -23.6276  -57.2615 H         1 UNK         0.0600 
    222 H222       -1.1979  -24.4959  -55.0102 H         1 UNK         0.0600 
    223 H223       -1.6089  -25.4582  -56.4279 H         1 UNK         0.0600 
    224 H224       -0.7220  -23.9528  -56.6109 H         1 UNK         0.0600 
    225 H225       -3.5449  -22.6903  -53.9201 H         1 UNK         0.3000 
    226 H226       -2.6985  -19.8714  -54.5081 H         1 UNK         0.0600 
    227 H227       -1.5021  -20.8922  -52.5799 H         1 UNK         0.0600 
    228 H228       -2.5921  -19.6390  -52.0260 H         1 UNK         0.0600 
    229 H229       -3.0415  -21.3282  -51.8297 H         1 UNK         0.0600 
    230 H230       -5.3445  -21.7380  -54.7926 H         1 UNK         0.3000 
    231 H231       -7.5428  -21.6867  -54.5225 H         1 UNK         0.0600 
    232 H232       -8.7093  -19.5455  -54.9155 H         1 UNK         0.0600 
    233 H233       -7.3119  -19.6548  -55.9727 H         1 UNK         0.0600 
    234 H234       -7.2543  -18.6337  -54.5364 H         1 UNK         0.0600 
    235 H235       -6.0479  -22.0365  -52.1736 H         1 UNK         0.3000 
    236 H236       -5.9312  -21.9951  -49.9798 H         1 UNK         0.0600 
    237 H237       -8.0339  -22.2784  -48.7160 H         1 UNK         0.0600 
    238 H238       -8.1334  -23.1550  -50.2331 H         1 UNK         0.0600 
    239 H239       -8.9701  -21.6134  -50.0492 H         1 UNK         0.0600 
    240 H240       -5.6678  -19.3488  -51.3478 H         1 UNK         0.3000 
    241 H241       -5.4041  -17.2216  -50.9960 H         1 UNK         0.0600 
    242 H242       -9.1980  -16.9115  -50.6486 H         1 UNK         0.3800 
    243 H243       -8.2733  -18.3003  -51.1668 H         1 UNK         0.3800 
    244 H244       -4.9938  -16.3129  -48.6339 H         1 UNK         0.0800 
    245 H245       -5.3117  -17.9066  -48.0202 H         1 UNK         0.0800 
    246 H246       -3.0359  -15.5154  -49.8323 H         1 UNK         0.0800 
    247 H247       -2.4252  -15.8165  -48.2203 H         1 UNK         0.0800 
@<TRIPOS>BOND
     1    1    2 1    
     2    1  127 1    
     3    1  128 1    
     4    1  129 1    
     5    2    3 2    
     6    2    4 am   BACKBONE|DICT|INTERRES
     7    4    5 1    
     8    4  130 1    
     9    5    6 1    
    10    5   65 1    
    11    5  131 1    
    12    6    7 1    
    13    6  132 1    
    14    6  133 1    
    15    7    8 1    
    16    8    9 1    
    17    8  134 1    
    18    8  135 1    
    19    9   10 ar   
    20    9   14 ar   
    21   10   11 ar   
    22   10  136 1    
    23   11   12 ar   
    24   11  126 1    
    25   12   13 ar   
    26   12  137 1    
    27   13   14 ar   
    28   13   15 1    
    29   14  138 1    
    30   15   16 1    
    31   15  139 1    
    32   15  140 1    
    33   16   17 1    
    34   17   18 1    
    35   17  141 1    
    36   17  142 1    
    37   18   19 1    
    38   18   67 1    
    39   18  143 1    
    40   19   20 am   BACKBONE|DICT|INTERRES
    41   19  144 1    
    42   20   21 2    
    43   20   22 1    
    44   22   23 1    
    45   22   24 1    
    46   22  145 1    
    47   23  146 1    
    48   23  147 1    
    49   23  148 1    
    50   24   25 am   BACKBONE|DICT|INTERRES
    51   24  149 1    
    52   25   26 2    
    53   25   27 1    
    54   27   28 1    
    55   27   29 1    
    56   27  150 1    
    57   28  151 1    
    58   28  152 1    
    59   28  153 1    
    60   29   30 am   BACKBONE|DICT|INTERRES
    61   29  154 1    
    62   30   31 2    
    63   30   32 1    
    64   32   33 1    
    65   32   34 1    
    66   32  155 1    
    67   33  156 1    
    68   33  157 1    
    69   33  158 1    
    70   34   35 am   BACKBONE|DICT|INTERRES
    71   34  159 1    
    72   35   36 2    
    73   35   37 1    
    74   37   38 1    
    75   37   39 1    
    76   37  160 1    
    77   38  161 1    
    78   38  162 1    
    79   38  163 1    
    80   39   40 am   BACKBONE|DICT|INTERRES
    81   39  164 1    
    82   40   41 2    
    83   40   42 1    
    84   42   43 1    
    85   42   44 1    
    86   42  165 1    
    87   43  166 1    
    88   43  167 1    
    89   43  168 1    
    90   44   45 am   BACKBONE|DICT|INTERRES
    91   44  169 1    
    92   45   46 2    
    93   45   47 1    
    94   47   48 1    
    95   47   49 1    
    96   47  170 1    
    97   48  171 1    
    98   48  172 1    
    99   48  173 1    
   100   49   50 am   BACKBONE|DICT|INTERRES
   101   49  174 1    
   102   50   51 2    
   103   50   52 1    
   104   52   53 1    
   105   52   54 1    
   106   52  175 1    
   107   53  176 1    
   108   53  177 1    
   109   53  178 1    
   110   54   55 am   BACKBONE|DICT|INTERRES
   111   54  179 1    
   112   55   56 2    
   113   55   57 1    
   114   57   58 1    
   115   57   59 1    
   116   57  180 1    
   117   58  181 1    
   118   58  182 1    
   119   58  183 1    
   120   59   60 am   BACKBONE|DICT|INTERRES
   121   59  184 1    
   122   60   61 2    
   123   60   62 1    
   124   62   63 1    
   125   62   64 1    
   126   62  185 1    
   127   63  186 1    
   128   63  187 1    
   129   63  188 1    
   130   64   65 am   BACKBONE|DICT|INTERRES
   131   64  189 1    
   132   65   66 2    
   133   67   68 2    
   134   67   69 am   BACKBONE|DICT|INTERRES
   135   69   70 1    
   136   69  190 1    
   137   70   71 1    
   138   70   72 1    
   139   70  191 1    
   140   71  192 1    
   141   71  193 1    
   142   71  194 1    
   143   72   73 2    
   144   72   74 am   BACKBONE|DICT|INTERRES
   145   74   75 1    
   146   74  195 1    
   147   75   76 1    
   148   75   77 1    
   149   75  196 1    
   150   76  197 1    
   151   76  198 1    
   152   76  199 1    
   153   77   78 2    
   154   77   79 am   BACKBONE|DICT|INTERRES
   155   79   80 1    
   156   79  200 1    
   157   80   81 1    
   158   80   82 1    
   159   80  201 1    
   160   81  202 1    
   161   81  203 1    
   162   81  204 1    
   163   82   83 2    
   164   82   84 am   BACKBONE|DICT|INTERRES
   165   84   85 1    
   166   84  205 1    
   167   85   86 1    
   168   85   87 1    
   169   85  206 1    
   170   86  207 1    
   171   86  208 1    
   172   86  209 1    
   173   87   88 2    
   174   87   89 am   BACKBONE|DICT|INTERRES
   175   89   90 1    
   176   89  210 1    
   177   90   91 1    
   178   90   92 1    
   179   90  211 1    
   180   91  212 1    
   181   91  213 1    
   182   91  214 1    
   183   92   93 2    
   184   92   94 am   BACKBONE|DICT|INTERRES
   185   94   95 1    
   186   94  215 1    
   187   95   96 1    
   188   95   97 1    
   189   95  216 1    
   190   96  217 1    
   191   96  218 1    
   192   96  219 1    
   193   97   98 2    
   194   97   99 am   BACKBONE|DICT|INTERRES
   195   99  100 1    
   196   99  220 1    
   197  100  101 1    
   198  100  102 1    
   199  100  221 1    
   200  101  222 1    
   201  101  223 1    
   202  101  224 1    
   203  102  103 2    
   204  102  104 am   BACKBONE|DICT|INTERRES
   205  104  105 1    
   206  104  225 1    
   207  105  106 1    
   208  105  107 1    
   209  105  226 1    
   210  106  227 1    
   211  106  228 1    
   212  106  229 1    
   213  107  108 2    
   214  107  109 am   BACKBONE|DICT|INTERRES
   215  109  110 1    
   216  109  230 1    
   217  110  111 1    
   218  110  112 1    
   219  110  231 1    
   220  111  232 1    
   221  111  233 1    
   222  111  234 1    
   223  112  113 2    
   224  112  114 am   BACKBONE|DICT|INTERRES
   225  114  115 1    
   226  114  235 1    
   227  115  116 1    
   228  115  117 1    
   229  115  236 1    
   230  116  237 1    
   231  116  238 1    
   232  116  239 1    
   233  117  118 2    
   234  117  119 am   BACKBONE|DICT|INTERRES
   235  119  120 1    
   236  119  240 1    
   237  120  121 1    
   238  120  124 1    
   239  120  241 1    
   240  121  122 am   BACKBONE|DICT|INTERRES
   241  121  123 2    
   242  122  242 1    
   243  122  243 1    
   244  124  125 1    
   245  124  244 1    
   246  124  245 1    
   247  125  126 1    
   248  126  246 1    
   249  126  247 1    
@<TRIPOS>SUBSTRUCTURE
     1 UNK         1 GROUP             0       ****    0 ROOT    
