@<TRIPOS>MOLECULE
3R540
247   249    1
SMALL
USER_CHARGES


@<TRIPOS>ATOM
      1 CA         -4.3168  -13.2940  -41.9108 C.3       0 UNK        -0.1800 
      2 C          -3.0638  -13.3543  -42.7734 C.2       0 UNK         0.5000 
      3 O          -1.9607  -13.4387  -42.2350 O.2       0 UNK        -0.5000 
      4 N          -3.2417  -13.3136  -44.1011 N.am      1 UNK        -0.5000 
      5 CA         -2.1995  -13.3489  -45.1353 C.3       1 UNK         0.1400 
      6 C6         -1.4016  -14.6810  -45.1950 C.3       23 UNK        -0.0398 
      7 S7         -2.4718  -16.1048  -45.5833 S.3       23 UNK        -0.2404 
      8 C8         -2.5322  -16.0004  -47.4077 C.3       23 UNK        -0.0205 
      9 C9         -1.3591  -16.6162  -48.1741 C.ar      23 UNK        -0.0193 
     10 C10        -1.3392  -16.4653  -49.5636 C.ar      23 UNK        -0.1150 
     11 C11        -0.3188  -17.0276  -50.3343 C.ar      23 UNK        -0.0193 
     12 C12         0.7018  -17.7422  -49.7051 C.ar      23 UNK        -0.1150 
     13 C13         0.6906  -17.9225  -48.3217 C.ar      23 UNK        -0.0193 
     14 C14        -0.3341  -17.3493  -47.5605 C.ar      23 UNK        -0.1150 
     15 C15         1.7769  -18.7596  -47.6617 C.3       23 UNK        -0.0205 
     16 S16         1.5708  -20.5439  -47.9876 S.3       23 UNK        -0.2404 
     17 C17        -0.1617  -20.8162  -47.4895 C.3       23 UNK        -0.0398 
     18 CA         -0.4665  -22.2807  -47.1026 C.3       11 UNK         0.1400 
     19 N           0.2861  -22.7259  -45.9235 N.am      11 UNK        -0.5000 
     20 C           0.2918  -23.9815  -45.4519 C.2       10 UNK         0.5000 
     21 O          -0.3104  -24.9147  -45.9805 O.2       10 UNK        -0.5000 
     22 CA          1.0469  -24.2271  -44.1366 C.3       10 UNK         0.1400 
     23 CB          2.5552  -24.3743  -44.3848 C.3       10 UNK        -0.1800 
     24 N           0.7969  -23.1620  -43.1661 N.am      10 UNK        -0.5000 
     25 C          -0.3642  -22.9955  -42.5168 C.2       9 UNK         0.5000 
     26 O          -1.3352  -23.7380  -42.6553 O.2       9 UNK        -0.5000 
     27 CA         -0.4763  -21.7726  -41.5876 C.3       9 UNK         0.1400 
     28 CB          0.1205  -22.0844  -40.2073 C.3       9 UNK        -0.1800 
     29 N           0.1680  -20.5798  -42.1372 N.am      9 UNK        -0.5000 
     30 C          -0.2299  -19.9545  -43.2535 C.2       8 UNK         0.5000 
     31 O          -1.2017  -20.3013  -43.9241 O.2       8 UNK        -0.5000 
     32 CA          0.6393  -18.7802  -43.7354 C.3       8 UNK         0.1400 
     33 CB          0.2077  -17.4719  -43.0592 C.3       8 UNK        -0.1800 
     34 N           2.0838  -18.9753  -43.5599 N.am      8 UNK        -0.5000 
     35 C           2.7892  -20.0158  -44.0322 C.2       7 UNK         0.5000 
     36 O           2.2738  -20.9651  -44.6235 O.2       7 UNK        -0.5000 
     37 CA          4.3125  -20.0083  -43.7753 C.3       7 UNK         0.1400 
     38 CB          5.0841  -20.9330  -44.7403 C.3       7 UNK        -0.1800 
     39 N           4.9041  -18.6649  -43.7604 N.am      7 UNK        -0.5000 
     40 C           4.9350  -17.7880  -44.7737 C.2       6 UNK         0.5000 
     41 O           4.4568  -17.9936  -45.8904 O.2       6 UNK        -0.5000 
     42 CA          5.6287  -16.4457  -44.4860 C.3       6 UNK         0.1400 
     43 CB          6.9585  -16.3419  -45.2482 C.3       6 UNK        -0.1800 
     44 N           4.7752  -15.3223  -44.8592 N.am      6 UNK        -0.5000 
     45 C           3.6149  -15.0050  -44.2769 C.2       5 UNK         0.5000 
     46 O           3.1633  -15.6083  -43.3023 O.2       5 UNK        -0.5000 
     47 CA          2.8236  -13.8183  -44.8622 C.3       5 UNK         0.1400 
     48 CB          3.3472  -12.4811  -44.3064 C.3       5 UNK        -0.1800 
     49 N           2.7232  -13.7716  -46.3281 N.am      5 UNK        -0.5000 
     50 C           3.6791  -13.6258  -47.2554 C.2       4 UNK         0.5000 
     51 O           4.8813  -13.5412  -47.0014 O.2       4 UNK        -0.5000 
     52 CA          3.2162  -13.5426  -48.7232 C.3       4 UNK         0.1400 
     53 CB          2.6643  -14.8928  -49.2207 C.3       4 UNK        -0.1800 
     54 N           2.2847  -12.4365  -48.9873 N.am      4 UNK        -0.5000 
     55 C           1.0284  -12.2835  -48.5484 C.2       3 UNK         0.5000 
     56 O           0.4254  -13.1157  -47.8660 O.2       3 UNK        -0.5000 
     57 CA          0.3155  -10.9831  -48.9556 C.3       3 UNK         0.1400 
     58 CB         -0.5584  -11.2185  -50.1971 C.3       3 UNK        -0.1800 
     59 N          -0.5322  -10.5319  -47.8563 N.am      3 UNK        -0.5000 
     60 C          -0.1104   -9.8030  -46.8140 C.2       2 UNK         0.5000 
     61 O           0.9910   -9.2549  -46.7586 O.2       2 UNK        -0.5000 
     62 CA         -1.0755   -9.7090  -45.6134 C.3       2 UNK         0.1400 
     63 CB         -2.0488   -8.5331  -45.7860 C.3       2 UNK        -0.1800 
     64 N          -1.8366  -10.9479  -45.4211 N.am      2 UNK        -0.5000 
     65 C          -1.2832  -12.1126  -45.0525 C.2       1 UNK         0.5000 
     66 O          -0.1173  -12.2202  -44.6728 O.2       1 UNK        -0.5000 
     67 C          -1.9880  -22.4750  -46.9288 C.2       11 UNK         0.5000 
     68 O          -2.6624  -22.8570  -47.8875 O.2       11 UNK        -0.5000 
     69 N          -2.4955  -22.2275  -45.7131 N.am      12 UNK        -0.5000 
     70 CA         -3.8812  -22.4774  -45.3262 C.3       12 UNK         0.1400 
     71 CB         -4.1862  -21.7627  -44.0015 C.3       12 UNK        -0.1800 
     72 C          -4.1976  -23.9800  -45.2295 C.2       12 UNK         0.5000 
     73 O          -5.2059  -24.4149  -45.7846 O.2       12 UNK        -0.5000 
     74 N          -3.3278  -24.7514  -44.5589 N.am      13 UNK        -0.5000 
     75 CA         -3.4709  -26.1996  -44.3680 C.3       13 UNK         0.1400 
     76 CB         -2.3957  -26.7043  -43.3944 C.3       13 UNK        -0.1800 
     77 C          -3.4248  -27.0005  -45.6822 C.2       13 UNK         0.5000 
     78 O          -4.1887  -27.9532  -45.8414 O.2       13 UNK        -0.5000 
     79 N          -2.5577  -26.5793  -46.6121 N.am      14 UNK        -0.5000 
     80 CA         -2.4524  -27.1259  -47.9667 C.3       14 UNK         0.1400 
     81 CB         -1.1008  -26.7009  -48.5636 C.3       14 UNK        -0.1800 
     82 C          -3.6012  -26.6826  -48.8958 C.2       14 UNK         0.5000 
     83 O          -3.7327  -27.2346  -49.9883 O.2       14 UNK        -0.5000 
     84 N          -4.3767  -25.6740  -48.4676 N.am      15 UNK        -0.5000 
     85 CA         -5.4478  -24.9803  -49.1914 C.3       15 UNK         0.1400 
     86 CB         -6.5971  -25.9408  -49.5577 C.3       15 UNK        -0.1800 
     87 C          -4.9508  -24.1666  -50.4038 C.2       15 UNK         0.5000 
     88 O          -5.7662  -23.7184  -51.2098 O.2       15 UNK        -0.5000 
     89 N          -3.6333  -23.9400  -50.4943 N.am      16 UNK        -0.5000 
     90 CA         -2.9831  -23.1572  -51.5426 C.3       16 UNK         0.1400 
     91 CB         -1.4613  -23.3373  -51.4466 C.3       16 UNK        -0.1800 
     92 C          -3.3629  -21.6708  -51.4723 C.2       16 UNK         0.5000 
     93 O          -3.5548  -21.0480  -52.5163 O.2       16 UNK        -0.5000 
     94 N          -3.5094  -21.1523  -50.2447 N.am      17 UNK        -0.5000 
     95 CA         -4.0075  -19.8050  -49.9683 C.3       17 UNK         0.1400 
     96 CB         -3.8047  -19.4839  -48.4792 C.3       17 UNK        -0.1800 
     97 C          -5.4900  -19.6340  -50.3484 C.2       17 UNK         0.5000 
     98 O          -5.8698  -18.5834  -50.8644 O.2       17 UNK        -0.5000 
     99 N          -6.2961  -20.6723  -50.0855 N.am      18 UNK        -0.5000 
    100 CA        -7.7353  -20.6972  -50.3476 C.3       18 UNK         0.1400 
    101 CB        -8.3795  -21.8411  -49.5483 C.3       18 UNK        -0.1800 
    102 C         -8.0536  -20.8263  -51.8468 C.2       18 UNK         0.5000 
    103 O         -8.9251  -20.1162  -52.3494 O.2       18 UNK        -0.5000 
    104 N         -7.3280  -21.7171  -52.5351 N.am      19 UNK        -0.5000 
    105 CA        -7.4500  -21.9573  -53.9738 C.3       19 UNK         0.1400 
    106 CB        -6.8280  -23.3263  -54.2942 C.3       19 UNK        -0.1800 
    107 C         -6.7883  -20.8647  -54.8359 C.2       19 UNK         0.5000 
    108 O         -7.0640  -20.8013  -56.0343 O.2       19 UNK        -0.5000 
    109 N         -5.9012  -20.0636  -54.2249 N.am      20 UNK        -0.5000 
    110 CA        -4.9943  -19.0923  -54.8503 C.3       20 UNK         0.1400 
    111 CB        -5.7715  -17.9527  -55.5405 C.3       20 UNK        -0.1800 
    112 C         -3.9524  -19.7657  -55.7720 C.2       20 UNK         0.5000 
    113 O         -3.4511  -19.1448  -56.7106 O.2       20 UNK        -0.5000 
    114 N         -3.6277  -21.0283  -55.4633 N.am      21 UNK        -0.5000 
    115 CA        -2.6114  -21.8422  -56.1301 C.3       21 UNK         0.1400 
    116 CB        -2.9401  -23.3247  -55.8944 C.3       21 UNK        -0.1800 
    117 C         -1.1864  -21.5138  -55.6428 C.2       21 UNK         0.5000 
    118 O         -0.2170  -21.9599  -56.2570 O.2       21 UNK        -0.5000 
    119 N         -1.0875  -20.7425  -54.5532 N.am      22 UNK        -0.5000 
    120 CA         0.1506  -20.2269  -53.9552 C.3       22 UNK         0.1400 
    121 C          0.9850  -19.2546  -54.8451 C.2       22 UNK         0.5000 
    122 N          0.4427  -18.7030  -55.9245 N.am      22 UNK        -0.7600 
    123 O          2.1502  -19.0033  -54.5504 O.2       22 UNK        -0.5000 
    124 C124       -0.1354  -19.6149  -52.5612 C.3       23 UNK        -0.0398 
    125 S125       -1.3166  -18.2152  -52.6111 S.3       23 UNK        -0.2404 
    126 C126       -0.3403  -16.8834  -51.8467 C.3       23 UNK        -0.0205 
    127 H127       -5.2227  -13.2245  -42.5134 H         1 UNK         0.0600 
    128 H128       -4.2784  -12.4253  -41.2537 H         1 UNK         0.0600 
    129 H129       -4.3888  -14.1883  -41.2917 H         1 UNK         0.0600 
    130 H130       -4.1857  -13.2467  -44.4545 H         1 UNK         0.3000 
    131 H131       -2.7266  -13.2530  -46.0852 H         1 UNK         0.0600 
    132 H132       -0.6139  -14.6312  -45.9481 H         1 UNK         0.0800 
    133 H133       -0.8982  -14.8711  -44.2469 H         1 UNK         0.0800 
    134 H134       -2.6337  -14.9556  -47.7026 H         1 UNK         0.0800 
    135 H135       -3.4477  -16.4903  -47.7360 H         1 UNK         0.0800 
    136 H136       -2.1333  -15.9191  -50.0532 H         1 UNK         0.1150 
    137 H137        1.4989  -18.1791  -50.2882 H         1 UNK         0.1150 
    138 H138       -0.3365  -17.4925  -46.4927 H         1 UNK         0.1150 
    139 H139        1.8057  -18.5854  -46.5877 H         1 UNK         0.0800 
    140 H140        2.7512  -18.4449  -48.0382 H         1 UNK         0.0800 
    141 H141       -0.7775  -20.5116  -48.3371 H         1 UNK         0.0800 
    142 H142       -0.4108  -20.1480  -46.6638 H         1 UNK         0.0800 
    143 H143       -0.1628  -22.9182  -47.9356 H         1 UNK         0.0600 
    144 H144        0.8545  -22.0270  -45.4527 H         1 UNK         0.3000 
    145 H145        0.6865  -25.1660  -43.7114 H         1 UNK         0.0600 
    146 H146        2.7579  -25.2305  -45.0292 H         1 UNK         0.0600 
    147 H147        3.0974  -24.5327  -43.4526 H         1 UNK         0.0600 
    148 H148        2.9736  -23.4957  -44.8742 H         1 UNK         0.0600 
    149 H149        1.5129  -22.4549  -43.0776 H         1 UNK         0.3000 
    150 H150       -1.5380  -21.5518  -41.4583 H         1 UNK         0.0600 
    151 H151        1.1907  -22.2866  -40.2660 H         1 UNK         0.0600 
    152 H152       -0.3556  -22.9611  -39.7660 H         1 UNK         0.0600 
    153 H153       -0.0275  -21.2538  -39.5169 H         1 UNK         0.0600 
    154 H154        0.9830  -20.2327  -41.6536 H         1 UNK         0.3000 
    155 H155        0.4535  -18.6823  -44.8024 H         1 UNK         0.0600 
    156 H156        0.6882  -16.6133  -43.5266 H         1 UNK         0.0600 
    157 H157        0.4593  -17.4631  -41.9982 H         1 UNK         0.0600 
    158 H158       -0.8696  -17.3223  -43.1433 H         1 UNK         0.0600 
    159 H159        2.5853  -18.2245  -43.1055 H         1 UNK         0.3000 
    160 H160        4.4453  -20.4068  -42.7686 H         1 UNK         0.0600 
    161 H161        4.9069  -20.6678  -45.7833 H         1 UNK         0.0600 
    162 H162        4.7812  -21.9720  -44.6125 H         1 UNK         0.0600 
    163 H163        6.1579  -20.8872  -44.5592 H         1 UNK         0.0600 
    164 H164        5.3168  -18.3875  -42.8804 H         1 UNK         0.3000 
    165 H165        5.8385  -16.3693  -43.4171 H         1 UNK         0.0600 
    166 H166        7.6260  -17.1625  -44.9825 H         1 UNK         0.0600 
    167 H167        6.8063  -16.3774  -46.3279 H         1 UNK         0.0600 
    168 H168        7.4760  -15.4115  -45.0137 H         1 UNK         0.0600 
    169 H169        5.0528  -14.7761  -45.6707 H         1 UNK         0.3000 
    170 H170        1.8003  -13.9430  -44.5080 H         1 UNK         0.0600 
    171 H171        2.7270  -11.6489  -44.6405 H         1 UNK         0.0600 
    172 H172        4.3728  -12.2828  -44.6185 H         1 UNK         0.0600 
    173 H173        3.3308  -12.4803  -43.2159 H         1 UNK         0.0600 
    174 H174        1.7719  -13.7839  -46.6876 H         1 UNK         0.3000 
    175 H175        4.1049  -13.3238  -49.3175 H         1 UNK         0.0600 
    176 H176        1.7737  -15.1989  -48.6723 H         1 UNK         0.0600 
    177 H177        3.4041  -15.6848  -49.0990 H         1 UNK         0.0600 
    178 H178        2.4043  -14.8489  -50.2782 H         1 UNK         0.0600 
    179 H179        2.6816  -11.6817  -49.5295 H         1 UNK         0.3000 
    180 H180        1.0569  -10.2155  -49.1877 H         1 UNK         0.0600 
    181 H181       -1.3096  -11.9899  -50.0218 H         1 UNK         0.0600 
    182 H182        0.0478  -11.5384  -51.0455 H         1 UNK         0.0600 
    183 H183       -1.0766  -10.3062  -50.4932 H         1 UNK         0.0600 
    184 H184       -1.4332  -10.9794  -47.7853 H         1 UNK         0.3000 
    185 H185       -0.4778   -9.5302  -44.7170 H         1 UNK         0.0600 
    186 H186       -1.5070   -7.5946  -45.9106 H         1 UNK         0.0600 
    187 H187       -2.6876   -8.6618  -46.6606 H         1 UNK         0.0600 
    188 H188       -2.6920   -8.4223  -44.9128 H         1 UNK         0.0600 
    189 H189       -2.8142  -10.9242  -45.6731 H         1 UNK         0.3000 
    190 H190       -1.8905  -21.8342  -44.9989 H         1 UNK         0.3000 
    191 H191       -4.5302  -22.0506  -46.0937 H         1 UNK         0.0600 
    192 H192       -4.0431  -20.6859  -44.0952 H         1 UNK         0.0600 
    193 H193       -5.2201  -21.9285  -43.6963 H         1 UNK         0.0600 
    194 H194       -3.5435  -22.1145  -43.1941 H         1 UNK         0.0600 
    195 H195       -2.5372  -24.3147  -44.0939 H         1 UNK         0.3000 
    196 H196       -4.4473  -26.3758  -43.9121 H         1 UNK         0.0600 
    197 H197       -2.4857  -27.7794  -43.2338 H         1 UNK         0.0600 
    198 H198       -2.4884  -26.2231  -42.4208 H         1 UNK         0.0600 
    199 H199       -1.3911  -26.5109  -43.7711 H         1 UNK         0.0600 
    200 H200       -1.9087  -25.8319  -46.3747 H         1 UNK         0.3000 
    201 H201       -2.4761  -28.2159  -47.9076 H         1 UNK         0.0600 
    202 H202       -0.9612  -27.1188  -49.5614 H         1 UNK         0.0600 
    203 H203       -0.2713  -27.0489  -47.9477 H         1 UNK         0.0600 
    204 H204       -1.0224  -25.6159  -48.6473 H         1 UNK         0.0600 
    205 H205       -4.1917  -25.3070  -47.5423 H         1 UNK         0.3000 
    206 H206       -5.8491  -24.2465  -48.4914 H         1 UNK         0.0600 
    207 H207       -6.9347  -26.5011  -48.6857 H         1 UNK         0.0600 
    208 H208       -7.4575  -25.3922  -49.9423 H         1 UNK         0.0600 
    209 H209       -6.3012  -26.6566  -50.3248 H         1 UNK         0.0600 
    210 H210       -3.0484  -24.2639  -49.7370 H         1 UNK         0.3000 
    211 H211       -3.3188  -23.5445  -52.5059 H         1 UNK         0.0600 
    212 H212       -1.1843  -24.3894  -51.5163 H         1 UNK         0.0600 
    213 H213       -0.9555  -22.8159  -52.2601 H         1 UNK         0.0600 
    214 H214       -1.0663  -22.9482  -50.5071 H         1 UNK         0.0600 
    215 H215       -3.3185  -21.7488  -49.4461 H         1 UNK         0.3000 
    216 H216       -3.4280  -19.0911  -50.5572 H         1 UNK         0.0600 
    217 H217       -4.2035  -20.2691  -47.8367 H         1 UNK         0.0600 
    218 H218       -4.3101  -18.5580  -48.2060 H         1 UNK         0.0600 
    219 H219       -2.7503  -19.3545  -48.2417 H         1 UNK         0.0600 
    220 H220       -5.8908  -21.5082  -49.6941 H         1 UNK         0.3000 
    221 H221       -8.1639  -19.7566  -49.9948 H         1 UNK         0.0600 
    222 H222       -7.9908  -22.8151  -49.8464 H         1 UNK         0.0600 
    223 H223       -8.2038  -21.7230  -48.4789 H         1 UNK         0.0600 
    224 H224       -9.4595  -21.8604  -49.6994 H         1 UNK         0.0600 
    225 H225       -6.6716  -22.3114  -52.0333 H         1 UNK         0.3000 
    226 H226       -8.5095  -21.9909  -54.2358 H         1 UNK         0.0600 
    227 H227       -7.3176  -24.1226  -53.7332 H         1 UNK         0.0600 
    228 H228       -6.9278  -23.5661  -55.3536 H         1 UNK         0.0600 
    229 H229       -5.7651  -23.3516  -54.0500 H         1 UNK         0.0600 
    230 H230       -5.7377  -20.2248  -53.2401 H         1 UNK         0.3000 
    231 H231       -4.4248  -18.6496  -54.0314 H         1 UNK         0.0600 
    232 H232       -6.2969  -18.2977  -56.4311 H         1 UNK         0.0600 
    233 H233       -5.0965  -17.1544  -55.8508 H         1 UNK         0.0600 
    234 H234       -6.5054  -17.5120  -54.8657 H         1 UNK         0.0600 
    235 H235       -4.0312  -21.4124  -54.6186 H         1 UNK         0.3000 
    236 H236       -2.6490  -21.6465  -57.2037 H         1 UNK         0.0600 
    237 H237       -2.8896  -23.5856  -54.8375 H         1 UNK         0.0600 
    238 H238       -3.9399  -23.5694  -56.2537 H         1 UNK         0.0600 
    239 H239       -2.2381  -23.9694  -56.4246 H         1 UNK         0.0600 
    240 H240       -1.9432  -20.4427  -54.1044 H         1 UNK         0.3000 
    241 H241        0.7935  -21.0945  -53.7965 H         1 UNK         0.0600 
    242 H242       -0.5163  -18.8921  -56.1699 H         1 UNK         0.3800 
    243 H243        0.9933  -18.0799  -56.4937 H         1 UNK         0.3800 
    244 H244       -0.5503  -20.3748  -51.8988 H         1 UNK         0.0800 
    245 H245        0.8009  -19.3092  -52.0964 H         1 UNK         0.0800 
    246 H246        0.6729  -16.8782  -52.2518 H         1 UNK         0.0800 
    247 H247       -0.7809  -15.9230  -52.1181 H         1 UNK         0.0800 
@<TRIPOS>BOND
     1    1    2 1    
     2    1  127 1    
     3    1  128 1    
     4    1  129 1    
     5    2    3 2    
     6    2    4 am   BACKBONE|DICT|INTERRES
     7    4    5 1    
     8    4  130 1    
     9    5    6 1    
    10    5   65 1    
    11    5  131 1    
    12    6    7 1    
    13    6  132 1    
    14    6  133 1    
    15    7    8 1    
    16    8    9 1    
    17    8  134 1    
    18    8  135 1    
    19    9   10 ar   
    20    9   14 ar   
    21   10   11 ar   
    22   10  136 1    
    23   11   12 ar   
    24   11  126 1    
    25   12   13 ar   
    26   12  137 1    
    27   13   14 ar   
    28   13   15 1    
    29   14  138 1    
    30   15   16 1    
    31   15  139 1    
    32   15  140 1    
    33   16   17 1    
    34   17   18 1    
    35   17  141 1    
    36   17  142 1    
    37   18   19 1    
    38   18   67 1    
    39   18  143 1    
    40   19   20 am   BACKBONE|DICT|INTERRES
    41   19  144 1    
    42   20   21 2    
    43   20   22 1    
    44   22   23 1    
    45   22   24 1    
    46   22  145 1    
    47   23  146 1    
    48   23  147 1    
    49   23  148 1    
    50   24   25 am   BACKBONE|DICT|INTERRES
    51   24  149 1    
    52   25   26 2    
    53   25   27 1    
    54   27   28 1    
    55   27   29 1    
    56   27  150 1    
    57   28  151 1    
    58   28  152 1    
    59   28  153 1    
    60   29   30 am   BACKBONE|DICT|INTERRES
    61   29  154 1    
    62   30   31 2    
    63   30   32 1    
    64   32   33 1    
    65   32   34 1    
    66   32  155 1    
    67   33  156 1    
    68   33  157 1    
    69   33  158 1    
    70   34   35 am   BACKBONE|DICT|INTERRES
    71   34  159 1    
    72   35   36 2    
    73   35   37 1    
    74   37   38 1    
    75   37   39 1    
    76   37  160 1    
    77   38  161 1    
    78   38  162 1    
    79   38  163 1    
    80   39   40 am   BACKBONE|DICT|INTERRES
    81   39  164 1    
    82   40   41 2    
    83   40   42 1    
    84   42   43 1    
    85   42   44 1    
    86   42  165 1    
    87   43  166 1    
    88   43  167 1    
    89   43  168 1    
    90   44   45 am   BACKBONE|DICT|INTERRES
    91   44  169 1    
    92   45   46 2    
    93   45   47 1    
    94   47   48 1    
    95   47   49 1    
    96   47  170 1    
    97   48  171 1    
    98   48  172 1    
    99   48  173 1    
   100   49   50 am   BACKBONE|DICT|INTERRES
   101   49  174 1    
   102   50   51 2    
   103   50   52 1    
   104   52   53 1    
   105   52   54 1    
   106   52  175 1    
   107   53  176 1    
   108   53  177 1    
   109   53  178 1    
   110   54   55 am   BACKBONE|DICT|INTERRES
   111   54  179 1    
   112   55   56 2    
   113   55   57 1    
   114   57   58 1    
   115   57   59 1    
   116   57  180 1    
   117   58  181 1    
   118   58  182 1    
   119   58  183 1    
   120   59   60 am   BACKBONE|DICT|INTERRES
   121   59  184 1    
   122   60   61 2    
   123   60   62 1    
   124   62   63 1    
   125   62   64 1    
   126   62  185 1    
   127   63  186 1    
   128   63  187 1    
   129   63  188 1    
   130   64   65 am   BACKBONE|DICT|INTERRES
   131   64  189 1    
   132   65   66 2    
   133   67   68 2    
   134   67   69 am   BACKBONE|DICT|INTERRES
   135   69   70 1    
   136   69  190 1    
   137   70   71 1    
   138   70   72 1    
   139   70  191 1    
   140   71  192 1    
   141   71  193 1    
   142   71  194 1    
   143   72   73 2    
   144   72   74 am   BACKBONE|DICT|INTERRES
   145   74   75 1    
   146   74  195 1    
   147   75   76 1    
   148   75   77 1    
   149   75  196 1    
   150   76  197 1    
   151   76  198 1    
   152   76  199 1    
   153   77   78 2    
   154   77   79 am   BACKBONE|DICT|INTERRES
   155   79   80 1    
   156   79  200 1    
   157   80   81 1    
   158   80   82 1    
   159   80  201 1    
   160   81  202 1    
   161   81  203 1    
   162   81  204 1    
   163   82   83 2    
   164   82   84 am   BACKBONE|DICT|INTERRES
   165   84   85 1    
   166   84  205 1    
   167   85   86 1    
   168   85   87 1    
   169   85  206 1    
   170   86  207 1    
   171   86  208 1    
   172   86  209 1    
   173   87   88 2    
   174   87   89 am   BACKBONE|DICT|INTERRES
   175   89   90 1    
   176   89  210 1    
   177   90   91 1    
   178   90   92 1    
   179   90  211 1    
   180   91  212 1    
   181   91  213 1    
   182   91  214 1    
   183   92   93 2    
   184   92   94 am   BACKBONE|DICT|INTERRES
   185   94   95 1    
   186   94  215 1    
   187   95   96 1    
   188   95   97 1    
   189   95  216 1    
   190   96  217 1    
   191   96  218 1    
   192   96  219 1    
   193   97   98 2    
   194   97   99 am   BACKBONE|DICT|INTERRES
   195   99  100 1    
   196   99  220 1    
   197  100  101 1    
   198  100  102 1    
   199  100  221 1    
   200  101  222 1    
   201  101  223 1    
   202  101  224 1    
   203  102  103 2    
   204  102  104 am   BACKBONE|DICT|INTERRES
   205  104  105 1    
   206  104  225 1    
   207  105  106 1    
   208  105  107 1    
   209  105  226 1    
   210  106  227 1    
   211  106  228 1    
   212  106  229 1    
   213  107  108 2    
   214  107  109 am   BACKBONE|DICT|INTERRES
   215  109  110 1    
   216  109  230 1    
   217  110  111 1    
   218  110  112 1    
   219  110  231 1    
   220  111  232 1    
   221  111  233 1    
   222  111  234 1    
   223  112  113 2    
   224  112  114 am   BACKBONE|DICT|INTERRES
   225  114  115 1    
   226  114  235 1    
   227  115  116 1    
   228  115  117 1    
   229  115  236 1    
   230  116  237 1    
   231  116  238 1    
   232  116  239 1    
   233  117  118 2    
   234  117  119 am   BACKBONE|DICT|INTERRES
   235  119  120 1    
   236  119  240 1    
   237  120  121 1    
   238  120  124 1    
   239  120  241 1    
   240  121  122 am   BACKBONE|DICT|INTERRES
   241  121  123 2    
   242  122  242 1    
   243  122  243 1    
   244  124  125 1    
   245  124  244 1    
   246  124  245 1    
   247  125  126 1    
   248  126  246 1    
   249  126  247 1    
@<TRIPOS>SUBSTRUCTURE
     1 UNK         1 GROUP             0       ****    0 ROOT    
