@<TRIPOS>MOLECULE
3R540
247   249    1
SMALL
USER_CHARGES


@<TRIPOS>ATOM
      1 CA          6.2332  -11.2427  -50.7894 C.3       0 UNK        -0.1800 
      2 C           5.8974  -12.6788  -50.4117 C.2       0 UNK         0.5000 
      3 O           6.7241  -13.3628  -49.8069 O.2       0 UNK        -0.5000 
      4 N           4.6942  -13.1385  -50.7743 N.am      1 UNK        -0.5000 
      5 CA          4.1591  -14.4608  -50.4369 C.3       1 UNK         0.1400 
      6 C6          3.0883  -14.9244  -51.4587 C.3       23 UNK        -0.0398 
      7 S7          1.6675  -13.7904  -51.6677 S.3       23 UNK        -0.2404 
      8 C8          0.3416  -14.6293  -50.7295 C.3       23 UNK        -0.0205 
      9 C9          0.0371  -16.0622  -51.1658 C.ar      23 UNK        -0.0193 
     10 C10         0.1183  -16.4622  -52.5051 C.ar      23 UNK        -0.1150 
     11 C11        -0.1616  -17.7807  -52.8778 C.ar      23 UNK        -0.0193 
     12 C12        -0.5535  -18.7019  -51.9010 C.ar      23 UNK        -0.1150 
     13 C13        -0.6450  -18.3158  -50.5601 C.ar      23 UNK        -0.0193 
     14 C14        -0.3462  -16.9984  -50.2013 C.ar      23 UNK        -0.1150 
     15 C15        -1.0661  -19.3102  -49.4901 C.3       23 UNK        -0.0205 
     16 S16         0.3872  -20.1087  -48.7465 S.3       23 UNK        -0.2404 
     17 C17        -0.0824  -20.2479  -46.9888 C.3       23 UNK        -0.0398 
     18 CA         -0.1939  -21.7214  -46.5305 C.3       11 UNK         0.1400 
     19 N           0.3482  -21.9295  -45.1822 N.am      11 UNK        -0.5000 
     20 C           0.5451  -23.1237  -44.6033 C.2       10 UNK         0.5000 
     21 O           0.2802  -24.1960  -45.1498 O.2       10 UNK        -0.5000 
     22 CA          1.0776  -23.1122  -43.1609 C.3       10 UNK         0.1400 
     23 CB          2.6058  -22.9586  -43.1441 C.3       10 UNK        -0.1800 
     24 N           0.4635  -22.0331  -42.3853 N.am      10 UNK        -0.5000 
     25 C          -0.7194  -22.1347  -41.7614 C.2       9 UNK         0.5000 
     26 O          -1.3614  -23.1823  -41.6867 O.2       9 UNK        -0.5000 
     27 CA         -1.3031  -20.8486  -41.1389 C.3       9 UNK         0.1400 
     28 CB         -0.8172  -20.6822  -39.6914 C.3       9 UNK        -0.1800 
     29 N          -0.9813  -19.6351  -41.8911 N.am      9 UNK        -0.5000 
     30 C          -1.3384  -19.3961  -43.1609 C.2       8 UNK         0.5000 
     31 O          -2.0501  -20.1482  -43.8236 O.2       8 UNK        -0.5000 
     32 CA         -0.7480  -18.1404  -43.8261 C.3       8 UNK         0.1400 
     33 CB         -1.6989  -16.9468  -43.6669 C.3       8 UNK        -0.1800 
     34 N           0.5769  -17.7858  -43.3163 N.am      8 UNK        -0.5000 
     35 C           1.6705  -18.5587  -43.3639 C.2       7 UNK         0.5000 
     36 O           1.6828  -19.6870  -43.8568 O.2       7 UNK        -0.5000 
     37 CA          2.9428  -17.9982  -42.7061 C.3       7 UNK         0.1400 
     38 CB          3.6935  -17.0526  -43.6550 C.3       7 UNK        -0.1800 
     39 N           2.6190  -17.2784  -41.4765 N.am      7 UNK        -0.5000 
     40 C           2.5073  -17.8491  -40.2705 C.2       6 UNK         0.5000 
     41 O           2.7125  -19.0442  -40.0575 O.2       6 UNK        -0.5000 
     42 CA          2.0866  -16.9330  -39.1047 C.3       6 UNK         0.1400 
     43 CB          3.3241  -16.3427  -38.4120 C.3       6 UNK        -0.1800 
     44 N           1.2011  -15.8405  -39.5141 N.am      6 UNK        -0.5000 
     45 C          -0.0591  -16.0071  -39.9367 C.2       5 UNK         0.5000 
     46 O          -0.6098  -17.1047  -40.0316 O.2       5 UNK        -0.5000 
     47 CA         -0.8201  -14.7343  -40.3588 C.3       5 UNK         0.1400 
     48 CB         -1.4334  -14.0472  -39.1293 C.3       5 UNK        -0.1800 
     49 N          -0.0371  -13.7509  -41.1206 N.am      5 UNK        -0.5000 
     50 C           0.6782  -14.0047  -42.2249 C.2       4 UNK         0.5000 
     51 O           0.9242  -15.1369  -42.6392 O.2       4 UNK        -0.5000 
     52 CA          1.2405  -12.7985  -42.9940 C.3       4 UNK         0.1400 
     53 CB          2.7148  -12.5740  -42.6264 C.3       4 UNK        -0.1800 
     54 N           1.1369  -13.0129  -44.4390 N.am      4 UNK        -0.5000 
     55 C          -0.0125  -13.0460  -45.1302 C.2       3 UNK         0.5000 
     56 O          -1.1131  -12.8034  -44.6331 O.2       3 UNK        -0.5000 
     57 CA          0.0754  -13.3982  -46.6279 C.3       3 UNK         0.1400 
     58 CB          0.0620  -12.1212  -47.4824 C.3       3 UNK        -0.1800 
     59 N           1.2754  -14.1678  -46.9551 N.am      3 UNK        -0.5000 
     60 C           1.3963  -15.4949  -46.8490 C.2       2 UNK         0.5000 
     61 O           0.4728  -16.2316  -46.5020 O.2       2 UNK        -0.5000 
     62 CA          2.7792  -16.0889  -47.2087 C.3       2 UNK         0.1400 
     63 CB          2.8058  -17.6227  -47.1007 C.3       2 UNK        -0.1800 
     64 N           3.2553  -15.7335  -48.5485 N.am      2 UNK        -0.5000 
     65 C           3.6655  -14.5308  -48.9723 C.2       1 UNK         0.5000 
     66 O           3.6580  -13.5224  -48.2594 O.2       1 UNK        -0.5000 
     67 C          -1.6249  -22.2733  -46.7081 C.2       11 UNK         0.5000 
     68 O          -1.9946  -22.6453  -47.8206 O.2       11 UNK        -0.5000 
     69 N          -2.3865  -22.3720  -45.6103 N.am      12 UNK        -0.5000 
     70 CA         -3.6789  -23.0522  -45.5180 C.3       12 UNK         0.1400 
     71 CB         -4.2304  -22.8956  -44.0939 C.3       12 UNK        -0.1800 
     72 C          -3.6306  -24.5366  -45.9230 C.2       12 UNK         0.5000 
     73 O          -4.5963  -25.0316  -46.5043 O.2       12 UNK        -0.5000 
     74 N          -2.5072  -25.2059  -45.6365 N.am      13 UNK        -0.5000 
     75 CA         -2.2446  -26.5798  -46.0516 C.3       13 UNK         0.1400 
     76 CB         -1.4439  -27.2978  -44.9536 C.3       13 UNK        -0.1800 
     77 C          -1.4882  -26.6181  -47.3891 C.2       13 UNK         0.5000 
     78 O          -1.8333  -27.4234  -48.2543 O.2       13 UNK        -0.5000 
     79 N          -0.4626  -25.7653  -47.5303 N.am      14 UNK        -0.5000 
     80 CA          0.4736  -25.7966  -48.6558 C.3       14 UNK         0.1400 
     81 CB          1.7384  -25.0028  -48.2952 C.3       14 UNK        -0.1800 
     82 C          -0.1126  -25.3041  -49.9925 C.2       14 UNK         0.5000 
     83 O           0.2668  -25.8368  -51.0366 O.2       14 UNK        -0.5000 
     84 N          -1.0050  -24.3057  -49.9556 N.am      15 UNK        -0.5000 
     85 CA         -1.5802  -23.6749  -51.1455 C.3       15 UNK         0.1400 
     86 CB         -0.5972  -22.6447  -51.7354 C.3       15 UNK        -0.1800 
     87 C          -2.9713  -23.0892  -50.8518 C.2       15 UNK         0.5000 
     88 O          -3.2926  -21.9953  -51.3206 O.2       15 UNK        -0.5000 
     89 N          -3.7690  -23.8316  -50.0679 N.am      16 UNK        -0.5000 
     90 CA         -5.1952  -23.6201  -49.7795 C.3       16 UNK         0.1400 
     91 CB         -6.0247  -24.0197  -51.0163 C.3       16 UNK        -0.1800 
     92 C          -5.5689  -22.2110  -49.2630 C.2       16 UNK         0.5000 
     93 O          -6.6827  -21.7466  -49.5081 O.2       16 UNK        -0.5000 
     94 N          -4.6266  -21.5350  -48.5881 N.am      17 UNK        -0.5000 
     95 CA         -4.7157  -20.1463  -48.1139 C.3       17 UNK         0.1400 
     96 CB         -5.7495  -20.0050  -46.9744 C.3       17 UNK        -0.1800 
     97 C          -4.9570  -19.1348  -49.2580 C.2       17 UNK         0.5000 
     98 O          -5.6278  -18.1231  -49.0518 O.2       17 UNK        -0.5000 
     99 N          -4.4129  -19.4464  -50.4443 N.am      18 UNK        -0.5000 
    100 CA        -4.4892  -18.7082  -51.7085 C.3       18 UNK         0.1400 
    101 CB        -4.0874  -17.2262  -51.5355 C.3       18 UNK        -0.1800 
    102 C         -5.8321  -18.8529  -52.4535 C.2       18 UNK         0.5000 
    103 O         -5.9511  -18.3267  -53.5605 O.2       18 UNK        -0.5000 
    104 N         -6.8140  -19.5615  -51.8779 N.am      19 UNK        -0.5000 
    105 CA        -8.1217  -19.7943  -52.4881 C.3       19 UNK         0.1400 
    106 CB        -9.1250  -20.2197  -51.4048 C.3       19 UNK        -0.1800 
    107 C         -8.0135  -20.8566  -53.5939 C.2       19 UNK         0.5000 
    108 O         -7.6570  -21.9985  -53.3007 O.2       19 UNK        -0.5000 
    109 N         -8.2894  -20.4561  -54.8433 N.am      20 UNK        -0.5000 
    110 CA        -8.2744  -21.2375  -56.0930 C.3       20 UNK         0.1400 
    111 CB        -9.2883  -22.3962  -56.0385 C.3       20 UNK        -0.1800 
    112 C         -6.8847  -21.7408  -56.5416 C.2       20 UNK         0.5000 
    113 O         -6.6079  -21.7600  -57.7412 O.2       20 UNK        -0.5000 
    114 N         -6.0289  -22.1152  -55.5847 N.am      21 UNK        -0.5000 
    115 CA        -4.6406  -22.5363  -55.7791 C.3       21 UNK         0.1400 
    116 CB        -4.1782  -23.2686  -54.5112 C.3       21 UNK        -0.1800 
    117 C         -3.6833  -21.3715  -56.1091 C.2       21 UNK         0.5000 
    118 O         -2.5442  -21.6233  -56.5039 O.2       21 UNK        -0.5000 
    119 N         -4.1509  -20.1301  -55.9442 N.am      22 UNK        -0.5000 
    120 CA        -3.4446  -18.8903  -56.2773 C.3       22 UNK         0.1400 
    121 C         -4.4001  -17.8747  -56.9682 C.2       22 UNK         0.5000 
    122 N         -3.8930  -16.7237  -57.3868 N.am      22 UNK        -0.7600 
    123 O         -5.5941  -18.1155  -57.1403 O.2       22 UNK        -0.5000 
    124 C124       -2.7319  -18.3022  -55.0299 C.3       23 UNK        -0.0398 
    125 S125       -1.1956  -17.4099  -55.4394 S.3       23 UNK        -0.2404 
    126 C126        0.0059  -18.2118  -54.3297 C.3       23 UNK        -0.0205 
    127 H127        6.4362  -10.6571  -49.8927 H         1 UNK         0.0600 
    128 H128        5.4163  -10.7641  -51.3301 H         1 UNK         0.0600 
    129 H129        7.1202  -11.2182  -51.4224 H         1 UNK         0.0600 
    130 H130        4.0450  -12.5211  -51.2412 H         1 UNK         0.3000 
    131 H131        4.9837  -15.1738  -50.5064 H         1 UNK         0.0600 
    132 H132        3.5606  -15.0174  -52.4375 H         1 UNK         0.0800 
    133 H133        2.7387  -15.9307  -51.2278 H         1 UNK         0.0800 
    134 H134       -0.5723  -14.0416  -50.8225 H         1 UNK         0.0800 
    135 H135        0.6101  -14.6096  -49.6738 H         1 UNK         0.0800 
    136 H136        0.4111  -15.7518  -53.2649 H         1 UNK         0.1150 
    137 H137       -0.7752  -19.7216  -52.1802 H         1 UNK         0.1150 
    138 H138       -0.4153  -16.7035  -49.1633 H         1 UNK         0.1150 
    139 H139       -1.6532  -18.7890  -48.7336 H         1 UNK         0.0800 
    140 H140       -1.7147  -20.0783  -49.9120 H         1 UNK         0.0800 
    141 H141       -0.9930  -19.6867  -46.7755 H         1 UNK         0.0800 
    142 H142        0.7063  -19.7408  -46.4330 H         1 UNK         0.0800 
    143 H143        0.4400  -22.3230  -47.1805 H         1 UNK         0.0600 
    144 H144        0.6458  -21.1002  -44.6774 H         1 UNK         0.3000 
    145 H145        0.8334  -24.0740  -42.7047 H         1 UNK         0.0600 
    146 H146        2.9913  -22.9760  -42.1246 H         1 UNK         0.0600 
    147 H147        3.0836  -23.7755  -43.6864 H         1 UNK         0.0600 
    148 H148        2.9288  -22.0263  -43.6076 H         1 UNK         0.0600 
    149 H149        0.9112  -21.1272  -42.4415 H         1 UNK         0.3000 
    150 H150       -2.3900  -20.9523  -41.1274 H         1 UNK         0.0600 
    151 H151       -1.0608  -21.5609  -39.0928 H         1 UNK         0.0600 
    152 H152       -1.2883  -19.8227  -39.2139 H         1 UNK         0.0600 
    153 H153        0.2633  -20.5401  -39.6443 H         1 UNK         0.0600 
    154 H154       -0.4440  -18.9279  -41.4053 H         1 UNK         0.3000 
    155 H155       -0.6405  -18.3418  -44.8913 H         1 UNK         0.0600 
    156 H156       -1.8630  -16.7054  -42.6177 H         1 UNK         0.0600 
    157 H157       -2.6716  -17.1620  -44.1109 H         1 UNK         0.0600 
    158 H158       -1.3048  -16.0585  -44.1618 H         1 UNK         0.0600 
    159 H159        0.6731  -16.8405  -42.9483 H         1 UNK         0.3000 
    160 H160        3.6032  -18.8367  -42.4745 H         1 UNK         0.0600 
    161 H161        3.0537  -16.2466  -44.0163 H         1 UNK         0.0600 
    162 H162        4.0740  -17.5950  -44.5199 H         1 UNK         0.0600 
    163 H163        4.5528  -16.5994  -43.1604 H         1 UNK         0.0600 
    164 H164        2.3506  -16.3081  -41.5820 H         1 UNK         0.3000 
    165 H165        1.5510  -17.5494  -38.3793 H         1 UNK         0.0600 
    166 H166        3.0444  -15.7570  -37.5361 H         1 UNK         0.0600 
    167 H167        3.9955  -17.1326  -38.0723 H         1 UNK         0.0600 
    168 H168        3.8910  -15.6958  -39.0828 H         1 UNK         0.0600 
    169 H169        1.5787  -14.9050  -39.4795 H         1 UNK         0.3000 
    170 H170       -1.6414  -15.0501  -41.0034 H         1 UNK         0.0600 
    171 H171       -2.0383  -14.7468  -38.5506 H         1 UNK         0.0600 
    172 H172       -0.6650  -13.6500  -38.4649 H         1 UNK         0.0600 
    173 H173       -2.0846  -13.2230  -39.4208 H         1 UNK         0.0600 
    174 H174       -0.1570  -12.7880  -40.8413 H         1 UNK         0.3000 
    175 H175        0.6692  -11.9054  -42.7327 H         1 UNK         0.0600 
    176 H176        3.3291  -13.4406  -42.8758 H         1 UNK         0.0600 
    177 H177        3.1249  -11.7102  -43.1500 H         1 UNK         0.0600 
    178 H178        2.8275  -12.3886  -41.5574 H         1 UNK         0.0600 
    179 H179        1.9882  -13.2554  -44.9217 H         1 UNK         0.3000 
    180 H180       -0.8084  -13.9871  -46.8827 H         1 UNK         0.0600 
    181 H181        0.9296  -11.4921  -47.2791 H         1 UNK         0.0600 
    182 H182       -0.8303  -11.5263  -47.2831 H         1 UNK         0.0600 
    183 H183        0.0629  -12.3575  -48.5465 H         1 UNK         0.0600 
    184 H184        2.0807  -13.6508  -47.3014 H         1 UNK         0.3000 
    185 H185        3.4879  -15.6909  -46.4800 H         1 UNK         0.0600 
    186 H186        2.4013  -17.9683  -46.1506 H         1 UNK         0.0600 
    187 H187        2.2130  -18.0801  -47.8909 H         1 UNK         0.0600 
    188 H188        3.8224  -18.0078  -47.1796 H         1 UNK         0.0600 
    189 H189        3.2788  -16.5014  -49.2032 H         1 UNK         0.3000 
    190 H190       -2.0532  -21.9273  -44.7614 H         1 UNK         0.3000 
    191 H191       -4.3676  -22.5631  -46.2008 H         1 UNK         0.0600 
    192 H192       -3.5708  -23.3531  -43.3558 H         1 UNK         0.0600 
    193 H193       -5.2091  -23.3676  -43.9988 H         1 UNK         0.0600 
    194 H194       -4.3498  -21.8444  -43.8307 H         1 UNK         0.0600 
    195 H195       -1.7390  -24.7126  -45.1973 H         1 UNK         0.3000 
    196 H196       -3.1859  -27.1185  -46.1808 H         1 UNK         0.0600 
    197 H197       -1.2428  -28.3330  -45.2319 H         1 UNK         0.0600 
    198 H198       -1.9958  -27.3153  -44.0137 H         1 UNK         0.0600 
    199 H199       -0.4836  -26.8156  -44.7675 H         1 UNK         0.0600 
    200 H200       -0.2237  -25.1566  -46.7533 H         1 UNK         0.3000 
    201 H201        0.7737  -26.8370  -48.7996 H         1 UNK         0.0600 
    202 H202        2.1606  -25.3346  -47.3464 H         1 UNK         0.0600 
    203 H203        1.5401  -23.9354  -48.2218 H         1 UNK         0.0600 
    204 H204        2.5073  -25.1352  -49.0573 H         1 UNK         0.0600 
    205 H205       -1.2797  -23.8969  -49.0655 H         1 UNK         0.3000 
    206 H206       -1.7505  -24.4427  -51.9030 H         1 UNK         0.0600 
    207 H207        0.3430  -23.1132  -52.0253 H         1 UNK         0.0600 
    208 H208       -1.0076  -22.1723  -52.6287 H         1 UNK         0.0600 
    209 H209       -0.3688  -21.8593  -51.0170 H         1 UNK         0.0600 
    210 H210       -3.3794  -24.6853  -49.6940 H         1 UNK         0.3000 
    211 H211       -5.4514  -24.3097  -48.9750 H         1 UNK         0.0600 
    212 H212       -5.8368  -23.3477  -51.8536 H         1 UNK         0.0600 
    213 H213       -7.0946  -23.9895  -50.8069 H         1 UNK         0.0600 
    214 H214       -5.7888  -25.0329  -51.3414 H         1 UNK         0.0600 
    215 H215       -3.7268  -21.9903  -48.4596 H         1 UNK         0.3000 
    216 H216       -3.7368  -19.9043  -47.6983 H         1 UNK         0.0600 
    217 H217       -5.7431  -18.9942  -46.5652 H         1 UNK         0.0600 
    218 H218       -5.5365  -20.6764  -46.1453 H         1 UNK         0.0600 
    219 H219       -6.7638  -20.2083  -47.3183 H         1 UNK         0.0600 
    220 H220       -3.9541  -20.3506  -50.5282 H         1 UNK         0.3000 
    221 H221       -3.7414  -19.1779  -52.3470 H         1 UNK         0.0600 
    222 H222       -4.8544  -16.6540  -51.0140 H         1 UNK         0.0600 
    223 H223       -3.1591  -17.1258  -50.9761 H         1 UNK         0.0600 
    224 H224       -3.9366  -16.7389  -52.4975 H         1 UNK         0.0600 
    225 H225       -6.6367  -20.0297  -50.9978 H         1 UNK         0.3000 
    226 H226       -8.4776  -18.8567  -52.9207 H         1 UNK         0.0600 
    227 H227       -9.1914  -19.4740  -50.6125 H         1 UNK         0.0600 
    228 H228      -10.1237  -20.3387  -51.8265 H         1 UNK         0.0600 
    229 H229       -8.8492  -21.1704  -50.9474 H         1 UNK         0.0600 
    230 H230       -8.5111  -19.4782  -54.9720 H         1 UNK         0.3000 
    231 H231       -8.6122  -20.5479  -56.8683 H         1 UNK         0.0600 
    232 H232      -10.2867  -22.0356  -55.7911 H         1 UNK         0.0600 
    233 H233       -9.0101  -23.1486  -55.3000 H         1 UNK         0.0600 
    234 H234       -9.3546  -22.8994  -57.0039 H         1 UNK         0.0600 
    235 H235       -6.3799  -22.1127  -54.6300 H         1 UNK         0.3000 
    236 H236       -4.6043  -23.2370  -56.6155 H         1 UNK         0.0600 
    237 H237       -3.1459  -23.6091  -54.6013 H         1 UNK         0.0600 
    238 H238       -4.2358  -22.6142  -53.6427 H         1 UNK         0.0600 
    239 H239       -4.7952  -24.1449  -54.3115 H         1 UNK         0.0600 
    240 H240       -5.1157  -20.0049  -55.6695 H         1 UNK         0.3000 
    241 H241       -2.6953  -19.1350  -57.0326 H         1 UNK         0.0600 
    242 H242       -4.4958  -16.0547  -57.8401 H         1 UNK         0.3800 
    243 H243       -2.9195  -16.5010  -57.2410 H         1 UNK         0.3800 
    244 H244       -3.3940  -17.6326  -54.4830 H         1 UNK         0.0800 
    245 H245       -2.4791  -19.1033  -54.3350 H         1 UNK         0.0800 
    246 H246       -0.0681  -19.2959  -54.4308 H         1 UNK         0.0800 
    247 H247        1.0119  -17.9464  -54.6575 H         1 UNK         0.0800 
@<TRIPOS>BOND
     1    1    2 1    
     2    1  127 1    
     3    1  128 1    
     4    1  129 1    
     5    2    3 2    
     6    2    4 am   BACKBONE|DICT|INTERRES
     7    4    5 1    
     8    4  130 1    
     9    5    6 1    
    10    5   65 1    
    11    5  131 1    
    12    6    7 1    
    13    6  132 1    
    14    6  133 1    
    15    7    8 1    
    16    8    9 1    
    17    8  134 1    
    18    8  135 1    
    19    9   10 ar   
    20    9   14 ar   
    21   10   11 ar   
    22   10  136 1    
    23   11   12 ar   
    24   11  126 1    
    25   12   13 ar   
    26   12  137 1    
    27   13   14 ar   
    28   13   15 1    
    29   14  138 1    
    30   15   16 1    
    31   15  139 1    
    32   15  140 1    
    33   16   17 1    
    34   17   18 1    
    35   17  141 1    
    36   17  142 1    
    37   18   19 1    
    38   18   67 1    
    39   18  143 1    
    40   19   20 am   BACKBONE|DICT|INTERRES
    41   19  144 1    
    42   20   21 2    
    43   20   22 1    
    44   22   23 1    
    45   22   24 1    
    46   22  145 1    
    47   23  146 1    
    48   23  147 1    
    49   23  148 1    
    50   24   25 am   BACKBONE|DICT|INTERRES
    51   24  149 1    
    52   25   26 2    
    53   25   27 1    
    54   27   28 1    
    55   27   29 1    
    56   27  150 1    
    57   28  151 1    
    58   28  152 1    
    59   28  153 1    
    60   29   30 am   BACKBONE|DICT|INTERRES
    61   29  154 1    
    62   30   31 2    
    63   30   32 1    
    64   32   33 1    
    65   32   34 1    
    66   32  155 1    
    67   33  156 1    
    68   33  157 1    
    69   33  158 1    
    70   34   35 am   BACKBONE|DICT|INTERRES
    71   34  159 1    
    72   35   36 2    
    73   35   37 1    
    74   37   38 1    
    75   37   39 1    
    76   37  160 1    
    77   38  161 1    
    78   38  162 1    
    79   38  163 1    
    80   39   40 am   BACKBONE|DICT|INTERRES
    81   39  164 1    
    82   40   41 2    
    83   40   42 1    
    84   42   43 1    
    85   42   44 1    
    86   42  165 1    
    87   43  166 1    
    88   43  167 1    
    89   43  168 1    
    90   44   45 am   BACKBONE|DICT|INTERRES
    91   44  169 1    
    92   45   46 2    
    93   45   47 1    
    94   47   48 1    
    95   47   49 1    
    96   47  170 1    
    97   48  171 1    
    98   48  172 1    
    99   48  173 1    
   100   49   50 am   BACKBONE|DICT|INTERRES
   101   49  174 1    
   102   50   51 2    
   103   50   52 1    
   104   52   53 1    
   105   52   54 1    
   106   52  175 1    
   107   53  176 1    
   108   53  177 1    
   109   53  178 1    
   110   54   55 am   BACKBONE|DICT|INTERRES
   111   54  179 1    
   112   55   56 2    
   113   55   57 1    
   114   57   58 1    
   115   57   59 1    
   116   57  180 1    
   117   58  181 1    
   118   58  182 1    
   119   58  183 1    
   120   59   60 am   BACKBONE|DICT|INTERRES
   121   59  184 1    
   122   60   61 2    
   123   60   62 1    
   124   62   63 1    
   125   62   64 1    
   126   62  185 1    
   127   63  186 1    
   128   63  187 1    
   129   63  188 1    
   130   64   65 am   BACKBONE|DICT|INTERRES
   131   64  189 1    
   132   65   66 2    
   133   67   68 2    
   134   67   69 am   BACKBONE|DICT|INTERRES
   135   69   70 1    
   136   69  190 1    
   137   70   71 1    
   138   70   72 1    
   139   70  191 1    
   140   71  192 1    
   141   71  193 1    
   142   71  194 1    
   143   72   73 2    
   144   72   74 am   BACKBONE|DICT|INTERRES
   145   74   75 1    
   146   74  195 1    
   147   75   76 1    
   148   75   77 1    
   149   75  196 1    
   150   76  197 1    
   151   76  198 1    
   152   76  199 1    
   153   77   78 2    
   154   77   79 am   BACKBONE|DICT|INTERRES
   155   79   80 1    
   156   79  200 1    
   157   80   81 1    
   158   80   82 1    
   159   80  201 1    
   160   81  202 1    
   161   81  203 1    
   162   81  204 1    
   163   82   83 2    
   164   82   84 am   BACKBONE|DICT|INTERRES
   165   84   85 1    
   166   84  205 1    
   167   85   86 1    
   168   85   87 1    
   169   85  206 1    
   170   86  207 1    
   171   86  208 1    
   172   86  209 1    
   173   87   88 2    
   174   87   89 am   BACKBONE|DICT|INTERRES
   175   89   90 1    
   176   89  210 1    
   177   90   91 1    
   178   90   92 1    
   179   90  211 1    
   180   91  212 1    
   181   91  213 1    
   182   91  214 1    
   183   92   93 2    
   184   92   94 am   BACKBONE|DICT|INTERRES
   185   94   95 1    
   186   94  215 1    
   187   95   96 1    
   188   95   97 1    
   189   95  216 1    
   190   96  217 1    
   191   96  218 1    
   192   96  219 1    
   193   97   98 2    
   194   97   99 am   BACKBONE|DICT|INTERRES
   195   99  100 1    
   196   99  220 1    
   197  100  101 1    
   198  100  102 1    
   199  100  221 1    
   200  101  222 1    
   201  101  223 1    
   202  101  224 1    
   203  102  103 2    
   204  102  104 am   BACKBONE|DICT|INTERRES
   205  104  105 1    
   206  104  225 1    
   207  105  106 1    
   208  105  107 1    
   209  105  226 1    
   210  106  227 1    
   211  106  228 1    
   212  106  229 1    
   213  107  108 2    
   214  107  109 am   BACKBONE|DICT|INTERRES
   215  109  110 1    
   216  109  230 1    
   217  110  111 1    
   218  110  112 1    
   219  110  231 1    
   220  111  232 1    
   221  111  233 1    
   222  111  234 1    
   223  112  113 2    
   224  112  114 am   BACKBONE|DICT|INTERRES
   225  114  115 1    
   226  114  235 1    
   227  115  116 1    
   228  115  117 1    
   229  115  236 1    
   230  116  237 1    
   231  116  238 1    
   232  116  239 1    
   233  117  118 2    
   234  117  119 am   BACKBONE|DICT|INTERRES
   235  119  120 1    
   236  119  240 1    
   237  120  121 1    
   238  120  124 1    
   239  120  241 1    
   240  121  122 am   BACKBONE|DICT|INTERRES
   241  121  123 2    
   242  122  242 1    
   243  122  243 1    
   244  124  125 1    
   245  124  244 1    
   246  124  245 1    
   247  125  126 1    
   248  126  246 1    
   249  126  247 1    
@<TRIPOS>SUBSTRUCTURE
     1 UNK         1 GROUP             0       ****    0 ROOT    
