@<TRIPOS>MOLECULE
3R540
247   249    1
SMALL
USER_CHARGES


@<TRIPOS>ATOM
      1 CA         -3.2150  -19.0320  -41.9393 C.3       0 UNK        -0.1800 
      2 C          -4.0106  -17.7937  -42.3320 C.2       0 UNK         0.5000 
      3 O          -4.8044  -17.2917  -41.5358 O.2       0 UNK        -0.5000 
      4 N          -3.8022  -17.3101  -43.5610 N.am      1 UNK        -0.5000 
      5 CA         -4.4141  -16.0980  -44.1192 C.3       1 UNK         0.1400 
      6 C6         -4.2985  -16.0783  -45.6653 C.3       23 UNK        -0.0398 
      7 S7         -5.0066  -17.5645  -46.4480 S.3       23 UNK        -0.2404 
      8 C8         -5.1683  -17.0190  -48.1812 C.3       23 UNK        -0.0205 
      9 C9         -3.8846  -16.9488  -49.0129 C.ar      23 UNK        -0.0193 
     10 C10        -4.0189  -16.6235  -50.3642 C.ar      23 UNK        -0.1150 
     11 C11        -2.9145  -16.5592  -51.2158 C.ar      23 UNK        -0.0193 
     12 C12        -1.6388  -16.7798  -50.6813 C.ar      23 UNK        -0.1150 
     13 C13        -1.4757  -17.0936  -49.3279 C.ar      23 UNK        -0.0193 
     14 C14        -2.6020  -17.1990  -48.5053 C.ar      23 UNK        -0.1150 
     15 C15        -0.0821  -17.2686  -48.7346 C.3       23 UNK        -0.0205 
     16 S16         0.9831  -18.4254  -49.6540 S.3       23 UNK        -0.2404 
     17 C17         0.0961  -20.0199  -49.5211 C.3       23 UNK        -0.0398 
     18 CA          0.2889  -20.8134  -48.1965 C.3       11 UNK         0.1400 
     19 N           1.6256  -20.6895  -47.6175 N.am      11 UNK        -0.5000 
     20 C           2.7003  -21.3202  -48.1105 C.2       10 UNK         0.5000 
     21 O           2.6435  -22.1370  -49.0309 O.2       10 UNK        -0.5000 
     22 CA          4.0672  -21.0063  -47.4852 C.3       10 UNK         0.1400 
     23 CB          4.6475  -19.7100  -48.0714 C.3       10 UNK        -0.1800 
     24 N           3.9691  -20.8891  -46.0323 N.am      10 UNK        -0.5000 
     25 C           4.6377  -21.6546  -45.1597 C.2       9 UNK         0.5000 
     26 O           5.4590  -22.5137  -45.4837 O.2       9 UNK        -0.5000 
     27 CA          4.3335  -21.4370  -43.6664 C.3       9 UNK         0.1400 
     28 CB          5.2209  -20.3229  -43.0939 C.3       9 UNK        -0.1800 
     29 N           2.9337  -21.1071  -43.4099 N.am      9 UNK        -0.5000 
     30 C           1.8892  -21.9216  -43.5997 C.2       8 UNK         0.5000 
     31 O           1.9979  -23.0864  -43.9833 O.2       8 UNK        -0.5000 
     32 CA          0.4820  -21.3444  -43.3462 C.3       8 UNK         0.1400 
     33 CB         -0.0108  -21.6603  -41.9218 C.3       8 UNK        -0.1800 
     34 N           0.3409  -19.9166  -43.6619 N.am      8 UNK        -0.5000 
     35 C           0.8823  -18.8528  -43.0561 C.2       7 UNK         0.5000 
     36 O           1.6261  -18.9171  -42.0756 O.2       7 UNK        -0.5000 
     37 CA          0.5824  -17.4873  -43.6967 C.3       7 UNK         0.1400 
     38 CB         -0.0037  -16.5200  -42.6608 C.3       7 UNK        -0.1800 
     39 N           1.7719  -16.8810  -44.2932 N.am      7 UNK        -0.5000 
     40 C           2.5051  -17.4105  -45.2837 C.2       6 UNK         0.5000 
     41 O           2.2940  -18.5215  -45.7735 O.2       6 UNK        -0.5000 
     42 CA          3.6642  -16.5617  -45.8393 C.3       6 UNK         0.1400 
     43 CB          3.2860  -15.9649  -47.2034 C.3       6 UNK        -0.1800 
     44 N           4.0687  -15.4769  -44.9425 N.am      6 UNK        -0.5000 
     45 C           4.9009  -15.6368  -43.9035 C.2       5 UNK         0.5000 
     46 O           5.4231  -16.7128  -43.6134 O.2       5 UNK        -0.5000 
     47 CA          5.2177  -14.3987  -43.0396 C.3       5 UNK         0.1400 
     48 CB          6.5870  -13.8157  -43.4217 C.3       5 UNK        -0.1800 
     49 N           4.2158  -13.3333  -43.1127 N.am      5 UNK        -0.5000 
     50 C           2.9540  -13.4296  -42.6747 C.2       4 UNK         0.5000 
     51 O           2.4847  -14.4564  -42.1849 O.2       4 UNK        -0.5000 
     52 CA          2.0492  -12.1879  -42.8208 C.3       4 UNK         0.1400 
     53 CB          2.7863  -10.9171  -43.3017 C.3       4 UNK        -0.1800 
     54 N           0.8912  -12.4573  -43.6781 N.am      4 UNK        -0.5000 
     55 C           0.9073  -12.8943  -44.9468 C.2       3 UNK         0.5000 
     56 O           1.9423  -13.1527  -45.5638 O.2       3 UNK        -0.5000 
     57 CA         -0.4561  -13.0775  -45.6429 C.3       3 UNK         0.1400 
     58 CB         -0.5283  -14.4175  -46.3966 C.3       3 UNK        -0.1800 
     59 N          -1.5744  -13.0182  -44.6990 N.am      3 UNK        -0.5000 
     60 C          -2.5238  -12.0763  -44.6462 C.2       2 UNK         0.5000 
     61 O          -2.5241  -11.0691  -45.3558 O.2       2 UNK        -0.5000 
     62 CA         -3.6854  -12.3385  -43.6543 C.3       2 UNK         0.1400 
     63 CB         -4.7784  -11.2563  -43.7178 C.3       2 UNK        -0.1800 
     64 N          -4.3062  -13.6497  -43.8830 N.am      2 UNK        -0.5000 
     65 C          -3.7638  -14.8241  -43.5343 C.2       1 UNK         0.5000 
     66 O          -2.7323  -14.9001  -42.8633 O.2       1 UNK        -0.5000 
     67 C          -0.8055  -20.4925  -47.1691 C.2       11 UNK         0.5000 
     68 O          -0.6007  -19.6837  -46.2628 O.2       11 UNK        -0.5000 
     69 N          -1.9674  -21.1257  -47.3517 N.am      12 UNK        -0.5000 
     70 CA         -3.1954  -20.8977  -46.6066 C.3       12 UNK         0.1400 
     71 CB         -3.1395  -21.5871  -45.2325 C.3       12 UNK        -0.1800 
     72 C          -4.3591  -21.4369  -47.4467 C.2       12 UNK         0.5000 
     73 O          -4.1687  -22.3876  -48.2137 O.2       12 UNK        -0.5000 
     74 N          -5.5423  -20.8347  -47.2802 N.am      13 UNK        -0.5000 
     75 CA         -6.7777  -21.2308  -47.9602 C.3       13 UNK         0.1400 
     76 CB         -7.8481  -20.1481  -47.7576 C.3       13 UNK        -0.1800 
     77 C          -7.3009  -22.5968  -47.4874 C.2       13 UNK         0.5000 
     78 O          -7.7508  -23.3922  -48.3111 O.2       13 UNK        -0.5000 
     79 N          -7.1893  -22.8609  -46.1774 N.am      14 UNK        -0.5000 
     80 CA         -7.6062  -24.1119  -45.5351 C.3       14 UNK         0.1400 
     81 CB         -7.5361  -23.9385  -44.0103 C.3       14 UNK        -0.1800 
     82 C          -6.7746  -25.3319  -45.9774 C.2       14 UNK         0.5000 
     83 O          -7.2912  -26.4493  -45.9956 O.2       14 UNK        -0.5000 
     84 N          -5.5108  -25.0868  -46.3458 N.am      15 UNK        -0.5000 
     85 CA         -4.5887  -26.0815  -46.8927 C.3       15 UNK         0.1400 
     86 CB         -3.1540  -25.6370  -46.5601 C.3       15 UNK        -0.1800 
     87 C          -4.7460  -26.2676  -48.4157 C.2       15 UNK         0.5000 
     88 O          -4.1427  -27.1868  -48.9685 O.2       15 UNK        -0.5000 
     89 N          -5.4939  -25.3626  -49.0700 N.am      16 UNK        -0.5000 
     90 CA         -5.6512  -25.1849  -50.5218 C.3       16 UNK         0.1400 
     91 CB         -6.2614  -26.4370  -51.1826 C.3       16 UNK        -0.1800 
     92 C          -4.3638  -24.7158  -51.2369 C.2       16 UNK         0.5000 
     93 O          -4.3454  -24.6127  -52.4643 O.2       16 UNK        -0.5000 
     94 N          -3.3197  -24.3962  -50.4614 N.am      17 UNK        -0.5000 
     95 CA         -2.0139  -23.9397  -50.9303 C.3       17 UNK         0.1400 
     96 CB         -1.0006  -24.0882  -49.7879 C.3       17 UNK        -0.1800 
     97 C          -2.0423  -22.5007  -51.4730 C.2       17 UNK         0.5000 
     98 O          -1.1649  -22.1356  -52.2525 O.2       17 UNK        -0.5000 
     99 N          -3.0674  -21.7250  -51.0917 N.am      18 UNK        -0.5000 
    100 CA        -3.3901  -20.4077  -51.6449 C.3       18 UNK         0.1400 
    101 CB        -4.6765  -19.8978  -50.9800 C.3       18 UNK        -0.1800 
    102 C         -3.5548  -20.4202  -53.1761 C.2       18 UNK         0.5000 
    103 O         -3.0034  -19.5567  -53.8578 O.2       18 UNK        -0.5000 
    104 N         -4.2772  -21.4267  -53.6883 N.am      19 UNK        -0.5000 
    105 CA        -4.5126  -21.6244  -55.1184 C.3       19 UNK         0.1400 
    106 CB        -5.6111  -22.6803  -55.3124 C.3       19 UNK        -0.1800 
    107 C         -3.2344  -22.0211  -55.8772 C.2       19 UNK         0.5000 
    108 O         -3.0329  -21.5698  -57.0046 O.2       19 UNK        -0.5000 
    109 N         -2.3831  -22.8340  -55.2371 N.am      20 UNK        -0.5000 
    110 CA        -1.0862  -23.2493  -55.7702 C.3       20 UNK         0.1400 
    111 CB        -0.5389  -24.4182  -54.9361 C.3       20 UNK        -0.1800 
    112 C         -0.0766  -22.0878  -55.8210 C.2       20 UNK         0.5000 
    113 O          0.6598  -21.9671  -56.8007 O.2       20 UNK        -0.5000 
    114 N         -0.0679  -21.2559  -54.7714 N.am      21 UNK        -0.5000 
    115 CA         0.8035  -20.0923  -54.6394 C.3       21 UNK         0.1400 
    116 CB         0.8131  -19.6230  -53.1768 C.3       21 UNK        -0.1800 
    117 C          0.4128  -18.9418  -55.5810 C.2       21 UNK         0.5000 
    118 O          1.2701  -18.4471  -56.3152 O.2       21 UNK        -0.5000 
    119 N         -0.8577  -18.5236  -55.5284 N.am      22 UNK        -0.5000 
    120 CA        -1.3570  -17.3355  -56.2420 C.3       22 UNK         0.1400 
    121 C         -1.9225  -17.6292  -57.6603 C.2       22 UNK         0.5000 
    122 N         -2.1325  -18.8772  -58.0589 N.am      22 UNK        -0.7600 
    123 O         -2.1639  -16.7002  -58.4265 O.2       22 UNK        -0.5000 
    124 C124       -2.3752  -16.5317  -55.3932 C.3       23 UNK        -0.0398 
    125 S125       -1.7096  -16.0598  -53.7554 S.3       23 UNK        -0.2404 
    126 C126       -3.1801  -16.2915  -52.6981 C.3       23 UNK        -0.0205 
    127 H127       -2.6075  -18.8245  -41.0584 H         1 UNK         0.0600 
    128 H128       -2.5493  -19.3568  -42.7393 H         1 UNK         0.0600 
    129 H129       -3.8901  -19.8548  -41.7044 H         1 UNK         0.0600 
    130 H130       -3.1378  -17.7698  -44.1639 H         1 UNK         0.3000 
    131 H131       -5.4717  -16.0877  -43.8473 H         1 UNK         0.0600 
    132 H132       -4.8117  -15.2083  -46.0779 H         1 UNK         0.0800 
    133 H133       -3.2546  -15.9861  -45.9660 H         1 UNK         0.0800 
    134 H134       -5.6603  -16.0456  -48.2021 H         1 UNK         0.0800 
    135 H135       -5.8475  -17.7103  -48.6794 H         1 UNK         0.0800 
    136 H136       -5.0063  -16.4459  -50.7680 H         1 UNK         0.1150 
    137 H137       -0.7621  -16.7196  -51.3086 H         1 UNK         0.1150 
    138 H138       -2.4614  -17.4637  -47.4689 H         1 UNK         0.1150 
    139 H139        0.4076  -16.2949  -48.7358 H         1 UNK         0.0800 
    140 H140       -0.1290  -17.5757  -47.6900 H         1 UNK         0.0800 
    141 H141       -0.9580  -19.8636  -49.7506 H         1 UNK         0.0800 
    142 H142        0.4677  -20.6401  -50.3365 H         1 UNK         0.0800 
    143 H143        0.1541  -21.8701  -48.4267 H         1 UNK         0.0600 
    144 H144        1.7219  -19.9867  -46.8885 H         1 UNK         0.3000 
    145 H145        4.7382  -21.8231  -47.7586 H         1 UNK         0.0600 
    146 H146        3.9894  -18.8606  -47.8967 H         1 UNK         0.0600 
    147 H147        5.6197  -19.4788  -47.6361 H         1 UNK         0.0600 
    148 H148        4.7837  -19.7985  -49.1498 H         1 UNK         0.0600 
    149 H149        3.3146  -20.1965  -45.6834 H         1 UNK         0.3000 
    150 H150        4.5631  -22.3653  -43.1393 H         1 UNK         0.0600 
    151 H151        6.2777  -20.5450  -43.2470 H         1 UNK         0.0600 
    152 H152        5.0646  -20.2037  -42.0216 H         1 UNK         0.0600 
    153 H153        5.0135  -19.3647  -43.5710 H         1 UNK         0.0600 
    154 H154        2.7368  -20.1834  -43.0379 H         1 UNK         0.3000 
    155 H155       -0.1807  -21.8607  -44.0416 H         1 UNK         0.0600 
    156 H156       -1.0316  -21.3095  -41.7710 H         1 UNK         0.0600 
    157 H157        0.6192  -21.2014  -41.1596 H         1 UNK         0.0600 
    158 H158       -0.0070  -22.7357  -41.7405 H         1 UNK         0.0600 
    159 H159       -0.1335  -19.7408  -44.5479 H         1 UNK         0.3000 
    160 H160       -0.1542  -17.6171  -44.4922 H         1 UNK         0.0600 
    161 H161        0.6644  -16.3844  -41.8098 H         1 UNK         0.0600 
    162 H162       -0.9519  -16.8921  -42.2726 H         1 UNK         0.0600 
    163 H163       -0.1861  -15.5382  -43.0963 H         1 UNK         0.0600 
    164 H164        2.0686  -15.9998  -43.8955 H         1 UNK         0.3000 
    165 H165        4.5116  -17.2335  -45.9925 H         1 UNK         0.0600 
    166 H166        2.4593  -15.2613  -47.1194 H         1 UNK         0.0600 
    167 H167        4.1292  -15.4386  -47.6504 H         1 UNK         0.0600 
    168 H168        2.9795  -16.7408  -47.9050 H         1 UNK         0.0600 
    169 H169        3.6554  -14.5670  -45.1111 H         1 UNK         0.3000 
    170 H170        5.2689  -14.7355  -42.0021 H         1 UNK         0.0600 
    171 H171        7.3693  -14.5724  -43.3478 H         1 UNK         0.0600 
    172 H172        6.5914  -13.4383  -44.4451 H         1 UNK         0.0600 
    173 H173        6.8670  -12.9965  -42.7591 H         1 UNK         0.0600 
    174 H174        4.5127  -12.4632  -43.5298 H         1 UNK         0.3000 
    175 H175        1.6563  -11.9826  -41.8240 H         1 UNK         0.0600 
    176 H176        3.1967  -11.0307  -44.3058 H         1 UNK         0.0600 
    177 H177        2.1101  -10.0624  -43.3208 H         1 UNK         0.0600 
    178 H178        3.6062  -10.6576  -42.6307 H         1 UNK         0.0600 
    179 H179       -0.0118  -12.3050  -43.2534 H         1 UNK         0.3000 
    180 H180       -0.5399  -12.2741  -46.3772 H         1 UNK         0.0600 
    181 H181       -0.3913  -15.2682  -45.7286 H         1 UNK         0.0600 
    182 H182        0.2407  -14.4717  -47.1663 H         1 UNK         0.0600 
    183 H183       -1.4877  -14.5350  -46.9002 H         1 UNK         0.0600 
    184 H184       -1.6701  -13.8025  -44.0595 H         1 UNK         0.3000 
    185 H185       -3.2605  -12.3186  -42.6485 H         1 UNK         0.0600 
    186 H186       -4.3651  -10.2690  -43.5075 H         1 UNK         0.0600 
    187 H187       -5.2482  -11.2143  -44.7013 H         1 UNK         0.0600 
    188 H188       -5.5596  -11.4418  -42.9805 H         1 UNK         0.0600 
    189 H189       -5.1433  -13.6441  -44.4479 H         1 UNK         0.3000 
    190 H190       -2.0891  -21.7692  -48.1218 H         1 UNK         0.3000 
    191 H191       -3.3237  -19.8246  -46.4703 H         1 UNK         0.0600 
    192 H192       -4.0870  -21.4863  -44.7018 H         1 UNK         0.0600 
    193 H193       -2.3734  -21.1413  -44.5999 H         1 UNK         0.0600 
    194 H194       -2.9227  -22.6519  -45.3238 H         1 UNK         0.0600 
    195 H195       -5.6064  -20.0390  -46.6597 H         1 UNK         0.3000 
    196 H196       -6.5715  -21.3104  -49.0289 H         1 UNK         0.0600 
    197 H197       -8.7876  -20.4332  -48.2331 H         1 UNK         0.0600 
    198 H198       -7.5419  -19.2009  -48.1984 H         1 UNK         0.0600 
    199 H199       -8.0541  -19.9748  -46.7007 H         1 UNK         0.0600 
    200 H200       -6.8074  -22.1474  -45.5744 H         1 UNK         0.3000 
    201 H201       -8.6450  -24.3038  -45.8119 H         1 UNK         0.0600 
    202 H202       -8.1829  -23.1275  -43.6751 H         1 UNK         0.0600 
    203 H203       -6.5211  -23.7200  -43.6757 H         1 UNK         0.0600 
    204 H204       -7.8625  -24.8449  -43.4986 H         1 UNK         0.0600 
    205 H205       -5.1765  -24.1356  -46.3053 H         1 UNK         0.3000 
    206 H206       -4.7696  -27.0482  -46.4182 H         1 UNK         0.0600 
    207 H207       -3.0102  -25.5435  -45.4835 H         1 UNK         0.0600 
    208 H208       -2.4238  -26.3625  -46.9211 H         1 UNK         0.0600 
    209 H209       -2.9126  -24.6754  -47.0146 H         1 UNK         0.0600 
    210 H210       -5.9736  -24.6666  -48.5131 H         1 UNK         0.3000 
    211 H211       -6.3681  -24.3715  -50.6417 H         1 UNK         0.0600 
    212 H212       -5.5671  -27.2773  -51.1849 H         1 UNK         0.0600 
    213 H213       -6.5302  -26.2374  -52.2205 H         1 UNK         0.0600 
    214 H214       -7.1695  -26.7511  -50.6680 H         1 UNK         0.0600 
    215 H215       -3.4500  -24.4495  -49.4618 H         1 UNK         0.3000 
    216 H216       -1.6981  -24.5865  -51.7514 H         1 UNK         0.0600 
    217 H217       -1.3332  -23.5746  -48.8869 H         1 UNK         0.0600 
    218 H218       -0.0250  -23.6877  -50.0684 H         1 UNK         0.0600 
    219 H219       -0.8561  -25.1381  -49.5318 H         1 UNK         0.0600 
    220 H220       -3.7174  -22.1045  -50.4153 H         1 UNK         0.3000 
    221 H221       -2.5767  -19.7202  -51.4077 H         1 UNK         0.0600 
    222 H222       -5.4911  -20.6160  -51.0752 H         1 UNK         0.0600 
    223 H223       -4.5197  -19.7023  -49.9199 H         1 UNK         0.0600 
    224 H224       -5.0146  -18.9683  -51.4377 H         1 UNK         0.0600 
    225 H225       -4.6573  -22.1246  -53.0650 H         1 UNK         0.3000 
    226 H226       -4.8684  -20.6808  -55.5378 H         1 UNK         0.0600 
    227 H227       -6.5403  -22.3763  -54.8301 H         1 UNK         0.0600 
    228 H228       -5.8278  -22.8271  -56.3713 H         1 UNK         0.0600 
    229 H229       -5.3195  -23.6470  -54.9001 H         1 UNK         0.0600 
    230 H230       -2.6196  -23.1454  -54.3065 H         1 UNK         0.3000 
    231 H231       -1.2377  -23.6056  -56.7914 H         1 UNK         0.0600 
    232 H232        0.4012  -24.7836  -55.3511 H         1 UNK         0.0600 
    233 H233       -1.2364  -25.2560  -54.9241 H         1 UNK         0.0600 
    234 H234       -0.3472  -24.1258  -53.9037 H         1 UNK         0.0600 
    235 H235       -0.6650  -21.4659  -53.9764 H         1 UNK         0.3000 
    236 H236        1.8198  -20.3991  -54.8956 H         1 UNK         0.0600 
    237 H237       -0.1897  -19.3862  -52.8177 H         1 UNK         0.0600 
    238 H238        1.2292  -20.3932  -52.5282 H         1 UNK         0.0600 
    239 H239        1.4255  -18.7291  -53.0523 H         1 UNK         0.0600 
    240 H240       -1.5166  -18.9752  -54.8990 H         1 UNK         0.3000 
    241 H241       -0.5134  -16.6633  -56.4106 H         1 UNK         0.0600 
    242 H242       -1.9945  -19.6617  -57.4367 H         1 UNK         0.3800 
    243 H243       -2.4944  -19.0431  -58.9844 H         1 UNK         0.3800 
    244 H244       -2.6653  -15.6147  -55.9089 H         1 UNK         0.0800 
    245 H245       -3.2895  -17.1142  -55.2717 H         1 UNK         0.0800 
    246 H246       -3.8106  -15.4068  -52.7964 H         1 UNK         0.0800 
    247 H247       -3.7659  -17.1301  -53.0737 H         1 UNK         0.0800 
@<TRIPOS>BOND
     1    1    2 1    
     2    1  127 1    
     3    1  128 1    
     4    1  129 1    
     5    2    3 2    
     6    2    4 am   BACKBONE|DICT|INTERRES
     7    4    5 1    
     8    4  130 1    
     9    5    6 1    
    10    5   65 1    
    11    5  131 1    
    12    6    7 1    
    13    6  132 1    
    14    6  133 1    
    15    7    8 1    
    16    8    9 1    
    17    8  134 1    
    18    8  135 1    
    19    9   10 ar   
    20    9   14 ar   
    21   10   11 ar   
    22   10  136 1    
    23   11   12 ar   
    24   11  126 1    
    25   12   13 ar   
    26   12  137 1    
    27   13   14 ar   
    28   13   15 1    
    29   14  138 1    
    30   15   16 1    
    31   15  139 1    
    32   15  140 1    
    33   16   17 1    
    34   17   18 1    
    35   17  141 1    
    36   17  142 1    
    37   18   19 1    
    38   18   67 1    
    39   18  143 1    
    40   19   20 am   BACKBONE|DICT|INTERRES
    41   19  144 1    
    42   20   21 2    
    43   20   22 1    
    44   22   23 1    
    45   22   24 1    
    46   22  145 1    
    47   23  146 1    
    48   23  147 1    
    49   23  148 1    
    50   24   25 am   BACKBONE|DICT|INTERRES
    51   24  149 1    
    52   25   26 2    
    53   25   27 1    
    54   27   28 1    
    55   27   29 1    
    56   27  150 1    
    57   28  151 1    
    58   28  152 1    
    59   28  153 1    
    60   29   30 am   BACKBONE|DICT|INTERRES
    61   29  154 1    
    62   30   31 2    
    63   30   32 1    
    64   32   33 1    
    65   32   34 1    
    66   32  155 1    
    67   33  156 1    
    68   33  157 1    
    69   33  158 1    
    70   34   35 am   BACKBONE|DICT|INTERRES
    71   34  159 1    
    72   35   36 2    
    73   35   37 1    
    74   37   38 1    
    75   37   39 1    
    76   37  160 1    
    77   38  161 1    
    78   38  162 1    
    79   38  163 1    
    80   39   40 am   BACKBONE|DICT|INTERRES
    81   39  164 1    
    82   40   41 2    
    83   40   42 1    
    84   42   43 1    
    85   42   44 1    
    86   42  165 1    
    87   43  166 1    
    88   43  167 1    
    89   43  168 1    
    90   44   45 am   BACKBONE|DICT|INTERRES
    91   44  169 1    
    92   45   46 2    
    93   45   47 1    
    94   47   48 1    
    95   47   49 1    
    96   47  170 1    
    97   48  171 1    
    98   48  172 1    
    99   48  173 1    
   100   49   50 am   BACKBONE|DICT|INTERRES
   101   49  174 1    
   102   50   51 2    
   103   50   52 1    
   104   52   53 1    
   105   52   54 1    
   106   52  175 1    
   107   53  176 1    
   108   53  177 1    
   109   53  178 1    
   110   54   55 am   BACKBONE|DICT|INTERRES
   111   54  179 1    
   112   55   56 2    
   113   55   57 1    
   114   57   58 1    
   115   57   59 1    
   116   57  180 1    
   117   58  181 1    
   118   58  182 1    
   119   58  183 1    
   120   59   60 am   BACKBONE|DICT|INTERRES
   121   59  184 1    
   122   60   61 2    
   123   60   62 1    
   124   62   63 1    
   125   62   64 1    
   126   62  185 1    
   127   63  186 1    
   128   63  187 1    
   129   63  188 1    
   130   64   65 am   BACKBONE|DICT|INTERRES
   131   64  189 1    
   132   65   66 2    
   133   67   68 2    
   134   67   69 am   BACKBONE|DICT|INTERRES
   135   69   70 1    
   136   69  190 1    
   137   70   71 1    
   138   70   72 1    
   139   70  191 1    
   140   71  192 1    
   141   71  193 1    
   142   71  194 1    
   143   72   73 2    
   144   72   74 am   BACKBONE|DICT|INTERRES
   145   74   75 1    
   146   74  195 1    
   147   75   76 1    
   148   75   77 1    
   149   75  196 1    
   150   76  197 1    
   151   76  198 1    
   152   76  199 1    
   153   77   78 2    
   154   77   79 am   BACKBONE|DICT|INTERRES
   155   79   80 1    
   156   79  200 1    
   157   80   81 1    
   158   80   82 1    
   159   80  201 1    
   160   81  202 1    
   161   81  203 1    
   162   81  204 1    
   163   82   83 2    
   164   82   84 am   BACKBONE|DICT|INTERRES
   165   84   85 1    
   166   84  205 1    
   167   85   86 1    
   168   85   87 1    
   169   85  206 1    
   170   86  207 1    
   171   86  208 1    
   172   86  209 1    
   173   87   88 2    
   174   87   89 am   BACKBONE|DICT|INTERRES
   175   89   90 1    
   176   89  210 1    
   177   90   91 1    
   178   90   92 1    
   179   90  211 1    
   180   91  212 1    
   181   91  213 1    
   182   91  214 1    
   183   92   93 2    
   184   92   94 am   BACKBONE|DICT|INTERRES
   185   94   95 1    
   186   94  215 1    
   187   95   96 1    
   188   95   97 1    
   189   95  216 1    
   190   96  217 1    
   191   96  218 1    
   192   96  219 1    
   193   97   98 2    
   194   97   99 am   BACKBONE|DICT|INTERRES
   195   99  100 1    
   196   99  220 1    
   197  100  101 1    
   198  100  102 1    
   199  100  221 1    
   200  101  222 1    
   201  101  223 1    
   202  101  224 1    
   203  102  103 2    
   204  102  104 am   BACKBONE|DICT|INTERRES
   205  104  105 1    
   206  104  225 1    
   207  105  106 1    
   208  105  107 1    
   209  105  226 1    
   210  106  227 1    
   211  106  228 1    
   212  106  229 1    
   213  107  108 2    
   214  107  109 am   BACKBONE|DICT|INTERRES
   215  109  110 1    
   216  109  230 1    
   217  110  111 1    
   218  110  112 1    
   219  110  231 1    
   220  111  232 1    
   221  111  233 1    
   222  111  234 1    
   223  112  113 2    
   224  112  114 am   BACKBONE|DICT|INTERRES
   225  114  115 1    
   226  114  235 1    
   227  115  116 1    
   228  115  117 1    
   229  115  236 1    
   230  116  237 1    
   231  116  238 1    
   232  116  239 1    
   233  117  118 2    
   234  117  119 am   BACKBONE|DICT|INTERRES
   235  119  120 1    
   236  119  240 1    
   237  120  121 1    
   238  120  124 1    
   239  120  241 1    
   240  121  122 am   BACKBONE|DICT|INTERRES
   241  121  123 2    
   242  122  242 1    
   243  122  243 1    
   244  124  125 1    
   245  124  244 1    
   246  124  245 1    
   247  125  126 1    
   248  126  246 1    
   249  126  247 1    
@<TRIPOS>SUBSTRUCTURE
     1 UNK         1 GROUP             0       ****    0 ROOT    
