@<TRIPOS>MOLECULE
3R540
247   249    1
SMALL
USER_CHARGES


@<TRIPOS>ATOM
      1 CA         -2.2790  -12.2639  -44.6676 C.3       0 UNK        -0.1800 
      2 C          -1.3048  -11.8987  -45.7786 C.2       0 UNK         0.5000 
      3 O          -1.5933  -11.0029  -46.5727 O.2       0 UNK        -0.5000 
      4 N          -0.1586  -12.5884  -45.8432 N.am      1 UNK        -0.5000 
      5 CA          0.9225  -12.3001  -46.7881 C.3       1 UNK         0.1400 
      6 C6          1.8325  -13.5383  -47.0044 C.3       23 UNK        -0.0398 
      7 S7          2.6204  -13.5430  -48.6488 S.3       23 UNK        -0.2404 
      8 C8          2.7527  -15.3330  -48.9793 C.3       23 UNK        -0.0205 
      9 C9          1.4752  -16.0382  -49.4427 C.ar      23 UNK        -0.0193 
     10 C10         0.1998  -15.4595  -49.3647 C.ar      23 UNK        -0.1150 
     11 C11        -0.9287  -16.1626  -49.7929 C.ar      23 UNK        -0.0193 
     12 C12        -0.7791  -17.4450  -50.3228 C.ar      23 UNK        -0.1150 
     13 C13         0.4816  -18.0411  -50.4103 C.ar      23 UNK        -0.0193 
     14 C14         1.5985  -17.3311  -49.9621 C.ar      23 UNK        -0.1150 
     15 C15         0.6595  -19.4391  -51.0006 C.3       23 UNK        -0.0205 
     16 S16        -0.5903  -20.6474  -50.4464 S.3       23 UNK        -0.2404 
     17 C17        -0.4664  -20.4906  -48.6353 C.3       23 UNK        -0.0398 
     18 CA         -0.7182  -21.8085  -47.8666 C.3       11 UNK         0.1400 
     19 N          -0.2946  -21.6814  -46.4692 N.am      11 UNK        -0.5000 
     20 C          -0.2781  -22.6735  -45.5682 C.2       10 UNK         0.5000 
     21 O          -0.5687  -23.8408  -45.8254 O.2       10 UNK        -0.5000 
     22 CA          0.0756  -22.2834  -44.1223 C.3       10 UNK         0.1400 
     23 CB          1.5963  -22.1584  -43.9482 C.3       10 UNK        -0.1800 
     24 N          -0.5750  -21.0408  -43.7023 N.am      10 UNK        -0.5000 
     25 C          -1.9019  -20.8777  -43.5963 C.2       9 UNK         0.5000 
     26 O          -2.7166  -21.7782  -43.7907 O.2       9 UNK        -0.5000 
     27 CA         -2.4112  -19.4616  -43.2722 C.3       9 UNK         0.1400 
     28 CB         -2.2903  -19.1653  -41.7709 C.3       9 UNK        -0.1800 
     29 N          -1.7224  -18.4256  -44.0433 N.am      9 UNK        -0.5000 
     30 C          -1.7619  -18.3272  -45.3804 C.2       8 UNK         0.5000 
     31 O          -2.4161  -19.0788  -46.1023 O.2       8 UNK        -0.5000 
     32 CA         -0.8905  -17.2355  -46.0241 C.3       8 UNK         0.1400 
     33 CB         -1.6114  -15.8821  -46.0002 C.3       8 UNK        -0.1800 
     34 N           0.4139  -17.1172  -45.3723 N.am      8 UNK        -0.5000 
     35 C           1.3658  -18.0595  -45.4316 C.2       7 UNK         0.5000 
     36 O           1.2611  -19.1008  -46.0803 O.2       7 UNK        -0.5000 
     37 CA          2.6158  -17.8228  -44.5670 C.3       7 UNK         0.1400 
     38 CB          3.5840  -16.8437  -45.2484 C.3       7 UNK        -0.1800 
     39 N           2.2702  -17.3290  -43.2328 N.am      7 UNK        -0.5000 
     40 C           1.6467  -18.0657  -42.3006 C.2       6 UNK         0.5000 
     41 O           1.3137  -19.2371  -42.4710 O.2       6 UNK        -0.5000 
     42 CA          1.3089  -17.3797  -40.9638 C.3       6 UNK         0.1400 
     43 CB          2.4622  -17.5606  -39.9658 C.3       6 UNK        -0.1800 
     44 N           1.0113  -15.9546  -41.0952 N.am      6 UNK        -0.5000 
     45 C           0.0055  -15.4284  -41.8091 C.2       5 UNK         0.5000 
     46 O          -0.8143  -16.0967  -42.4394 O.2       5 UNK        -0.5000 
     47 CA         -0.0398  -13.8893  -41.8803 C.3       5 UNK         0.1400 
     48 CB         -0.8870  -13.3131  -40.7375 C.3       5 UNK        -0.1800 
     49 N           1.2989  -13.2894  -41.8543 N.am      5 UNK        -0.5000 
     50 C           2.2055  -13.4657  -42.8233 C.2       4 UNK         0.5000 
     51 O           1.9659  -14.0753  -43.8697 O.2       4 UNK        -0.5000 
     52 CA          3.6277  -12.9647  -42.5409 C.3       4 UNK         0.1400 
     53 CB          4.3804  -14.0194  -41.7024 C.3       4 UNK        -0.1800 
     54 N           4.2966  -12.7402  -43.8182 N.am      4 UNK        -0.5000 
     55 C           5.5168  -12.2243  -44.0100 C.2       3 UNK         0.5000 
     56 O           6.2649  -11.8583  -43.1028 O.2       3 UNK        -0.5000 
     57 CA          5.9632  -12.0671  -45.4759 C.3       3 UNK         0.1400 
     58 CB          6.2060  -13.4383  -46.1293 C.3       3 UNK        -0.1800 
     59 N           4.9844  -11.3218  -46.2664 N.am      3 UNK        -0.5000 
     60 C           4.6997  -10.0193  -46.1109 C.2       2 UNK         0.5000 
     61 O           5.3111   -9.2687  -45.3499 O.2       2 UNK        -0.5000 
     62 CA          3.5169   -9.4658  -46.9333 C.3       2 UNK         0.1400 
     63 CB          4.0144   -8.8537  -48.2515 C.3       2 UNK        -0.1800 
     64 N           2.5075  -10.4862  -47.2290 N.am      2 UNK        -0.5000 
     65 C           1.7504  -11.0909  -46.3043 C.2       1 UNK         0.5000 
     66 O           1.7472  -10.7713  -45.1124 O.2       1 UNK        -0.5000 
     67 C          -2.1859  -22.2801  -47.9785 C.2       11 UNK         0.5000 
     68 O          -2.4713  -23.2124  -48.7301 O.2       11 UNK        -0.5000 
     69 N          -3.0784  -21.6624  -47.1903 N.am      12 UNK        -0.5000 
     70 CA         -4.4876  -22.0345  -47.0774 C.3       12 UNK         0.1400 
     71 CB         -5.2321  -20.9931  -46.2289 C.3       12 UNK        -0.1800 
     72 C          -4.6855  -23.4556  -46.5151 C.2       12 UNK         0.5000 
     73 O          -5.4485  -24.2343  -47.0890 O.2       12 UNK        -0.5000 
     74 N          -3.9764  -23.7740  -45.4224 N.am      13 UNK        -0.5000 
     75 CA         -4.0217  -25.0679  -44.7375 C.3       13 UNK         0.1400 
     76 CB         -3.2195  -24.9860  -43.4304 C.3       13 UNK        -0.1800 
     77 C          -3.5261  -26.2434  -45.5990 C.2       13 UNK         0.5000 
     78 O          -4.0835  -27.3381  -45.5051 O.2       13 UNK        -0.5000 
     79 N          -2.5191  -25.9993  -46.4476 N.am      14 UNK        -0.5000 
     80 CA         -1.9408  -26.9566  -47.3936 C.3       14 UNK         0.1400 
     81 CB         -0.5325  -26.4714  -47.7828 C.3       14 UNK        -0.1800 
     82 C          -2.8423  -27.1954  -48.6259 C.2       14 UNK         0.5000 
     83 O          -2.3873  -27.0427  -49.7605 O.2       14 UNK        -0.5000 
     84 N          -4.1149  -27.5450  -48.3829 N.am      15 UNK        -0.5000 
     85 CA         -5.1755  -27.8170  -49.3636 C.3       15 UNK         0.1400 
     86 CB         -4.9074  -29.1582  -50.0771 C.3       15 UNK        -0.1800 
     87 C          -5.3941  -26.6514  -50.3526 C.2       15 UNK         0.5000 
     88 O          -5.5635  -26.8757  -51.5536 O.2       15 UNK        -0.5000 
     89 N          -5.3105  -25.4171  -49.8323 N.am      16 UNK        -0.5000 
     90 CA         -5.3290  -24.1446  -50.5615 C.3       16 UNK         0.1400 
     91 CB         -6.7306  -23.8819  -51.1508 C.3       16 UNK        -0.1800 
     92 C          -4.2155  -24.0094  -51.6223 C.2       16 UNK         0.5000 
     93 O          -4.3643  -23.2143  -52.5483 O.2       16 UNK        -0.5000 
     94 N          -3.1429  -24.8065  -51.5045 N.am      17 UNK        -0.5000 
     95 CA         -2.0504  -24.9709  -52.4665 C.3       17 UNK         0.1400 
     96 CB         -1.1944  -23.6913  -52.5416 C.3       17 UNK        -0.1800 
     97 C          -2.5204  -25.4818  -53.8485 C.2       17 UNK         0.5000 
     98 O          -1.8479  -25.2286  -54.8481 O.2       17 UNK        -0.5000 
     99 N          -3.6708  -26.1768  -53.8656 N.am      18 UNK        -0.5000 
    100 CA        -4.3552  -26.8376  -54.9837 C.3       18 UNK         0.1400 
    101 CB        -3.8444  -28.2889  -55.0733 C.3       18 UNK        -0.1800 
    102 C         -4.2917  -26.1030  -56.3489 C.2       18 UNK         0.5000 
    103 O         -3.7119  -26.6397  -57.2934 O.2       18 UNK        -0.5000 
    104 N         -4.8512  -24.8950  -56.5010 N.am      19 UNK        -0.5000 
    105 CA        -5.5690  -24.0720  -55.5280 C.3       19 UNK         0.1400 
    106 CB        -7.0814  -24.1713  -55.7946 C.3       19 UNK        -0.1800 
    107 C         -5.0225  -22.6351  -55.6305 C.2       19 UNK         0.5000 
    108 O         -5.7735  -21.6963  -55.8981 O.2       19 UNK        -0.5000 
    109 N         -3.6965  -22.5083  -55.4884 N.am      20 UNK        -0.5000 
    110 CA        -2.9356  -21.2746  -55.6893 C.3       20 UNK         0.1400 
    111 CB        -1.4637  -21.6470  -55.9345 C.3       20 UNK        -0.1800 
    112 C         -3.0543  -20.2248  -54.5624 C.2       20 UNK         0.5000 
    113 O         -2.5850  -19.1027  -54.7629 O.2       20 UNK        -0.5000 
    114 N         -3.6385  -20.5766  -53.4064 N.am      21 UNK        -0.5000 
    115 CA        -3.8227  -19.6700  -52.2673 C.3       21 UNK         0.1400 
    116 CB        -4.2983  -20.4590  -51.0358 C.3       21 UNK        -0.1800 
    117 C         -4.7780  -18.4936  -52.5579 C.2       21 UNK         0.5000 
    118 O         -5.5907  -18.5556  -53.4833 O.2       21 UNK        -0.5000 
    119 N         -4.6615  -17.4435  -51.7362 N.am      22 UNK        -0.5000 
    120 CA        -5.3748  -16.1605  -51.8777 C.3       22 UNK         0.1400 
    121 C         -6.9099  -16.2110  -51.6135 C.2       22 UNK         0.5000 
    122 N         -7.4587  -17.2854  -51.0602 N.am      22 UNK        -0.7600 
    123 O         -7.6164  -15.2538  -51.9177 O.2       22 UNK        -0.5000 
    124 C124       -4.7210  -15.0355  -51.0280 C.3       23 UNK        -0.0398 
    125 S125       -2.9115  -14.9060  -51.2566 S.3       23 UNK        -0.2404 
    126 C126       -2.3170  -15.5581  -49.6642 C.3       23 UNK        -0.0205 
    127 H127       -2.2032  -13.3155  -44.3973 H         1 UNK         0.0600 
    128 H128       -3.3049  -12.0772  -44.9855 H         1 UNK         0.0600 
    129 H129       -2.0813  -11.6614  -43.7810 H         1 UNK         0.0600 
    130 H130        0.0712  -13.2548  -45.1194 H         1 UNK         0.3000 
    131 H131        0.4626  -12.0359  -47.7433 H         1 UNK         0.0600 
    132 H132        2.6184  -13.6056  -46.2535 H         1 UNK         0.0800 
    133 H133        1.2529  -14.4555  -46.8982 H         1 UNK         0.0800 
    134 H134        3.1307  -15.8331  -48.0876 H         1 UNK         0.0800 
    135 H135        3.5163  -15.4630  -49.7477 H         1 UNK         0.0800 
    136 H136        0.0664  -14.4646  -48.9691 H         1 UNK         0.1150 
    137 H137       -1.6506  -17.9823  -50.6598 H         1 UNK         0.1150 
    138 H138        2.5776  -17.7854  -50.0255 H         1 UNK         0.1150 
    139 H139        0.6156  -19.3662  -52.0879 H         1 UNK         0.0800 
    140 H140        1.6471  -19.8338  -50.7570 H         1 UNK         0.0800 
    141 H141       -1.1492  -19.7061  -48.3091 H         1 UNK         0.0800 
    142 H142        0.5367  -20.1302  -48.4045 H         1 UNK         0.0800 
    143 H143       -0.0928  -22.5844  -48.3132 H         1 UNK         0.0600 
    144 H144        0.0001  -20.7573  -46.1725 H         1 UNK         0.3000 
    145 H145       -0.2759  -23.0826  -43.4667 H         1 UNK         0.0600 
    146 H146        1.8588  -21.9773  -42.9058 H         1 UNK         0.0600 
    147 H147        2.1022  -23.0741  -44.2566 H         1 UNK         0.0600 
    148 H148        2.0045  -21.3398  -44.5420 H         1 UNK         0.0600 
    149 H149        0.0386  -20.2656  -43.4669 H         1 UNK         0.3000 
    150 H150       -3.4691  -19.4200  -43.5394 H         1 UNK         0.0600 
    151 H151       -2.8762  -19.8763  -41.1872 H         1 UNK         0.0600 
    152 H152       -2.6569  -18.1666  -41.5326 H         1 UNK         0.0600 
    153 H153       -1.2587  -19.2360  -41.4291 H         1 UNK         0.0600 
    154 H154       -1.2050  -17.7292  -43.5162 H         1 UNK         0.3000 
    155 H155       -0.7255  -17.5128  -47.0675 H         1 UNK         0.0600 
    156 H156       -2.5988  -15.9572  -46.4573 H         1 UNK         0.0600 
    157 H157       -1.0556  -15.1314  -46.5589 H         1 UNK         0.0600 
    158 H158       -1.7479  -15.5213  -44.9812 H         1 UNK         0.0600 
    159 H159        0.5625  -16.3162  -44.7757 H         1 UNK         0.3000 
    160 H160        3.1289  -18.7801  -44.4519 H         1 UNK         0.0600 
    161 H161        3.1198  -15.8760  -45.4338 H         1 UNK         0.0600 
    162 H162        3.9181  -17.2370  -46.2091 H         1 UNK         0.0600 
    163 H163        4.4728  -16.6770  -44.6397 H         1 UNK         0.0600 
    164 H164        2.4709  -16.3589  -43.0387 H         1 UNK         0.3000 
    165 H165        0.4233  -17.8663  -40.5525 H         1 UNK         0.0600 
    166 H166        2.2055  -17.1540  -38.9874 H         1 UNK         0.0600 
    167 H167        2.6950  -18.6171  -39.8258 H         1 UNK         0.0600 
    168 H168        3.3725  -17.0662  -40.3076 H         1 UNK         0.0600 
    169 H169        1.6299  -15.3213  -40.6119 H         1 UNK         0.3000 
    170 H170       -0.5114  -13.6195  -42.8248 H         1 UNK         0.0600 
    171 H171       -0.9849  -12.2310  -40.8270 H         1 UNK         0.0600 
    172 H172       -1.8945  -13.7313  -40.7504 H         1 UNK         0.0600 
    173 H173       -0.4523  -13.5325  -39.7615 H         1 UNK         0.0600 
    174 H174        1.5534  -12.7778  -41.0213 H         1 UNK         0.3000 
    175 H175        3.5726  -12.0189  -41.9988 H         1 UNK         0.0600 
    176 H176        4.4976  -14.9564  -42.2487 H         1 UNK         0.0600 
    177 H177        5.3737  -13.6755  -41.4159 H         1 UNK         0.0600 
    178 H178        3.8484  -14.2428  -40.7771 H         1 UNK         0.0600 
    179 H179        3.7326  -12.9996  -44.6149 H         1 UNK         0.3000 
    180 H180        6.9047  -11.5137  -45.4850 H         1 UNK         0.0600 
    181 H181        5.2911  -14.0285  -46.1958 H         1 UNK         0.0600 
    182 H182        6.9301  -14.0197  -45.5572 H         1 UNK         0.0600 
    183 H183        6.6044  -13.3275  -47.1380 H         1 UNK         0.0600 
    184 H184        4.4499  -11.8476  -46.9412 H         1 UNK         0.3000 
    185 H185        3.0431   -8.6774  -46.3447 H         1 UNK         0.0600 
    186 H186        3.1957   -8.3988  -48.8092 H         1 UNK         0.0600 
    187 H187        4.7524   -8.0724  -48.0647 H         1 UNK         0.0600 
    188 H188        4.4833   -9.6020  -48.8918 H         1 UNK         0.0600 
    189 H189        2.4618  -10.8084  -48.1858 H         1 UNK         0.3000 
    190 H190       -2.7724  -20.8718  -46.6288 H         1 UNK         0.3000 
    191 H191       -4.9166  -22.0033  -48.0788 H         1 UNK         0.0600 
    192 H192       -5.1540  -19.9990  -46.6695 H         1 UNK         0.0600 
    193 H193       -6.2930  -21.2351  -46.1566 H         1 UNK         0.0600 
    194 H194       -4.8379  -20.9386  -45.2143 H         1 UNK         0.0600 
    195 H195       -3.3988  -23.0569  -44.9896 H         1 UNK         0.3000 
    196 H196       -5.0644  -25.2673  -44.4825 H         1 UNK         0.0600 
    197 H197       -3.2501  -25.9337  -42.8913 H         1 UNK         0.0600 
    198 H198       -3.6243  -24.2220  -42.7666 H         1 UNK         0.0600 
    199 H199       -2.1723  -24.7471  -43.6175 H         1 UNK         0.0600 
    200 H200       -2.0950  -25.0771  -46.4349 H         1 UNK         0.3000 
    201 H201       -1.8309  -27.9185  -46.8891 H         1 UNK         0.0600 
    202 H202        0.1054  -26.3693  -46.9048 H         1 UNK         0.0600 
    203 H203       -0.5681  -25.5030  -48.2842 H         1 UNK         0.0600 
    204 H204       -0.0437  -27.1760  -48.4568 H         1 UNK         0.0600 
    205 H205       -4.3845  -27.6172  -47.4058 H         1 UNK         0.3000 
    206 H206       -6.1033  -27.9181  -48.7991 H         1 UNK         0.0600 
    207 H207       -4.7776  -29.9677  -49.3590 H         1 UNK         0.0600 
    208 H208       -5.7411  -29.4312  -50.7250 H         1 UNK         0.0600 
    209 H209       -4.0116  -29.1135  -50.6977 H         1 UNK         0.0600 
    210 H210       -5.1731  -25.3260  -48.8307 H         1 UNK         0.3000 
    211 H211       -5.1284  -23.3688  -49.8263 H         1 UNK         0.0600 
    212 H212       -6.9717  -24.5837  -51.9497 H         1 UNK         0.0600 
    213 H213       -6.8012  -22.8774  -51.5692 H         1 UNK         0.0600 
    214 H214       -7.5014  -23.9661  -50.3849 H         1 UNK         0.0600 
    215 H215       -3.0970  -25.4351  -50.7086 H         1 UNK         0.3000 
    216 H216       -1.4153  -25.7613  -52.0648 H         1 UNK         0.0600 
    217 H217       -0.3331  -23.8255  -53.1965 H         1 UNK         0.0600 
    218 H218       -1.7632  -22.8393  -52.9118 H         1 UNK         0.0600 
    219 H219       -0.8102  -23.4298  -51.5560 H         1 UNK         0.0600 
    220 H220       -4.1438  -26.2893  -52.9745 H         1 UNK         0.3000 
    221 H221       -5.4107  -26.8852  -54.7123 H         1 UNK         0.0600 
    222 H222       -2.7781  -28.3251  -55.2999 H         1 UNK         0.0600 
    223 H223       -4.0045  -28.8201  -54.1347 H         1 UNK         0.0600 
    224 H224       -4.3682  -28.8449  -55.8519 H         1 UNK         0.0600 
    225 H225       -4.7395  -24.4507  -57.4011 H         1 UNK         0.3000 
    226 H226       -5.3994  -24.4103  -54.5100 H         1 UNK         0.0600 
    227 H227       -7.4324  -25.1983  -55.6936 H         1 UNK         0.0600 
    228 H228       -7.6428  -23.5656  -55.0820 H         1 UNK         0.0600 
    229 H229       -7.3382  -23.8267  -56.7970 H         1 UNK         0.0600 
    230 H230       -3.1546  -23.3364  -55.2792 H         1 UNK         0.3000 
    231 H231       -3.3104  -20.7981  -56.5976 H         1 UNK         0.0600 
    232 H232       -1.0205  -22.1363  -55.0677 H         1 UNK         0.0600 
    233 H233       -0.8646  -20.7619  -56.1520 H         1 UNK         0.0600 
    234 H234       -1.3636  -22.3209  -56.7855 H         1 UNK         0.0600 
    235 H235       -3.9866  -21.5254  -53.2932 H         1 UNK         0.3000 
    236 H236       -2.8421  -19.2503  -52.0432 H         1 UNK         0.0600 
    237 H237       -3.5862  -21.2403  -50.7716 H         1 UNK         0.0600 
    238 H238       -4.3962  -19.8144  -50.1616 H         1 UNK         0.0600 
    239 H239       -5.2675  -20.9261  -51.2104 H         1 UNK         0.0600 
    240 H240       -3.9793  -17.4773  -50.9956 H         1 UNK         0.3000 
    241 H241       -5.2708  -15.8691  -52.9247 H         1 UNK         0.0600 
    242 H242       -6.8938  -18.0837  -50.8212 H         1 UNK         0.3800 
    243 H243       -8.4533  -17.3068  -50.8981 H         1 UNK         0.3800 
    244 H244       -4.9468  -15.1751  -49.9694 H         1 UNK         0.0800 
    245 H245       -5.1519  -14.0692  -51.2959 H         1 UNK         0.0800 
    246 H246       -2.9974  -16.3234  -49.2882 H         1 UNK         0.0800 
    247 H247       -2.3227  -14.7551  -48.9255 H         1 UNK         0.0800 
@<TRIPOS>BOND
     1    1    2 1    
     2    1  127 1    
     3    1  128 1    
     4    1  129 1    
     5    2    3 2    
     6    2    4 am   BACKBONE|DICT|INTERRES
     7    4    5 1    
     8    4  130 1    
     9    5    6 1    
    10    5   65 1    
    11    5  131 1    
    12    6    7 1    
    13    6  132 1    
    14    6  133 1    
    15    7    8 1    
    16    8    9 1    
    17    8  134 1    
    18    8  135 1    
    19    9   10 ar   
    20    9   14 ar   
    21   10   11 ar   
    22   10  136 1    
    23   11   12 ar   
    24   11  126 1    
    25   12   13 ar   
    26   12  137 1    
    27   13   14 ar   
    28   13   15 1    
    29   14  138 1    
    30   15   16 1    
    31   15  139 1    
    32   15  140 1    
    33   16   17 1    
    34   17   18 1    
    35   17  141 1    
    36   17  142 1    
    37   18   19 1    
    38   18   67 1    
    39   18  143 1    
    40   19   20 am   BACKBONE|DICT|INTERRES
    41   19  144 1    
    42   20   21 2    
    43   20   22 1    
    44   22   23 1    
    45   22   24 1    
    46   22  145 1    
    47   23  146 1    
    48   23  147 1    
    49   23  148 1    
    50   24   25 am   BACKBONE|DICT|INTERRES
    51   24  149 1    
    52   25   26 2    
    53   25   27 1    
    54   27   28 1    
    55   27   29 1    
    56   27  150 1    
    57   28  151 1    
    58   28  152 1    
    59   28  153 1    
    60   29   30 am   BACKBONE|DICT|INTERRES
    61   29  154 1    
    62   30   31 2    
    63   30   32 1    
    64   32   33 1    
    65   32   34 1    
    66   32  155 1    
    67   33  156 1    
    68   33  157 1    
    69   33  158 1    
    70   34   35 am   BACKBONE|DICT|INTERRES
    71   34  159 1    
    72   35   36 2    
    73   35   37 1    
    74   37   38 1    
    75   37   39 1    
    76   37  160 1    
    77   38  161 1    
    78   38  162 1    
    79   38  163 1    
    80   39   40 am   BACKBONE|DICT|INTERRES
    81   39  164 1    
    82   40   41 2    
    83   40   42 1    
    84   42   43 1    
    85   42   44 1    
    86   42  165 1    
    87   43  166 1    
    88   43  167 1    
    89   43  168 1    
    90   44   45 am   BACKBONE|DICT|INTERRES
    91   44  169 1    
    92   45   46 2    
    93   45   47 1    
    94   47   48 1    
    95   47   49 1    
    96   47  170 1    
    97   48  171 1    
    98   48  172 1    
    99   48  173 1    
   100   49   50 am   BACKBONE|DICT|INTERRES
   101   49  174 1    
   102   50   51 2    
   103   50   52 1    
   104   52   53 1    
   105   52   54 1    
   106   52  175 1    
   107   53  176 1    
   108   53  177 1    
   109   53  178 1    
   110   54   55 am   BACKBONE|DICT|INTERRES
   111   54  179 1    
   112   55   56 2    
   113   55   57 1    
   114   57   58 1    
   115   57   59 1    
   116   57  180 1    
   117   58  181 1    
   118   58  182 1    
   119   58  183 1    
   120   59   60 am   BACKBONE|DICT|INTERRES
   121   59  184 1    
   122   60   61 2    
   123   60   62 1    
   124   62   63 1    
   125   62   64 1    
   126   62  185 1    
   127   63  186 1    
   128   63  187 1    
   129   63  188 1    
   130   64   65 am   BACKBONE|DICT|INTERRES
   131   64  189 1    
   132   65   66 2    
   133   67   68 2    
   134   67   69 am   BACKBONE|DICT|INTERRES
   135   69   70 1    
   136   69  190 1    
   137   70   71 1    
   138   70   72 1    
   139   70  191 1    
   140   71  192 1    
   141   71  193 1    
   142   71  194 1    
   143   72   73 2    
   144   72   74 am   BACKBONE|DICT|INTERRES
   145   74   75 1    
   146   74  195 1    
   147   75   76 1    
   148   75   77 1    
   149   75  196 1    
   150   76  197 1    
   151   76  198 1    
   152   76  199 1    
   153   77   78 2    
   154   77   79 am   BACKBONE|DICT|INTERRES
   155   79   80 1    
   156   79  200 1    
   157   80   81 1    
   158   80   82 1    
   159   80  201 1    
   160   81  202 1    
   161   81  203 1    
   162   81  204 1    
   163   82   83 2    
   164   82   84 am   BACKBONE|DICT|INTERRES
   165   84   85 1    
   166   84  205 1    
   167   85   86 1    
   168   85   87 1    
   169   85  206 1    
   170   86  207 1    
   171   86  208 1    
   172   86  209 1    
   173   87   88 2    
   174   87   89 am   BACKBONE|DICT|INTERRES
   175   89   90 1    
   176   89  210 1    
   177   90   91 1    
   178   90   92 1    
   179   90  211 1    
   180   91  212 1    
   181   91  213 1    
   182   91  214 1    
   183   92   93 2    
   184   92   94 am   BACKBONE|DICT|INTERRES
   185   94   95 1    
   186   94  215 1    
   187   95   96 1    
   188   95   97 1    
   189   95  216 1    
   190   96  217 1    
   191   96  218 1    
   192   96  219 1    
   193   97   98 2    
   194   97   99 am   BACKBONE|DICT|INTERRES
   195   99  100 1    
   196   99  220 1    
   197  100  101 1    
   198  100  102 1    
   199  100  221 1    
   200  101  222 1    
   201  101  223 1    
   202  101  224 1    
   203  102  103 2    
   204  102  104 am   BACKBONE|DICT|INTERRES
   205  104  105 1    
   206  104  225 1    
   207  105  106 1    
   208  105  107 1    
   209  105  226 1    
   210  106  227 1    
   211  106  228 1    
   212  106  229 1    
   213  107  108 2    
   214  107  109 am   BACKBONE|DICT|INTERRES
   215  109  110 1    
   216  109  230 1    
   217  110  111 1    
   218  110  112 1    
   219  110  231 1    
   220  111  232 1    
   221  111  233 1    
   222  111  234 1    
   223  112  113 2    
   224  112  114 am   BACKBONE|DICT|INTERRES
   225  114  115 1    
   226  114  235 1    
   227  115  116 1    
   228  115  117 1    
   229  115  236 1    
   230  116  237 1    
   231  116  238 1    
   232  116  239 1    
   233  117  118 2    
   234  117  119 am   BACKBONE|DICT|INTERRES
   235  119  120 1    
   236  119  240 1    
   237  120  121 1    
   238  120  124 1    
   239  120  241 1    
   240  121  122 am   BACKBONE|DICT|INTERRES
   241  121  123 2    
   242  122  242 1    
   243  122  243 1    
   244  124  125 1    
   245  124  244 1    
   246  124  245 1    
   247  125  126 1    
   248  126  246 1    
   249  126  247 1    
@<TRIPOS>SUBSTRUCTURE
     1 UNK         1 GROUP             0       ****    0 ROOT    
