@<TRIPOS>MOLECULE
3R540
247   249    1
SMALL
USER_CHARGES


@<TRIPOS>ATOM
      1 CA         -3.4627  -17.1718  -44.4980 C.3       0 UNK        -0.1800 
      2 C          -3.6129  -15.9172  -45.3443 C.2       0 UNK         0.5000 
      3 O          -4.6558  -15.2641  -45.2957 O.2       0 UNK        -0.5000 
      4 N          -2.5722  -15.5796  -46.1152 N.am      1 UNK        -0.5000 
      5 CA         -2.4693  -14.3385  -46.8909 C.3       1 UNK         0.1400 
      6 C6         -1.3077  -14.3891  -47.9143 C.3       23 UNK        -0.0398 
      7 S7         -1.4735  -15.7355  -49.1389 S.3       23 UNK        -0.2404 
      8 C8         -0.1163  -16.8306  -48.6260 C.3       23 UNK        -0.0205 
      9 C9          0.2952  -17.7945  -49.7244 C.ar      23 UNK        -0.0193 
     10 C10         1.0749  -17.3413  -50.7923 C.ar      23 UNK        -0.1150 
     11 C11         1.5262  -18.2304  -51.7714 C.ar      23 UNK        -0.0193 
     12 C12         1.2032  -19.5855  -51.6674 C.ar      23 UNK        -0.1150 
     13 C13         0.4147  -20.0480  -50.6105 C.ar      23 UNK        -0.0193 
     14 C14        -0.0508  -19.1458  -49.6488 C.ar      23 UNK        -0.1150 
     15 C15         0.0792  -21.5257  -50.5071 C.3       23 UNK        -0.0205 
     16 S16         1.4416  -22.4849  -49.7644 S.3       23 UNK        -0.2404 
     17 C17         1.4349  -21.9246  -48.0230 C.3       23 UNK        -0.0398 
     18 CA          0.6319  -22.8617  -47.0919 C.3       11 UNK         0.1400 
     19 N           0.9672  -22.6678  -45.6803 N.am      11 UNK        -0.5000 
     20 C           0.5574  -23.4783  -44.6937 C.2       10 UNK         0.5000 
     21 O          -0.1194  -24.4903  -44.8785 O.2       10 UNK        -0.5000 
     22 CA          0.9183  -23.0629  -43.2577 C.3       10 UNK         0.1400 
     23 CB          2.3856  -23.3929  -42.9468 C.3       10 UNK        -0.1800 
     24 N           0.6600  -21.6452  -43.0013 N.am      10 UNK        -0.5000 
     25 C          -0.5533  -21.0754  -43.0468 C.2       9 UNK         0.5000 
     26 O          -1.5904  -21.6944  -43.2822 O.2       9 UNK        -0.5000 
     27 CA         -0.6183  -19.5525  -42.8351 C.3       9 UNK         0.1400 
     28 CB         -0.5172  -19.1965  -41.3447 C.3       9 UNK        -0.1800 
     29 N           0.4126  -18.8310  -43.5800 N.am      9 UNK        -0.5000 
     30 C           0.5285  -18.8165  -44.9150 C.2       8 UNK         0.5000 
     31 O          -0.2491  -19.3801  -45.6839 O.2       8 UNK        -0.5000 
     32 CA          1.7550  -18.0877  -45.4852 C.3       8 UNK         0.1400 
     33 CB          1.5620  -16.5616  -45.4454 C.3       8 UNK        -0.1800 
     34 N           2.9809  -18.4551  -44.7767 N.am      8 UNK        -0.5000 
     35 C           3.5183  -19.6842  -44.7716 C.2       7 UNK         0.5000 
     36 O           3.0610  -20.6363  -45.4040 O.2       7 UNK        -0.5000 
     37 CA          4.7501  -19.8914  -43.8721 C.3       7 UNK         0.1400 
     38 CB          6.0296  -19.4441  -44.5943 C.3       7 UNK        -0.1800 
     39 N           4.6378  -19.1810  -42.5968 N.am      7 UNK        -0.5000 
     40 C           3.7509  -19.4827  -41.6374 C.2       6 UNK         0.5000 
     41 O           2.9528  -20.4157  -41.7121 O.2       6 UNK        -0.5000 
     42 CA          3.7139  -18.5472  -40.4147 C.3       6 UNK         0.1400 
     43 CB          4.7915  -18.9430  -39.3944 C.3       6 UNK        -0.1800 
     44 N           3.8732  -17.1347  -40.7741 N.am      6 UNK        -0.5000 
     45 C           3.0145  -16.4545  -41.5443 C.2       5 UNK         0.5000 
     46 O           2.0001  -16.9544  -42.0369 O.2       5 UNK        -0.5000 
     47 CA          3.3881  -14.9973  -41.8688 C.3       5 UNK         0.1400 
     48 CB          4.3579  -14.9457  -43.0603 C.3       5 UNK        -0.1800 
     49 N           2.2078  -14.1980  -42.1918 N.am      5 UNK        -0.5000 
     50 C           1.3057  -13.7707  -41.2990 C.2       4 UNK         0.5000 
     51 O           1.4092  -13.9676  -40.0864 O.2       4 UNK        -0.5000 
     52 CA          0.0848  -13.0022  -41.8543 C.3       4 UNK         0.1400 
     53 CB         -0.5043  -12.0048  -40.8353 C.3       4 UNK        -0.1800 
     54 N           0.3153  -12.3381  -43.1441 N.am      4 UNK        -0.5000 
     55 C           1.2066  -11.3712  -43.4225 C.2       3 UNK         0.5000 
     56 O           2.0242  -10.9338  -42.6124 O.2       3 UNK        -0.5000 
     57 CA          1.1848  -10.7898  -44.8528 C.3       3 UNK         0.1400 
     58 CB          2.2235  -11.5051  -45.7312 C.3       3 UNK        -0.1800 
     59 N          -0.1255  -10.8812  -45.5014 N.am      3 UNK        -0.5000 
     60 C          -1.2344  -10.2467  -45.0945 C.2       2 UNK         0.5000 
     61 O          -1.2437   -9.4036  -44.1967 O.2       2 UNK        -0.5000 
     62 CA         -2.5644  -10.6281  -45.7822 C.3       2 UNK         0.1400 
     63 CB         -2.9907   -9.5265  -46.7653 C.3       2 UNK        -0.1800 
     64 N          -2.5779  -11.9184  -46.4878 N.am      2 UNK        -0.5000 
     65 C          -2.3024  -13.1183  -45.9559 C.2       1 UNK         0.5000 
     66 O          -1.8874  -13.2733  -44.8036 O.2       1 UNK        -0.5000 
     67 C          -0.8853  -22.7464  -47.3342 C.2       11 UNK         0.5000 
     68 O          -1.4476  -23.5990  -48.0169 O.2       11 UNK        -0.5000 
     69 N          -1.5319  -21.7276  -46.7515 N.am      12 UNK        -0.5000 
     70 CA         -2.9747  -21.5044  -46.8632 C.3       12 UNK         0.1400 
     71 CB         -3.3197  -20.1260  -46.2863 C.3       12 UNK        -0.1800 
     72 C          -3.8343  -22.6011  -46.2029 C.2       12 UNK         0.5000 
     73 O          -4.9780  -22.7923  -46.6138 O.2       12 UNK        -0.5000 
     74 N          -3.2819  -23.2975  -45.2012 N.am      13 UNK        -0.5000 
     75 CA         -3.8954  -24.4703  -44.5827 C.3       13 UNK         0.1400 
     76 CB         -3.3081  -24.6725  -43.1772 C.3       13 UNK        -0.1800 
     77 C          -3.7124  -25.7367  -45.4405 C.2       13 UNK         0.5000 
     78 O          -4.6430  -26.5372  -45.5415 O.2       13 UNK        -0.5000 
     79 N          -2.5167  -25.9079  -46.0216 N.am      14 UNK        -0.5000 
     80 CA         -2.1462  -27.0653  -46.8362 C.3       14 UNK         0.1400 
     81 CB         -0.6143  -27.1395  -46.9398 C.3       14 UNK        -0.1800 
     82 C          -2.7855  -27.0497  -48.2370 C.2       14 UNK         0.5000 
     83 O          -3.3363  -28.0644  -48.6673 O.2       14 UNK        -0.5000 
     84 N          -2.6818  -25.9082  -48.9248 N.am      15 UNK        -0.5000 
     85 CA         -3.2097  -25.6668  -50.2651 C.3       15 UNK         0.1400 
     86 CB         -2.1964  -24.7934  -51.0313 C.3       15 UNK        -0.1800 
     87 C          -4.5912  -24.9888  -50.1974 C.2       15 UNK         0.5000 
     88 O          -5.1374  -24.7795  -49.1136 O.2       15 UNK        -0.5000 
     89 N          -5.1291  -24.6317  -51.3706 N.am      16 UNK        -0.5000 
     90 CA         -6.4056  -23.9265  -51.5306 C.3       16 UNK         0.1400 
     91 CB         -7.0251  -24.3278  -52.8799 C.3       16 UNK        -0.1800 
     92 C          -6.2877  -22.3903  -51.3846 C.2       16 UNK         0.5000 
     93 O          -7.2526  -21.6825  -51.6781 O.2       16 UNK        -0.5000 
     94 N          -5.1189  -21.8958  -50.9453 N.am      17 UNK        -0.5000 
     95 CA         -4.7992  -20.4966  -50.6405 C.3       17 UNK         0.1400 
     96 CB         -5.5685  -20.0406  -49.3793 C.3       17 UNK        -0.1800 
     97 C          -5.0077  -19.5801  -51.8635 C.2       17 UNK         0.5000 
     98 O          -4.3157  -19.7510  -52.8680 O.2       17 UNK        -0.5000 
     99 N          -5.9729  -18.6548  -51.7869 N.am      18 UNK        -0.5000 
    100 CA        -6.3422  -17.7273  -52.8584 C.3       18 UNK         0.1400 
    101 CB        -7.3956  -16.7438  -52.3271 C.3       18 UNK        -0.1800 
    102 C         -6.8473  -18.4180  -54.1412 C.2       18 UNK         0.5000 
    103 O         -6.6836  -17.8571  -55.2245 O.2       18 UNK        -0.5000 
    104 N         -7.4245  -19.6216  -54.0085 N.am      19 UNK        -0.5000 
    105 CA        -7.8554  -20.4451  -55.1392 C.3       19 UNK         0.1400 
    106 CB        -8.9983  -21.3683  -54.6937 C.3       19 UNK        -0.1800 
    107 C         -6.6973  -21.2490  -55.7631 C.2       19 UNK         0.5000 
    108 O         -6.7984  -21.6291  -56.9301 O.2       19 UNK        -0.5000 
    109 N         -5.6160  -21.4797  -55.0014 N.am      20 UNK        -0.5000 
    110 CA        -4.3686  -22.0558  -55.5108 C.3       20 UNK         0.1400 
    111 CB        -3.5834  -22.7248  -54.3701 C.3       20 UNK        -0.1800 
    112 C         -3.5109  -20.9881  -56.2116 C.2       20 UNK         0.5000 
    113 O         -2.8517  -21.2985  -57.2044 O.2       20 UNK        -0.5000 
    114 N         -3.5439  -19.7533  -55.6839 N.am      21 UNK        -0.5000 
    115 CA        -2.9232  -18.5355  -56.2213 C.3       21 UNK         0.1400 
    116 CB        -3.6677  -18.0796  -57.4930 C.3       21 UNK        -0.1800 
    117 C         -1.4002  -18.6723  -56.4338 C.2       21 UNK         0.5000 
    118 O         -0.8653  -18.1992  -57.4383 O.2       21 UNK        -0.5000 
    119 N         -0.7454  -19.3533  -55.4851 N.am      22 UNK        -0.5000 
    120 CA         0.6778  -19.7343  -55.4973 C.3       22 UNK         0.1400 
    121 C          1.0495  -20.8423  -56.5321 C.2       22 UNK         0.5000 
    122 N          0.1031  -21.4881  -57.2040 N.am      22 UNK        -0.7600 
    123 O          2.2247  -21.1523  -56.7085 O.2       22 UNK        -0.5000 
    124 C124        1.6606  -18.5279  -55.5619 C.3       23 UNK        -0.0398 
    125 S125        1.3346  -17.2157  -54.3313 S.3       23 UNK        -0.2404 
    126 C126        2.3755  -17.7242  -52.9261 C.3       23 UNK        -0.0205 
    127 H127       -4.3014  -17.8461  -44.6698 H         1 UNK         0.0600 
    128 H128       -3.4436  -16.9112  -43.4399 H         1 UNK         0.0600 
    129 H129       -2.5405  -17.7014  -44.7350 H         1 UNK         0.0600 
    130 H130       -1.7467  -16.1570  -46.1040 H         1 UNK         0.3000 
    131 H131       -3.4046  -14.2094  -47.4400 H         1 UNK         0.0600 
    132 H132       -0.3483  -14.4644  -47.4000 H         1 UNK         0.0800 
    133 H133       -1.2630  -13.4586  -48.4829 H         1 UNK         0.0800 
    134 H134        0.7573  -16.2383  -48.3508 H         1 UNK         0.0800 
    135 H135       -0.4225  -17.3792  -47.7347 H         1 UNK         0.0800 
    136 H136        1.3371  -16.2943  -50.8559 H         1 UNK         0.1150 
    137 H137        1.5739  -20.2858  -52.4014 H         1 UNK         0.1150 
    138 H138       -0.6543  -19.4995  -48.8241 H         1 UNK         0.1150 
    139 H139       -0.8419  -21.6692  -49.9431 H         1 UNK         0.0800 
    140 H140       -0.1200  -21.9212  -51.5043 H         1 UNK         0.0800 
    141 H141        1.0988  -20.8921  -47.9354 H         1 UNK         0.0800 
    142 H142        2.4786  -21.9142  -47.7068 H         1 UNK         0.0800 
    143 H143        0.9174  -23.8879  -47.3341 H         1 UNK         0.0600 
    144 H144        1.5478  -21.8647  -45.4551 H         1 UNK         0.3000 
    145 H145        0.2900  -23.6429  -42.5785 H         1 UNK         0.0600 
    146 H146        2.6211  -23.1910  -41.9018 H         1 UNK         0.0600 
    147 H147        2.5967  -24.4473  -43.1294 H         1 UNK         0.0600 
    148 H148        3.0698  -22.8086  -43.5625 H         1 UNK         0.0600 
    149 H149        1.4623  -21.0767  -42.7448 H         1 UNK         0.3000 
    150 H150       -1.5903  -19.2139  -43.1960 H         1 UNK         0.0600 
    151 H151       -1.2934  -19.7017  -40.7686 H         1 UNK         0.0600 
    152 H152       -0.6392  -18.1246  -41.1875 H         1 UNK         0.0600 
    153 H153        0.4463  -19.4868  -40.9251 H         1 UNK         0.0600 
    154 H154        1.0820  -18.3005  -43.0280 H         1 UNK         0.3000 
    155 H155        1.8626  -18.3905  -46.5292 H         1 UNK         0.0600 
    156 H156        1.5483  -16.1761  -44.4279 H         1 UNK         0.0600 
    157 H157        0.6170  -16.2690  -45.9001 H         1 UNK         0.0600 
    158 H158        2.3577  -16.0502  -45.9872 H         1 UNK         0.0600 
    159 H159        3.3961  -17.7483  -44.1903 H         1 UNK         0.3000 
    160 H160        4.8330  -20.9595  -43.6607 H         1 UNK         0.0600 
    161 H161        6.0197  -18.3751  -44.8109 H         1 UNK         0.0600 
    162 H162        6.1458  -19.9704  -45.5427 H         1 UNK         0.0600 
    163 H163        6.9151  -19.6574  -43.9953 H         1 UNK         0.0600 
    164 H164        5.2587  -18.3989  -42.4514 H         1 UNK         0.3000 
    165 H165        2.7371  -18.6634  -39.9405 H         1 UNK         0.0600 
    166 H166        4.7162  -18.3416  -38.4883 H         1 UNK         0.0600 
    167 H167        4.6837  -19.9876  -39.0992 H         1 UNK         0.0600 
    168 H168        5.7969  -18.8181  -39.7985 H         1 UNK         0.0600 
    169 H169        4.6895  -16.6645  -40.4099 H         1 UNK         0.3000 
    170 H170        3.8788  -14.5588  -40.9972 H         1 UNK         0.0600 
    171 H171        5.2708  -15.5043  -42.8501 H         1 UNK         0.0600 
    172 H172        3.9161  -15.3669  -43.9635 H         1 UNK         0.0600 
    173 H173        4.6527  -13.9195  -43.2816 H         1 UNK         0.0600 
    174 H174        2.0340  -14.0138  -43.1676 H         1 UNK         0.3000 
    175 H175       -0.6767  -13.7597  -42.0453 H         1 UNK         0.0600 
    176 H176        0.2240  -11.2475  -40.5438 H         1 UNK         0.0600 
    177 H177       -1.3749  -11.4924  -41.2452 H         1 UNK         0.0600 
    178 H178       -0.8281  -12.5145  -39.9272 H         1 UNK         0.0600 
    179 H179       -0.3331  -12.6145  -43.8772 H         1 UNK         0.3000 
    180 H180        1.4566   -9.7343  -44.7855 H         1 UNK         0.0600 
    181 H181        1.9882  -12.5632  -45.8539 H         1 UNK         0.0600 
    182 H182        3.2194  -11.4396  -45.2908 H         1 UNK         0.0600 
    183 H183        2.2787  -11.0555  -46.7228 H         1 UNK         0.0600 
    184 H184       -0.2111  -11.5432  -46.2570 H         1 UNK         0.3000 
    185 H185       -3.3170  -10.6882  -44.9935 H         1 UNK         0.0600 
    186 H186       -3.0288   -8.5536  -46.2732 H         1 UNK         0.0600 
    187 H187       -2.2952   -9.4441  -47.6014 H         1 UNK         0.0600 
    188 H188       -3.9840   -9.7203  -47.1708 H         1 UNK         0.0600 
    189 H189       -2.8941  -11.8801  -47.4464 H         1 UNK         0.3000 
    190 H190       -1.0080  -21.0370  -46.2193 H         1 UNK         0.3000 
    191 H191       -3.2208  -21.4996  -47.9266 H         1 UNK         0.0600 
    192 H192       -2.7989  -19.3317  -46.8216 H         1 UNK         0.0600 
    193 H193       -4.3884  -19.9220  -46.3607 H         1 UNK         0.0600 
    194 H194       -3.0451  -20.0625  -45.2331 H         1 UNK         0.0600 
    195 H195       -2.3693  -23.0212  -44.8600 H         1 UNK         0.3000 
    196 H196       -4.9672  -24.2916  -44.4729 H         1 UNK         0.0600 
    197 H197       -3.7645  -25.5312  -42.6833 H         1 UNK         0.0600 
    198 H198       -3.4874  -23.8009  -42.5474 H         1 UNK         0.0600 
    199 H199       -2.2320  -24.8448  -43.2080 H         1 UNK         0.0600 
    200 H200       -1.7896  -25.2214  -45.8528 H         1 UNK         0.3000 
    201 H201       -2.4895  -27.9669  -46.3244 H         1 UNK         0.0600 
    202 H202       -0.1581  -27.2411  -45.9548 H         1 UNK         0.0600 
    203 H203       -0.1982  -26.2468  -47.4085 H         1 UNK         0.0600 
    204 H204       -0.3029  -27.9996  -47.5337 H         1 UNK         0.0600 
    205 H205       -2.2493  -25.1018  -48.4752 H         1 UNK         0.3000 
    206 H206       -3.3226  -26.6143  -50.7957 H         1 UNK         0.0600 
    207 H207       -1.1941  -25.2199  -50.9840 H         1 UNK         0.0600 
    208 H208       -2.4558  -24.7090  -52.0867 H         1 UNK         0.0600 
    209 H209       -2.1440  -23.7836  -50.6234 H         1 UNK         0.0600 
    210 H210       -4.6302  -24.8473  -52.2212 H         1 UNK         0.3000 
    211 H211       -7.0888  -24.2620  -50.7476 H         1 UNK         0.0600 
    212 H212       -6.4875  -23.8972  -53.7240 H         1 UNK         0.0600 
    213 H213       -8.0610  -23.9963  -52.9425 H         1 UNK         0.0600 
    214 H214       -7.0344  -25.4107  -53.0050 H         1 UNK         0.0600 
    215 H215       -4.3829  -22.5605  -50.7627 H         1 UNK         0.3000 
    216 H216       -3.7331  -20.4630  -50.4105 H         1 UNK         0.0600 
    217 H217       -5.2536  -19.0454  -49.0627 H         1 UNK         0.0600 
    218 H218       -5.3849  -20.7164  -48.5455 H         1 UNK         0.0600 
    219 H219       -6.6476  -20.0189  -49.5358 H         1 UNK         0.0600 
    220 H220       -6.5164  -18.6005  -50.9379 H         1 UNK         0.3000 
    221 H221       -5.4483  -17.1599  -53.1259 H         1 UNK         0.0600 
    222 H222       -8.3052  -17.2589  -52.0154 H         1 UNK         0.0600 
    223 H223       -7.0169  -16.1822  -51.4730 H         1 UNK         0.0600 
    224 H224       -7.6749  -16.0186  -53.0927 H         1 UNK         0.0600 
    225 H225       -7.5062  -20.0358  -53.0865 H         1 UNK         0.3000 
    226 H226       -8.2506  -19.7934  -55.9216 H         1 UNK         0.0600 
    227 H227       -9.8582  -20.7914  -54.3535 H         1 UNK         0.0600 
    228 H228       -9.3357  -22.0009  -55.5158 H         1 UNK         0.0600 
    229 H229       -8.6941  -22.0220  -53.8794 H         1 UNK         0.0600 
    230 H230       -5.5855  -21.0858  -54.0708 H         1 UNK         0.3000 
    231 H231       -4.6052  -22.8277  -56.2463 H         1 UNK         0.0600 
    232 H232       -4.1529  -23.5384  -53.9257 H         1 UNK         0.0600 
    233 H233       -3.3238  -22.0235  -53.5780 H         1 UNK         0.0600 
    234 H234       -2.6512  -23.1526  -54.7413 H         1 UNK         0.0600 
    235 H235       -4.0332  -19.6388  -54.8015 H         1 UNK         0.3000 
    236 H236       -3.0578  -17.7623  -55.4636 H         1 UNK         0.0600 
    237 H237       -3.3009  -17.1120  -57.8372 H         1 UNK         0.0600 
    238 H238       -3.5413  -18.7895  -58.3110 H         1 UNK         0.0600 
    239 H239       -4.7362  -17.9720  -57.3056 H         1 UNK         0.0600 
    240 H240       -1.2829  -19.7058  -54.7066 H         1 UNK         0.3000 
    241 H241        0.8361  -20.2174  -54.5352 H         1 UNK         0.0600 
    242 H242        0.3722  -22.2068  -57.8568 H         1 UNK         0.3800 
    243 H243       -0.8797  -21.2577  -57.1000 H         1 UNK         0.3800 
    244 H244        2.6910  -18.8667  -55.4466 H         1 UNK         0.0800 
    245 H245        1.6200  -18.0673  -56.5497 H         1 UNK         0.0800 
    246 H246        3.0964  -18.4859  -53.2251 H         1 UNK         0.0800 
    247 H247        2.9655  -16.8660  -52.6010 H         1 UNK         0.0800 
@<TRIPOS>BOND
     1    1    2 1    
     2    1  127 1    
     3    1  128 1    
     4    1  129 1    
     5    2    3 2    
     6    2    4 am   BACKBONE|DICT|INTERRES
     7    4    5 1    
     8    4  130 1    
     9    5    6 1    
    10    5   65 1    
    11    5  131 1    
    12    6    7 1    
    13    6  132 1    
    14    6  133 1    
    15    7    8 1    
    16    8    9 1    
    17    8  134 1    
    18    8  135 1    
    19    9   10 ar   
    20    9   14 ar   
    21   10   11 ar   
    22   10  136 1    
    23   11   12 ar   
    24   11  126 1    
    25   12   13 ar   
    26   12  137 1    
    27   13   14 ar   
    28   13   15 1    
    29   14  138 1    
    30   15   16 1    
    31   15  139 1    
    32   15  140 1    
    33   16   17 1    
    34   17   18 1    
    35   17  141 1    
    36   17  142 1    
    37   18   19 1    
    38   18   67 1    
    39   18  143 1    
    40   19   20 am   BACKBONE|DICT|INTERRES
    41   19  144 1    
    42   20   21 2    
    43   20   22 1    
    44   22   23 1    
    45   22   24 1    
    46   22  145 1    
    47   23  146 1    
    48   23  147 1    
    49   23  148 1    
    50   24   25 am   BACKBONE|DICT|INTERRES
    51   24  149 1    
    52   25   26 2    
    53   25   27 1    
    54   27   28 1    
    55   27   29 1    
    56   27  150 1    
    57   28  151 1    
    58   28  152 1    
    59   28  153 1    
    60   29   30 am   BACKBONE|DICT|INTERRES
    61   29  154 1    
    62   30   31 2    
    63   30   32 1    
    64   32   33 1    
    65   32   34 1    
    66   32  155 1    
    67   33  156 1    
    68   33  157 1    
    69   33  158 1    
    70   34   35 am   BACKBONE|DICT|INTERRES
    71   34  159 1    
    72   35   36 2    
    73   35   37 1    
    74   37   38 1    
    75   37   39 1    
    76   37  160 1    
    77   38  161 1    
    78   38  162 1    
    79   38  163 1    
    80   39   40 am   BACKBONE|DICT|INTERRES
    81   39  164 1    
    82   40   41 2    
    83   40   42 1    
    84   42   43 1    
    85   42   44 1    
    86   42  165 1    
    87   43  166 1    
    88   43  167 1    
    89   43  168 1    
    90   44   45 am   BACKBONE|DICT|INTERRES
    91   44  169 1    
    92   45   46 2    
    93   45   47 1    
    94   47   48 1    
    95   47   49 1    
    96   47  170 1    
    97   48  171 1    
    98   48  172 1    
    99   48  173 1    
   100   49   50 am   BACKBONE|DICT|INTERRES
   101   49  174 1    
   102   50   51 2    
   103   50   52 1    
   104   52   53 1    
   105   52   54 1    
   106   52  175 1    
   107   53  176 1    
   108   53  177 1    
   109   53  178 1    
   110   54   55 am   BACKBONE|DICT|INTERRES
   111   54  179 1    
   112   55   56 2    
   113   55   57 1    
   114   57   58 1    
   115   57   59 1    
   116   57  180 1    
   117   58  181 1    
   118   58  182 1    
   119   58  183 1    
   120   59   60 am   BACKBONE|DICT|INTERRES
   121   59  184 1    
   122   60   61 2    
   123   60   62 1    
   124   62   63 1    
   125   62   64 1    
   126   62  185 1    
   127   63  186 1    
   128   63  187 1    
   129   63  188 1    
   130   64   65 am   BACKBONE|DICT|INTERRES
   131   64  189 1    
   132   65   66 2    
   133   67   68 2    
   134   67   69 am   BACKBONE|DICT|INTERRES
   135   69   70 1    
   136   69  190 1    
   137   70   71 1    
   138   70   72 1    
   139   70  191 1    
   140   71  192 1    
   141   71  193 1    
   142   71  194 1    
   143   72   73 2    
   144   72   74 am   BACKBONE|DICT|INTERRES
   145   74   75 1    
   146   74  195 1    
   147   75   76 1    
   148   75   77 1    
   149   75  196 1    
   150   76  197 1    
   151   76  198 1    
   152   76  199 1    
   153   77   78 2    
   154   77   79 am   BACKBONE|DICT|INTERRES
   155   79   80 1    
   156   79  200 1    
   157   80   81 1    
   158   80   82 1    
   159   80  201 1    
   160   81  202 1    
   161   81  203 1    
   162   81  204 1    
   163   82   83 2    
   164   82   84 am   BACKBONE|DICT|INTERRES
   165   84   85 1    
   166   84  205 1    
   167   85   86 1    
   168   85   87 1    
   169   85  206 1    
   170   86  207 1    
   171   86  208 1    
   172   86  209 1    
   173   87   88 2    
   174   87   89 am   BACKBONE|DICT|INTERRES
   175   89   90 1    
   176   89  210 1    
   177   90   91 1    
   178   90   92 1    
   179   90  211 1    
   180   91  212 1    
   181   91  213 1    
   182   91  214 1    
   183   92   93 2    
   184   92   94 am   BACKBONE|DICT|INTERRES
   185   94   95 1    
   186   94  215 1    
   187   95   96 1    
   188   95   97 1    
   189   95  216 1    
   190   96  217 1    
   191   96  218 1    
   192   96  219 1    
   193   97   98 2    
   194   97   99 am   BACKBONE|DICT|INTERRES
   195   99  100 1    
   196   99  220 1    
   197  100  101 1    
   198  100  102 1    
   199  100  221 1    
   200  101  222 1    
   201  101  223 1    
   202  101  224 1    
   203  102  103 2    
   204  102  104 am   BACKBONE|DICT|INTERRES
   205  104  105 1    
   206  104  225 1    
   207  105  106 1    
   208  105  107 1    
   209  105  226 1    
   210  106  227 1    
   211  106  228 1    
   212  106  229 1    
   213  107  108 2    
   214  107  109 am   BACKBONE|DICT|INTERRES
   215  109  110 1    
   216  109  230 1    
   217  110  111 1    
   218  110  112 1    
   219  110  231 1    
   220  111  232 1    
   221  111  233 1    
   222  111  234 1    
   223  112  113 2    
   224  112  114 am   BACKBONE|DICT|INTERRES
   225  114  115 1    
   226  114  235 1    
   227  115  116 1    
   228  115  117 1    
   229  115  236 1    
   230  116  237 1    
   231  116  238 1    
   232  116  239 1    
   233  117  118 2    
   234  117  119 am   BACKBONE|DICT|INTERRES
   235  119  120 1    
   236  119  240 1    
   237  120  121 1    
   238  120  124 1    
   239  120  241 1    
   240  121  122 am   BACKBONE|DICT|INTERRES
   241  121  123 2    
   242  122  242 1    
   243  122  243 1    
   244  124  125 1    
   245  124  244 1    
   246  124  245 1    
   247  125  126 1    
   248  126  246 1    
   249  126  247 1    
@<TRIPOS>SUBSTRUCTURE
     1 UNK         1 GROUP             0       ****    0 ROOT    
