@<TRIPOS>MOLECULE
3R540
247   249    1
SMALL
USER_CHARGES


@<TRIPOS>ATOM
      1 CA         -5.3111  -10.6028  -42.2423 C.3       0 UNK        -0.1800 
      2 C          -4.9611  -10.5345  -43.7220 C.2       0 UNK         0.5000 
      3 O          -4.2131   -9.6469  -44.1336 O.2       0 UNK        -0.5000 
      4 N          -5.5009  -11.4639  -44.5207 N.am      1 UNK        -0.5000 
      5 CA         -5.2188  -11.6265  -45.9501 C.3       1 UNK         0.1400 
      6 C6         -6.1906  -12.6274  -46.6393 C.3       23 UNK        -0.0398 
      7 S7         -6.4312  -14.2122  -45.7503 S.3       23 UNK        -0.2404 
      8 C8         -6.4499  -15.4427  -47.1030 C.3       23 UNK        -0.0205 
      9 C9         -5.1260  -15.5749  -47.8508 C.ar      23 UNK        -0.0193 
     10 C10        -5.1198  -15.6733  -49.2457 C.ar      23 UNK        -0.1150 
     11 C11        -3.9152  -15.7912  -49.9453 C.ar      23 UNK        -0.0193 
     12 C12        -2.7071  -15.7978  -49.2418 C.ar      23 UNK        -0.1150 
     13 C13        -2.6980  -15.7042  -47.8481 C.ar      23 UNK        -0.0193 
     14 C14        -3.9109  -15.6165  -47.1609 C.ar      23 UNK        -0.1150 
     15 C15        -1.3807  -15.6271  -47.0881 C.3       23 UNK        -0.0205 
     16 S16        -0.5950  -17.2493  -46.8491 S.3       23 UNK        -0.2404 
     17 C17        -1.8226  -18.1148  -45.8158 C.3       23 UNK        -0.0398 
     18 CA         -2.5574  -19.2148  -46.6134 C.3       11 UNK         0.1400 
     19 N          -1.6434  -20.2790  -47.0550 N.am      11 UNK        -0.5000 
     20 C          -1.9881  -21.2869  -47.8660 C.2       10 UNK         0.5000 
     21 O          -3.1079  -21.4024  -48.3569 O.2       10 UNK        -0.5000 
     22 CA         -0.9548  -22.4030  -48.0918 C.3       10 UNK         0.1400 
     23 CB          0.0520  -22.0461  -49.1921 C.3       10 UNK        -0.1800 
     24 N          -0.2408  -22.7297  -46.8607 N.am      10 UNK        -0.5000 
     25 C          -0.7807  -23.4002  -45.8349 C.2       9 UNK         0.5000 
     26 O          -1.9249  -23.8525  -45.8428 O.2       9 UNK        -0.5000 
     27 CA          0.0902  -23.5522  -44.5745 C.3       9 UNK         0.1400 
     28 CB          1.0389  -24.7516  -44.7149 C.3       9 UNK        -0.1800 
     29 N           0.8686  -22.3477  -44.2757 N.am      9 UNK        -0.5000 
     30 C           0.3321  -21.1733  -43.9153 C.2       8 UNK         0.5000 
     31 O          -0.8762  -20.9924  -43.7706 O.2       8 UNK        -0.5000 
     32 CA          1.2996  -19.9899  -43.7248 C.3       8 UNK         0.1400 
     33 CB          1.8537  -19.9721  -42.2928 C.3       8 UNK        -0.1800 
     34 N           2.4166  -19.9524  -44.6726 N.am      8 UNK        -0.5000 
     35 C           2.3204  -19.9463  -46.0083 C.2       7 UNK         0.5000 
     36 O           1.2559  -20.0903  -46.6101 O.2       7 UNK        -0.5000 
     37 CA          3.6361  -19.7410  -46.7901 C.3       7 UNK         0.1400 
     38 CB          3.4263  -19.7474  -48.3156 C.3       7 UNK        -0.1800 
     39 N           4.3148  -18.4959  -46.4223 N.am      7 UNK        -0.5000 
     40 C           5.0368  -18.2855  -45.3127 C.2       6 UNK         0.5000 
     41 O           5.1838  -19.1335  -44.4310 O.2       6 UNK        -0.5000 
     42 CA          5.7131  -16.9090  -45.1586 C.3       6 UNK         0.1400 
     43 CB          7.2164  -17.0184  -45.4583 C.3       6 UNK        -0.1800 
     44 N           5.1334  -15.8831  -46.0300 N.am      6 UNK        -0.5000 
     45 C           4.0380  -15.1724  -45.7354 C.2       5 UNK         0.5000 
     46 O           3.3931  -15.3049  -44.6930 O.2       5 UNK        -0.5000 
     47 CA          3.5713  -14.1683  -46.8061 C.3       5 UNK         0.1400 
     48 CB          2.3918  -14.7499  -47.5987 C.3       5 UNK        -0.1800 
     49 N           3.1782  -12.8842  -46.2236 N.am      5 UNK        -0.5000 
     50 C           4.0316  -12.0167  -45.6571 C.2       4 UNK         0.5000 
     51 O           5.2477  -12.2066  -45.5991 O.2       4 UNK        -0.5000 
     52 CA          3.4582  -10.7044  -45.0789 C.3       4 UNK         0.1400 
     53 CB          3.7556   -9.5282  -46.0225 C.3       4 UNK        -0.1800 
     54 N           2.0181  -10.7484  -44.8290 N.am      4 UNK        -0.5000 
     55 C           1.4292  -11.4295  -43.8379 C.2       3 UNK         0.5000 
     56 O           2.0540  -12.0248  -42.9594 O.2       3 UNK        -0.5000 
     57 CA         -0.1145  -11.4609  -43.8201 C.3       3 UNK         0.1400 
     58 CB         -0.6603  -10.5761  -42.6880 C.3       3 UNK        -0.1800 
     59 N          -0.7771  -11.0754  -45.0723 N.am      3 UNK        -0.5000 
     60 C          -0.6411  -11.6880  -46.2575 C.2       2 UNK         0.5000 
     61 O           0.1966  -12.5636  -46.4792 O.2       2 UNK        -0.5000 
     62 CA         -1.6239  -11.2436  -47.3653 C.3       2 UNK         0.1400 
     63 CB         -1.5510  -12.1192  -48.6302 C.3       2 UNK        -0.1800 
     64 N          -3.0242  -11.1250  -46.9301 N.am      2 UNK        -0.5000 
     65 C          -3.7342  -11.9843  -46.1786 C.2       1 UNK         0.5000 
     66 O          -3.2707  -12.9929  -45.6462 O.2       1 UNK        -0.5000 
     67 C          -3.7608  -19.7653  -45.8121 C.2       11 UNK         0.5000 
     68 O          -4.8741  -19.2614  -45.9608 O.2       11 UNK        -0.5000 
     69 N          -3.5272  -20.8182  -45.0159 N.am      12 UNK        -0.5000 
     70 CA         -4.5528  -21.5866  -44.3059 C.3       12 UNK         0.1400 
     71 CB         -3.8857  -22.3217  -43.1319 C.3       12 UNK        -0.1800 
     72 C          -5.3112  -22.5888  -45.2055 C.2       12 UNK         0.5000 
     73 O          -6.2947  -23.1730  -44.7490 O.2       12 UNK        -0.5000 
     74 N          -4.8399  -22.7839  -46.4465 N.am      13 UNK        -0.5000 
     75 CA         -5.3248  -23.7183  -47.4670 C.3       13 UNK         0.1400 
     76 CB         -6.7301  -23.3167  -47.9583 C.3       13 UNK        -0.1800 
     77 C          -5.2289  -25.1999  -47.0468 C.2       13 UNK         0.5000 
     78 O          -6.0444  -26.0167  -47.4823 O.2       13 UNK        -0.5000 
     79 N          -4.2205  -25.5333  -46.2280 N.am      14 UNK        -0.5000 
     80 CA         -3.9298  -26.8904  -45.7683 C.3       14 UNK         0.1400 
     81 CB         -2.8021  -26.8489  -44.7261 C.3       14 UNK        -0.1800 
     82 C          -3.5496  -27.7911  -46.9545 C.2       14 UNK         0.5000 
     83 O          -2.6801  -27.4167  -47.7435 O.2       14 UNK        -0.5000 
     84 N          -4.2525  -28.9241  -47.0930 N.am      15 UNK        -0.5000 
     85 CA         -4.1448  -29.8963  -48.1914 C.3       15 UNK         0.1400 
     86 CB         -2.7936  -30.6383  -48.1184 C.3       15 UNK        -0.1800 
     87 C          -4.4113  -29.2955  -49.5934 C.2       15 UNK         0.5000 
     88 O          -3.9471  -29.8491  -50.5914 O.2       15 UNK        -0.5000 
     89 N          -5.1407  -28.1678  -49.6398 N.am      16 UNK        -0.5000 
     90 CA         -5.4311  -27.3418  -50.8165 C.3       16 UNK         0.1400 
     91 CB         -6.3348  -28.0975  -51.8131 C.3       16 UNK        -0.1800 
     92 C          -4.1673  -26.7458  -51.4794 C.2       16 UNK         0.5000 
     93 O          -4.1657  -26.4982  -52.6859 O.2       16 UNK        -0.5000 
     94 N          -3.1179  -26.4927  -50.6817 N.am      17 UNK        -0.5000 
     95 CA         -1.8218  -25.9647  -51.1264 C.3       17 UNK         0.1400 
     96 CB         -0.7701  -26.2649  -50.0451 C.3       17 UNK        -0.1800 
     97 C          -1.8195  -24.4603  -51.4760 C.2       17 UNK         0.5000 
     98 O          -0.7529  -23.9208  -51.7706 O.2       17 UNK        -0.5000 
     99 N          -2.9889  -23.8040  -51.4294 N.am      18 UNK        -0.5000 
    100 CA        -3.2020  -22.3597  -51.5776 C.3       18 UNK         0.1400 
    101 CB        -4.7074  -22.0612  -51.5375 C.3       18 UNK        -0.1800 
    102 C         -2.5467  -21.6987  -52.8008 C.2       18 UNK         0.5000 
    103 O         -2.1285  -20.5460  -52.7031 O.2       18 UNK        -0.5000 
    104 N         -2.3997  -22.4465  -53.9020 N.am      19 UNK        -0.5000 
    105 CA        -1.6978  -22.0246  -55.1168 C.3       19 UNK         0.1400 
    106 CB        -1.7805  -23.1514  -56.1569 C.3       19 UNK        -0.1800 
    107 C         -0.2283  -21.6077  -54.8895 C.2       19 UNK         0.5000 
    108 O          0.2764  -20.7679  -55.6351 O.2       19 UNK        -0.5000 
    109 N          0.4226  -22.1602  -53.8543 N.am      20 UNK        -0.5000 
    110 CA         1.7883  -21.8083  -53.4608 C.3       20 UNK         0.1400 
    111 CB         2.3277  -22.8711  -52.4921 C.3       20 UNK        -0.1800 
    112 C          1.9051  -20.4013  -52.8399 C.2       20 UNK         0.5000 
    113 O          2.9818  -19.8075  -52.9121 O.2       20 UNK        -0.5000 
    114 N          0.8125  -19.8922  -52.2538 N.am      21 UNK        -0.5000 
    115 CA         0.7313  -18.5442  -51.6926 C.3       21 UNK         0.1400 
    116 CB        -0.0360  -18.5797  -50.3603 C.3       21 UNK        -0.1800 
    117 C          0.0479  -17.5791  -52.6721 C.2       21 UNK         0.5000 
    118 O          0.5440  -16.4713  -52.8800 O.2       21 UNK        -0.5000 
    119 N         -1.0874  -18.0080  -53.2344 N.am      22 UNK        -0.5000 
    120 CA        -1.9975  -17.1683  -54.0264 C.3       22 UNK         0.1400 
    121 C         -1.7038  -17.1553  -55.5529 C.2       22 UNK         0.5000 
    122 N         -0.8160  -17.9908  -56.0772 N.am      22 UNK        -0.7600 
    123 O         -2.2876  -16.3568  -56.2805 O.2       22 UNK        -0.5000 
    124 C124       -3.4877  -17.5109  -53.7480 C.3       23 UNK        -0.0398 
    125 S125       -3.9027  -17.6475  -51.9723 S.3       23 UNK        -0.2404 
    126 C126       -3.9123  -15.9037  -51.4607 C.3       23 UNK        -0.0205 
    127 H127       -5.7968   -9.6789  -41.9284 H         1 UNK         0.0600 
    128 H128       -4.4057  -10.7323  -41.6492 H         1 UNK         0.0600 
    129 H129       -5.9833  -11.4326  -42.0225 H         1 UNK         0.0600 
    130 H130       -6.0776  -12.1901  -44.1195 H         1 UNK         0.3000 
    131 H131       -5.3962  -10.6533  -46.4132 H         1 UNK         0.0600 
    132 H132       -5.8715  -12.8220  -47.6648 H         1 UNK         0.0800 
    133 H133       -7.1727  -12.1614  -46.7278 H         1 UNK         0.0800 
    134 H134       -7.2571  -15.1876  -47.7913 H         1 UNK         0.0800 
    135 H135       -6.7006  -16.4171  -46.6815 H         1 UNK         0.0800 
    136 H136       -6.0533  -15.6615  -49.7907 H         1 UNK         0.1150 
    137 H137       -1.7728  -15.8649  -49.7803 H         1 UNK         0.1150 
    138 H138       -3.9073  -15.5382  -46.0833 H         1 UNK         0.1150 
    139 H139       -0.6913  -14.9882  -47.6400 H         1 UNK         0.0800 
    140 H140       -1.5221  -15.1446  -46.1195 H         1 UNK         0.0800 
    141 H141       -2.5264  -17.3888  -45.4073 H         1 UNK         0.0800 
    142 H142       -1.3095  -18.5451  -44.9563 H         1 UNK         0.0800 
    143 H143       -2.9706  -18.7553  -47.5145 H         1 UNK         0.0600 
    144 H144       -0.6807  -20.2168  -46.7346 H         1 UNK         0.3000 
    145 H145       -1.5014  -23.2899  -48.4203 H         1 UNK         0.0600 
    146 H146        0.6594  -22.9125  -49.4521 H         1 UNK         0.0600 
    147 H147       -0.4488  -21.7144  -50.1013 H         1 UNK         0.0600 
    148 H148        0.7259  -21.2524  -48.8805 H         1 UNK         0.0600 
    149 H149        0.6691  -22.3067  -46.7418 H         1 UNK         0.3000 
    150 H150       -0.5781  -23.7424  -43.7319 H         1 UNK         0.0600 
    151 H151        0.4839  -25.6668  -44.9246 H         1 UNK         0.0600 
    152 H152        1.6020  -24.9181  -43.7964 H         1 UNK         0.0600 
    153 H153        1.7535  -24.6086  -45.5263 H         1 UNK         0.0600 
    154 H154        1.8710  -22.4086  -44.3773 H         1 UNK         0.3000 
    155 H155        0.7264  -19.0736  -43.8742 H         1 UNK         0.0600 
    156 H156        2.4805  -20.8421  -42.0933 H         1 UNK         0.0600 
    157 H157        1.0454  -19.9732  -41.5601 H         1 UNK         0.0600 
    158 H158        2.4525  -19.0789  -42.1132 H         1 UNK         0.0600 
    159 H159        3.3422  -19.8116  -44.2797 H         1 UNK         0.3000 
    160 H160        4.2901  -20.5797  -46.5430 H         1 UNK         0.0600 
    161 H161        2.7573  -18.9469  -48.6337 H         1 UNK         0.0600 
    162 H162        2.9960  -20.6921  -48.6483 H         1 UNK         0.0600 
    163 H163        4.3711  -19.6238  -48.8451 H         1 UNK         0.0600 
    164 H164        4.2185  -17.7299  -47.0712 H         1 UNK         0.3000 
    165 H165        5.5982  -16.6018  -44.1169 H         1 UNK         0.0600 
    166 H166        7.7211  -16.0658  -45.2955 H         1 UNK         0.0600 
    167 H167        7.6930  -17.7519  -44.8064 H         1 UNK         0.0600 
    168 H168        7.4015  -17.3258  -46.4883 H         1 UNK         0.0600 
    169 H169        5.6148  -15.7095  -46.9010 H         1 UNK         0.3000 
    170 H170        4.3913  -13.9822  -47.5030 H         1 UNK         0.0600 
    171 H171        2.6714  -15.6760  -48.1024 H         1 UNK         0.0600 
    172 H172        1.5534  -14.9766  -46.9401 H         1 UNK         0.0600 
    173 H173        2.0408  -14.0544  -48.3612 H         1 UNK         0.0600 
    174 H174        2.1832  -12.6820  -46.2128 H         1 UNK         0.3000 
    175 H175        3.9660  -10.5167  -44.1305 H         1 UNK         0.0600 
    176 H176        3.2646   -9.6537  -46.9883 H         1 UNK         0.0600 
    177 H177        3.4201   -8.5835  -45.5941 H         1 UNK         0.0600 
    178 H178        4.8266   -9.4363  -46.2083 H         1 UNK         0.0600 
    179 H179        1.4247  -10.2941  -45.5070 H         1 UNK         0.3000 
    180 H180       -0.4037  -12.4931  -43.6122 H         1 UNK         0.0600 
    181 H181       -1.7419  -10.6770  -42.5946 H         1 UNK         0.0600 
    182 H182       -0.4344   -9.5228  -42.8588 H         1 UNK         0.0600 
    183 H183       -0.2261  -10.8541  -41.7267 H         1 UNK         0.0600 
    184 H184       -1.5032  -10.3777  -44.9883 H         1 UNK         0.3000 
    185 H185       -1.3047  -10.2401  -47.6501 H         1 UNK         0.0600 
    186 H186       -0.5259  -12.2283  -48.9862 H         1 UNK         0.0600 
    187 H187       -1.9470  -13.1146  -48.4447 H         1 UNK         0.0600 
    188 H188       -2.1300  -11.6819  -49.4434 H         1 UNK         0.0600 
    189 H189       -3.4976  -10.2956  -47.2603 H         1 UNK         0.3000 
    190 H190       -2.5680  -21.1214  -44.8816 H         1 UNK         0.3000 
    191 H191       -5.2899  -20.8923  -43.8978 H         1 UNK         0.0600 
    192 H192       -4.6206  -22.8709  -42.5422 H         1 UNK         0.0600 
    193 H193       -3.3884  -21.6220  -42.4598 H         1 UNK         0.0600 
    194 H194       -3.1409  -23.0388  -43.4783 H         1 UNK         0.0600 
    195 H195       -4.0397  -22.2334  -46.7343 H         1 UNK         0.3000 
    196 H196       -4.6451  -23.6144  -48.3134 H         1 UNK         0.0600 
    197 H197       -7.4847  -23.4541  -47.1835 H         1 UNK         0.0600 
    198 H198       -6.7532  -22.2722  -48.2694 H         1 UNK         0.0600 
    199 H199       -7.0311  -23.9160  -48.8184 H         1 UNK         0.0600 
    200 H200       -3.5316  -24.8236  -45.9898 H         1 UNK         0.3000 
    201 H201       -4.8291  -27.2810  -45.2878 H         1 UNK         0.0600 
    202 H202       -1.8657  -26.5003  -45.1624 H         1 UNK         0.0600 
    203 H203       -2.6199  -27.8405  -44.3103 H         1 UNK         0.0600 
    204 H204       -3.0526  -26.1865  -43.8973 H         1 UNK         0.0600 
    205 H205       -4.9686  -29.1275  -46.4091 H         1 UNK         0.3000 
    206 H206       -4.9339  -30.6311  -48.0266 H         1 UNK         0.0600 
    207 H207       -2.6279  -31.0594  -47.1269 H         1 UNK         0.0600 
    208 H208       -2.7598  -31.4650  -48.8289 H         1 UNK         0.0600 
    209 H209       -1.9567  -29.9774  -48.3464 H         1 UNK         0.0600 
    210 H210       -5.4681  -27.7846  -48.7606 H         1 UNK         0.3000 
    211 H211       -6.0004  -26.4883  -50.4457 H         1 UNK         0.0600 
    212 H212       -6.6828  -27.4346  -52.6062 H         1 UNK         0.0600 
    213 H213       -7.2190  -28.4986  -51.3177 H         1 UNK         0.0600 
    214 H214       -5.8110  -28.9268  -52.2890 H         1 UNK         0.0600 
    215 H215       -3.1746  -26.7506  -49.7020 H         1 UNK         0.3000 
    216 H216       -1.5312  -26.4989  -52.0331 H         1 UNK         0.0600 
    217 H217       -0.9856  -25.7332  -49.1173 H         1 UNK         0.0600 
    218 H218        0.2282  -25.9670  -50.3685 H         1 UNK         0.0600 
    219 H219       -0.7298  -27.3306  -49.8187 H         1 UNK         0.0600 
    220 H220       -3.8085  -24.3509  -51.2166 H         1 UNK         0.3000 
    221 H221       -2.7393  -21.8865  -50.7171 H         1 UNK         0.0600 
    222 H222       -5.1470  -22.3806  -50.5925 H         1 UNK         0.0600 
    223 H223       -5.2389  -22.5636  -52.3464 H         1 UNK         0.0600 
    224 H224       -4.8958  -20.9906  -51.6327 H         1 UNK         0.0600 
    225 H225       -2.7480  -23.3939  -53.8837 H         1 UNK         0.3000 
    226 H226       -2.2234  -21.1528  -55.5119 H         1 UNK         0.0600 
    227 H227       -1.2988  -24.0627  -55.8001 H         1 UNK         0.0600 
    228 H228       -2.8161  -23.3905  -56.3991 H         1 UNK         0.0600 
    229 H229       -1.2892  -22.8621  -57.0869 H         1 UNK         0.0600 
    230 H230       -0.0630  -22.8239  -53.2568 H         1 UNK         0.3000 
    231 H231        2.4122  -21.8236  -54.3569 H         1 UNK         0.0600 
    232 H232        1.7583  -22.8929  -51.5636 H         1 UNK         0.0600 
    233 H233        3.3683  -22.6719  -52.2332 H         1 UNK         0.0600 
    234 H234        2.2861  -23.8669  -52.9337 H         1 UNK         0.0600 
    235 H235       -0.0506  -20.4200  -52.2910 H         1 UNK         0.3000 
    236 H236        1.7307  -18.1559  -51.4850 H         1 UNK         0.0600 
    237 H237        0.5113  -19.1381  -49.6040 H         1 UNK         0.0600 
    238 H238       -0.1733  -17.5736  -49.9645 H         1 UNK         0.0600 
    239 H239       -1.0245  -19.0290  -50.4652 H         1 UNK         0.0600 
    240 H240       -1.4441  -18.9325  -52.9995 H         1 UNK         0.3000 
    241 H241       -1.8526  -16.1343  -53.7105 H         1 UNK         0.0600 
    242 H242       -0.6374  -17.9583  -57.0681 H         1 UNK         0.3800 
    243 H243       -0.3454  -18.6866  -55.5144 H         1 UNK         0.3800 
    244 H244       -3.7412  -18.4663  -54.2107 H         1 UNK         0.0800 
    245 H245       -4.1449  -16.7683  -54.2036 H         1 UNK         0.0800 
    246 H246       -4.7840  -15.4036  -51.8852 H         1 UNK         0.0800 
    247 H247       -3.0357  -15.3914  -51.8578 H         1 UNK         0.0800 
@<TRIPOS>BOND
     1    1    2 1    
     2    1  127 1    
     3    1  128 1    
     4    1  129 1    
     5    2    3 2    
     6    2    4 am   BACKBONE|DICT|INTERRES
     7    4    5 1    
     8    4  130 1    
     9    5    6 1    
    10    5   65 1    
    11    5  131 1    
    12    6    7 1    
    13    6  132 1    
    14    6  133 1    
    15    7    8 1    
    16    8    9 1    
    17    8  134 1    
    18    8  135 1    
    19    9   10 ar   
    20    9   14 ar   
    21   10   11 ar   
    22   10  136 1    
    23   11   12 ar   
    24   11  126 1    
    25   12   13 ar   
    26   12  137 1    
    27   13   14 ar   
    28   13   15 1    
    29   14  138 1    
    30   15   16 1    
    31   15  139 1    
    32   15  140 1    
    33   16   17 1    
    34   17   18 1    
    35   17  141 1    
    36   17  142 1    
    37   18   19 1    
    38   18   67 1    
    39   18  143 1    
    40   19   20 am   BACKBONE|DICT|INTERRES
    41   19  144 1    
    42   20   21 2    
    43   20   22 1    
    44   22   23 1    
    45   22   24 1    
    46   22  145 1    
    47   23  146 1    
    48   23  147 1    
    49   23  148 1    
    50   24   25 am   BACKBONE|DICT|INTERRES
    51   24  149 1    
    52   25   26 2    
    53   25   27 1    
    54   27   28 1    
    55   27   29 1    
    56   27  150 1    
    57   28  151 1    
    58   28  152 1    
    59   28  153 1    
    60   29   30 am   BACKBONE|DICT|INTERRES
    61   29  154 1    
    62   30   31 2    
    63   30   32 1    
    64   32   33 1    
    65   32   34 1    
    66   32  155 1    
    67   33  156 1    
    68   33  157 1    
    69   33  158 1    
    70   34   35 am   BACKBONE|DICT|INTERRES
    71   34  159 1    
    72   35   36 2    
    73   35   37 1    
    74   37   38 1    
    75   37   39 1    
    76   37  160 1    
    77   38  161 1    
    78   38  162 1    
    79   38  163 1    
    80   39   40 am   BACKBONE|DICT|INTERRES
    81   39  164 1    
    82   40   41 2    
    83   40   42 1    
    84   42   43 1    
    85   42   44 1    
    86   42  165 1    
    87   43  166 1    
    88   43  167 1    
    89   43  168 1    
    90   44   45 am   BACKBONE|DICT|INTERRES
    91   44  169 1    
    92   45   46 2    
    93   45   47 1    
    94   47   48 1    
    95   47   49 1    
    96   47  170 1    
    97   48  171 1    
    98   48  172 1    
    99   48  173 1    
   100   49   50 am   BACKBONE|DICT|INTERRES
   101   49  174 1    
   102   50   51 2    
   103   50   52 1    
   104   52   53 1    
   105   52   54 1    
   106   52  175 1    
   107   53  176 1    
   108   53  177 1    
   109   53  178 1    
   110   54   55 am   BACKBONE|DICT|INTERRES
   111   54  179 1    
   112   55   56 2    
   113   55   57 1    
   114   57   58 1    
   115   57   59 1    
   116   57  180 1    
   117   58  181 1    
   118   58  182 1    
   119   58  183 1    
   120   59   60 am   BACKBONE|DICT|INTERRES
   121   59  184 1    
   122   60   61 2    
   123   60   62 1    
   124   62   63 1    
   125   62   64 1    
   126   62  185 1    
   127   63  186 1    
   128   63  187 1    
   129   63  188 1    
   130   64   65 am   BACKBONE|DICT|INTERRES
   131   64  189 1    
   132   65   66 2    
   133   67   68 2    
   134   67   69 am   BACKBONE|DICT|INTERRES
   135   69   70 1    
   136   69  190 1    
   137   70   71 1    
   138   70   72 1    
   139   70  191 1    
   140   71  192 1    
   141   71  193 1    
   142   71  194 1    
   143   72   73 2    
   144   72   74 am   BACKBONE|DICT|INTERRES
   145   74   75 1    
   146   74  195 1    
   147   75   76 1    
   148   75   77 1    
   149   75  196 1    
   150   76  197 1    
   151   76  198 1    
   152   76  199 1    
   153   77   78 2    
   154   77   79 am   BACKBONE|DICT|INTERRES
   155   79   80 1    
   156   79  200 1    
   157   80   81 1    
   158   80   82 1    
   159   80  201 1    
   160   81  202 1    
   161   81  203 1    
   162   81  204 1    
   163   82   83 2    
   164   82   84 am   BACKBONE|DICT|INTERRES
   165   84   85 1    
   166   84  205 1    
   167   85   86 1    
   168   85   87 1    
   169   85  206 1    
   170   86  207 1    
   171   86  208 1    
   172   86  209 1    
   173   87   88 2    
   174   87   89 am   BACKBONE|DICT|INTERRES
   175   89   90 1    
   176   89  210 1    
   177   90   91 1    
   178   90   92 1    
   179   90  211 1    
   180   91  212 1    
   181   91  213 1    
   182   91  214 1    
   183   92   93 2    
   184   92   94 am   BACKBONE|DICT|INTERRES
   185   94   95 1    
   186   94  215 1    
   187   95   96 1    
   188   95   97 1    
   189   95  216 1    
   190   96  217 1    
   191   96  218 1    
   192   96  219 1    
   193   97   98 2    
   194   97   99 am   BACKBONE|DICT|INTERRES
   195   99  100 1    
   196   99  220 1    
   197  100  101 1    
   198  100  102 1    
   199  100  221 1    
   200  101  222 1    
   201  101  223 1    
   202  101  224 1    
   203  102  103 2    
   204  102  104 am   BACKBONE|DICT|INTERRES
   205  104  105 1    
   206  104  225 1    
   207  105  106 1    
   208  105  107 1    
   209  105  226 1    
   210  106  227 1    
   211  106  228 1    
   212  106  229 1    
   213  107  108 2    
   214  107  109 am   BACKBONE|DICT|INTERRES
   215  109  110 1    
   216  109  230 1    
   217  110  111 1    
   218  110  112 1    
   219  110  231 1    
   220  111  232 1    
   221  111  233 1    
   222  111  234 1    
   223  112  113 2    
   224  112  114 am   BACKBONE|DICT|INTERRES
   225  114  115 1    
   226  114  235 1    
   227  115  116 1    
   228  115  117 1    
   229  115  236 1    
   230  116  237 1    
   231  116  238 1    
   232  116  239 1    
   233  117  118 2    
   234  117  119 am   BACKBONE|DICT|INTERRES
   235  119  120 1    
   236  119  240 1    
   237  120  121 1    
   238  120  124 1    
   239  120  241 1    
   240  121  122 am   BACKBONE|DICT|INTERRES
   241  121  123 2    
   242  122  242 1    
   243  122  243 1    
   244  124  125 1    
   245  124  244 1    
   246  124  245 1    
   247  125  126 1    
   248  126  246 1    
   249  126  247 1    
@<TRIPOS>SUBSTRUCTURE
     1 UNK         1 GROUP             0       ****    0 ROOT    
