@<TRIPOS>MOLECULE
3R540
247   249    1
SMALL
USER_CHARGES


@<TRIPOS>ATOM
      1 CA         -3.6309  -15.2969  -42.1347 C.3       0 UNK        -0.1800 
      2 C          -2.6357  -14.3361  -42.7650 C.2       0 UNK         0.5000 
      3 O          -1.4727  -14.3076  -42.3616 O.2       0 UNK        -0.5000 
      4 N          -3.0768  -13.5561  -43.7635 N.am      1 UNK        -0.5000 
      5 CA         -2.2802  -12.5110  -44.4261 C.3       1 UNK         0.1400 
      6 C6         -3.1725  -11.4857  -45.1800 C.3       23 UNK        -0.0398 
      7 S7         -3.5007  -11.7759  -46.9549 S.3       23 UNK        -0.2404 
      8 C8         -4.9353  -12.9016  -46.9322 C.3       23 UNK        -0.0205 
      9 C9         -4.5570  -14.3666  -47.1298 C.ar      23 UNK        -0.0193 
     10 C10        -3.6429  -14.7416  -48.1209 C.ar      23 UNK        -0.1150 
     11 C11        -3.3415  -16.0863  -48.3467 C.ar      23 UNK        -0.0193 
     12 C12        -3.9762  -17.0697  -47.5839 C.ar      23 UNK        -0.1150 
     13 C13        -4.8944  -16.7121  -46.5910 C.ar      23 UNK        -0.0193 
     14 C14        -5.1753  -15.3606  -46.3652 C.ar      23 UNK        -0.1150 
     15 C15        -5.6176  -17.7840  -45.7894 C.3       23 UNK        -0.0205 
     16 S16        -4.9351  -17.9929  -44.1125 S.3       23 UNK        -0.2404 
     17 C17        -3.2216  -18.5571  -44.4113 C.3       23 UNK        -0.0398 
     18 CA         -3.0894  -19.8894  -45.1887 C.3       11 UNK         0.1400 
     19 N          -1.6964  -20.2038  -45.5151 N.am      11 UNK        -0.5000 
     20 C          -1.3292  -21.0516  -46.4870 C.2       10 UNK         0.5000 
     21 O          -2.1271  -21.6001  -47.2457 O.2       10 UNK        -0.5000 
     22 CA          0.1686  -21.3844  -46.6024 C.3       10 UNK         0.1400 
     23 CB          0.8876  -20.3721  -47.5042 C.3       10 UNK        -0.1800 
     24 N           0.8240  -21.4441  -45.2953 N.am      10 UNK        -0.5000 
     25 C           0.5965  -22.4169  -44.3986 C.2       9 UNK         0.5000 
     26 O          -0.1517  -23.3697  -44.6118 O.2       9 UNK        -0.5000 
     27 CA          1.2697  -22.2905  -43.0178 C.3       9 UNK         0.1400 
     28 CB          2.6343  -22.9949  -43.0222 C.3       9 UNK        -0.1800 
     29 N           1.4486  -20.9082  -42.5770 N.am      9 UNK        -0.5000 
     30 C           0.4746  -19.9998  -42.4236 C.2       8 UNK         0.5000 
     31 O          -0.7228  -20.2498  -42.5674 O.2       8 UNK        -0.5000 
     32 CA          0.9218  -18.5535  -42.1288 C.3       8 UNK         0.1400 
     33 CB          0.7897  -18.2390  -40.6323 C.3       8 UNK        -0.1800 
     34 N           2.2924  -18.2571  -42.5674 N.am      8 UNK        -0.5000 
     35 C           2.7077  -18.2955  -43.8415 C.2       7 UNK         0.5000 
     36 O           1.9728  -18.6246  -44.7747 O.2       7 UNK        -0.5000 
     37 CA          4.1826  -17.9176  -44.0838 C.3       7 UNK         0.1400 
     38 CB          5.1323  -19.0589  -43.6670 C.3       7 UNK        -0.1800 
     39 N           4.4219  -17.4645  -45.4586 N.am      7 UNK        -0.5000 
     40 C           4.4504  -18.1883  -46.5879 C.2       6 UNK         0.5000 
     41 O           4.4425  -19.4196  -46.6222 O.2       6 UNK        -0.5000 
     42 CA          4.4952  -17.4044  -47.9140 C.3       6 UNK         0.1400 
     43 CB          3.4595  -17.9402  -48.9216 C.3       6 UNK        -0.1800 
     44 N           4.2701  -15.9661  -47.7331 N.am      6 UNK        -0.5000 
     45 C           4.8902  -15.0034  -48.4253 C.2       5 UNK         0.5000 
     46 O           5.8349  -15.2117  -49.1879 O.2       5 UNK        -0.5000 
     47 CA          4.3498  -13.5714  -48.2784 C.3       5 UNK         0.1400 
     48 CB          3.0389  -13.4173  -49.0687 C.3       5 UNK        -0.1800 
     49 N           4.1079  -13.1798  -46.8867 N.am      5 UNK        -0.5000 
     50 C           4.6789  -12.1235  -46.2889 C.2       4 UNK         0.5000 
     51 O           5.5909  -11.4696  -46.7977 O.2       4 UNK        -0.5000 
     52 CA          4.1315  -11.6730  -44.9172 C.3       4 UNK         0.1400 
     53 CB          3.4265  -10.3126  -45.0475 C.3       4 UNK        -0.1800 
     54 N           3.1858  -12.6153  -44.3210 N.am      4 UNK        -0.5000 
     55 C           3.5246  -13.6263  -43.5119 C.2       3 UNK         0.5000 
     56 O           4.6816  -13.8771  -43.1746 O.2       3 UNK        -0.5000 
     57 CA          2.3808  -14.5349  -43.0162 C.3       3 UNK         0.1400 
     58 CB          1.8385  -14.0283  -41.6724 C.3       3 UNK        -0.1800 
     59 N           1.2620  -14.6963  -43.9508 N.am      3 UNK        -0.5000 
     60 C           1.3501  -15.0361  -45.2470 C.2       2 UNK         0.5000 
     61 O           2.4152  -15.2515  -45.8221 O.2       2 UNK        -0.5000 
     62 CA          0.0465  -15.1336  -46.0585 C.3       2 UNK         0.1400 
     63 CB         -0.3455  -16.6113  -46.1795 C.3       2 UNK        -0.1800 
     64 N          -1.0674  -14.3775  -45.4863 N.am      2 UNK        -0.5000 
     65 C          -1.0835  -13.0570  -45.2432 C.2       1 UNK         0.5000 
     66 O          -0.1745  -12.2929  -45.5735 O.2       1 UNK        -0.5000 
     67 C          -3.7728  -21.0764  -44.4803 C.2       11 UNK         0.5000 
     68 O          -4.9124  -21.3979  -44.8164 O.2       11 UNK        -0.5000 
     69 N          -3.0511  -21.7571  -43.5767 N.am      12 UNK        -0.5000 
     70 CA         -3.5050  -22.9850  -42.9125 C.3       12 UNK         0.1400 
     71 CB         -2.4821  -23.4025  -41.8464 C.3       12 UNK        -0.1800 
     72 C          -3.7727  -24.1414  -43.8997 C.2       12 UNK         0.5000 
     73 O          -4.7191  -24.9039  -43.7044 O.2       12 UNK        -0.5000 
     74 N          -2.9672  -24.2130  -44.9680 N.am      13 UNK        -0.5000 
     75 CA         -3.1330  -25.1237  -46.1022 C.3       13 UNK         0.1400 
     76 CB         -1.7676  -25.3030  -46.7868 C.3       13 UNK        -0.1800 
     77 C          -4.1903  -24.6561  -47.1267 C.2       13 UNK         0.5000 
     78 O          -4.3908  -25.3462  -48.1272 O.2       13 UNK        -0.5000 
     79 N          -4.8202  -23.4927  -46.8989 N.am      14 UNK        -0.5000 
     80 CA         -5.8199  -22.8395  -47.7513 C.3       14 UNK         0.1400 
     81 CB         -7.1311  -23.6528  -47.7685 C.3       14 UNK        -0.1800 
     82 C          -5.2824  -22.5331  -49.1634 C.2       14 UNK         0.5000 
     83 O          -5.9536  -22.8171  -50.1561 O.2       14 UNK        -0.5000 
     84 N          -4.0506  -22.0048  -49.2249 N.am      15 UNK        -0.5000 
     85 CA         -3.2662  -21.7355  -50.4339 C.3       15 UNK         0.1400 
     86 CB         -3.9094  -20.6096  -51.2674 C.3       15 UNK        -0.1800 
     87 C          -2.9896  -23.0209  -51.2407 C.2       15 UNK         0.5000 
     88 O          -3.0962  -23.0199  -52.4694 O.2       15 UNK        -0.5000 
     89 N          -2.6715  -24.0994  -50.5074 N.am      16 UNK        -0.5000 
     90 CA         -2.4959  -25.4801  -50.9696 C.3       16 UNK         0.1400 
     91 CB         -1.2498  -25.6020  -51.8705 C.3       16 UNK        -0.1800 
     92 C          -3.7785  -26.0180  -51.6334 C.2       16 UNK         0.5000 
     93 O          -3.7342  -26.4974  -52.7653 O.2       16 UNK        -0.5000 
     94 N          -4.9136  -25.8614  -50.9358 N.am      17 UNK        -0.5000 
     95 CA         -6.2797  -26.1168  -51.4139 C.3       17 UNK         0.1400 
     96 CB         -6.5335  -27.6327  -51.5406 C.3       17 UNK        -0.1800 
     97 C          -6.5992  -25.3365  -52.7105 C.2       17 UNK         0.5000 
     98 O          -7.1470  -25.8951  -53.6624 O.2       17 UNK        -0.5000 
     99 N          -6.1933  -24.0597  -52.7195 N.am      18 UNK        -0.5000 
    100 CA        -6.2433  -23.0840  -53.8111 C.3       18 UNK         0.1400 
    101 CB        -7.7019  -22.7886  -54.2157 C.3       18 UNK        -0.1800 
    102 C         -5.3529  -23.4066  -55.0329 C.2       18 UNK         0.5000 
    103 O         -5.4400  -22.6867  -56.0288 O.2       18 UNK        -0.5000 
    104 N         -4.5004  -24.4409  -54.9612 N.am      19 UNK        -0.5000 
    105 CA        -3.6123  -24.8365  -56.0577 C.3       19 UNK         0.1400 
    106 CB        -3.1537  -26.2897  -55.8685 C.3       19 UNK        -0.1800 
    107 C         -2.3947  -23.9079  -56.2102 C.2       19 UNK         0.5000 
    108 O         -1.9424  -23.6966  -57.3365 O.2       19 UNK        -0.5000 
    109 N         -1.8856  -23.3686  -55.0928 N.am      20 UNK        -0.5000 
    110 CA        -0.7787  -22.4088  -55.0878 C.3       20 UNK         0.1400 
    111 CB         0.0120  -22.5276  -53.7753 C.3       20 UNK        -0.1800 
    112 C         -1.2764  -20.9680  -55.2881 C.2       20 UNK         0.5000 
    113 O         -0.5225  -20.1354  -55.7934 O.2       20 UNK        -0.5000 
    114 N         -2.5269  -20.7000  -54.8773 N.am      21 UNK        -0.5000 
    115 CA        -3.2655  -19.4379  -55.0294 C.3       21 UNK         0.1400 
    116 CB        -3.6742  -19.2460  -56.5039 C.3       21 UNK        -0.1800 
    117 C         -2.5301  -18.2077  -54.4480 C.2       21 UNK         0.5000 
    118 O         -2.6246  -17.1114  -55.0023 O.2       21 UNK        -0.5000 
    119 N         -1.7926  -18.4316  -53.3513 N.am      22 UNK        -0.5000 
    120 CA        -0.9103  -17.4699  -52.6666 C.3       22 UNK         0.1400 
    121 C          0.3858  -17.1051  -53.4571 C.2       22 UNK         0.5000 
    122 N          0.7396  -17.8019  -54.5312 N.am      22 UNK        -0.7600 
    123 O          1.1100  -16.1915  -53.0716 O.2       22 UNK        -0.5000 
    124 C124       -1.6485  -16.2076  -52.1339 C.3       23 UNK        -0.0398 
    125 S125       -3.0720  -16.5861  -51.0515 S.3       23 UNK        -0.2404 
    126 C126       -2.3140  -16.4624  -49.4026 C.3       23 UNK        -0.0205 
    127 H127       -4.5866  -15.2911  -42.6590 H         1 UNK         0.0600 
    128 H128       -3.8100  -15.0210  -41.0957 H         1 UNK         0.0600 
    129 H129       -3.2349  -16.3120  -42.1537 H         1 UNK         0.0600 
    130 H130       -4.0343  -13.6416  -44.0717 H         1 UNK         0.3000 
    131 H131       -1.8183  -11.9506  -43.6098 H         1 UNK         0.0600 
    132 H132       -4.1171  -11.3356  -44.6556 H         1 UNK         0.0800 
    133 H133       -2.6778  -10.5143  -45.1339 H         1 UNK         0.0800 
    134 H134       -5.5026  -12.7627  -46.0110 H         1 UNK         0.0800 
    135 H135       -5.6043  -12.6170  -47.7452 H         1 UNK         0.0800 
    136 H136       -3.1668  -13.9849  -48.7282 H         1 UNK         0.1150 
    137 H137       -3.7566  -18.1107  -47.7714 H         1 UNK         0.1150 
    138 H138       -5.8983  -15.0881  -45.6090 H         1 UNK         0.1150 
    139 H139       -6.6688  -17.5070  -45.6972 H         1 UNK         0.0800 
    140 H140       -5.6150  -18.7374  -46.3182 H         1 UNK         0.0800 
    141 H141       -2.7204  -18.6314  -43.4452 H         1 UNK         0.0800 
    142 H142       -2.7091  -17.7628  -44.9515 H         1 UNK         0.0800 
    143 H143       -3.6049  -19.7634  -46.1407 H         1 UNK         0.0600 
    144 H144       -0.9869  -19.8442  -44.8926 H         1 UNK         0.3000 
    145 H145        0.2526  -22.3670  -47.0714 H         1 UNK         0.0600 
    146 H146        1.9358  -20.6399  -47.6391 H         1 UNK         0.0600 
    147 H147        0.4302  -20.3325  -48.4935 H         1 UNK         0.0600 
    148 H148        0.8545  -19.3678  -47.0861 H         1 UNK         0.0600 
    149 H149        1.4216  -20.6620  -45.0500 H         1 UNK         0.3000 
    150 H150        0.6298  -22.7880  -42.2876 H         1 UNK         0.0600 
    151 H151        2.5342  -24.0379  -43.3259 H         1 UNK         0.0600 
    152 H152        3.0855  -22.9889  -42.0298 H         1 UNK         0.0600 
    153 H153        3.3314  -22.5171  -43.7121 H         1 UNK         0.0600 
    154 H154        2.3999  -20.6016  -42.4411 H         1 UNK         0.3000 
    155 H155        0.2483  -17.8901  -42.6758 H         1 UNK         0.0600 
    156 H156       -0.2273  -18.4230  -40.2831 H         1 UNK         0.0600 
    157 H157        1.0166  -17.1926  -40.4274 H         1 UNK         0.0600 
    158 H158        1.4603  -18.8538  -40.0308 H         1 UNK         0.0600 
    159 H159        2.9472  -18.0024  -41.8419 H         1 UNK         0.3000 
    160 H160        4.4117  -17.0575  -43.4545 H         1 UNK         0.0600 
    161 H161        4.8774  -20.0036  -44.1481 H         1 UNK         0.0600 
    162 H162        5.0891  -19.2272  -42.5905 H         1 UNK         0.0600 
    163 H163        6.1671  -18.8230  -43.9152 H         1 UNK         0.0600 
    164 H164        4.4014  -16.4614  -45.5758 H         1 UNK         0.3000 
    165 H165        5.4931  -17.5740  -48.3230 H         1 UNK         0.0600 
    166 H166        3.5332  -17.4222  -49.8779 H         1 UNK         0.0600 
    167 H167        3.6087  -19.0024  -49.1189 H         1 UNK         0.0600 
    168 H168        2.4419  -17.8136  -48.5500 H         1 UNK         0.0600 
    169 H169        3.5042  -15.7134  -47.1104 H         1 UNK         0.3000 
    170 H170        5.0867  -12.9109  -48.7399 H         1 UNK         0.0600 
    171 H171        3.1728  -13.7063  -50.1120 H         1 UNK         0.0600 
    172 H172        2.2419  -14.0368  -48.6557 H         1 UNK         0.0600 
    173 H173        2.6950  -12.3828  -49.0600 H         1 UNK         0.0600 
    174 H174        3.4129  -13.7160  -46.3786 H         1 UNK         0.3000 
    175 H175        4.9881  -11.5451  -44.2520 H         1 UNK         0.0600 
    176 H176        2.5588  -10.3718  -45.7061 H         1 UNK         0.0600 
    177 H177        3.0865   -9.9504  -44.0771 H         1 UNK         0.0600 
    178 H178        4.0989   -9.5571  -45.4561 H         1 UNK         0.0600 
    179 H179        2.2113  -12.4941  -44.5634 H         1 UNK         0.3000 
    180 H180        2.8068  -15.5211  -42.8474 H         1 UNK         0.0600 
    181 H181        1.3406  -13.0637  -41.7793 H         1 UNK         0.0600 
    182 H182        2.6411  -13.9072  -40.9436 H         1 UNK         0.0600 
    183 H183        1.1196  -14.7295  -41.2484 H         1 UNK         0.0600 
    184 H184        0.3389  -14.5407  -43.5615 H         1 UNK         0.3000 
    185 H185        0.2385  -14.7366  -47.0570 H         1 UNK         0.0600 
    186 H186       -0.4403  -17.0843  -45.2015 H         1 UNK         0.0600 
    187 H187       -1.2851  -16.7408  -46.7082 H         1 UNK         0.0600 
    188 H188        0.4161  -17.1595  -46.7334 H         1 UNK         0.0600 
    189 H189       -1.8662  -14.9128  -45.1806 H         1 UNK         0.3000 
    190 H190       -2.1357  -21.4029  -43.3162 H         1 UNK         0.3000 
    191 H191       -4.4458  -22.7552  -42.4082 H         1 UNK         0.0600 
    192 H192       -1.5399  -23.7157  -42.2944 H         1 UNK         0.0600 
    193 H193       -2.2726  -22.5865  -41.1544 H         1 UNK         0.0600 
    194 H194       -2.8564  -24.2415  -41.2586 H         1 UNK         0.0600 
    195 H195       -2.1606  -23.5991  -45.0026 H         1 UNK         0.3000 
    196 H196       -3.4555  -26.0968  -45.7268 H         1 UNK         0.0600 
    197 H197       -1.0186  -25.6639  -46.0817 H         1 UNK         0.0600 
    198 H198       -1.4036  -24.3660  -47.2091 H         1 UNK         0.0600 
    199 H199       -1.8231  -26.0315  -47.5962 H         1 UNK         0.0600 
    200 H200       -4.5908  -22.9831  -46.0534 H         1 UNK         0.3000 
    201 H201       -6.0366  -21.8739  -47.2929 H         1 UNK         0.0600 
    202 H202       -7.9139  -23.1205  -48.3099 H         1 UNK         0.0600 
    203 H203       -7.4980  -23.8270  -46.7570 H         1 UNK         0.0600 
    204 H204       -7.0028  -24.6227  -48.2498 H         1 UNK         0.0600 
    205 H205       -3.5433  -21.8522  -48.3544 H         1 UNK         0.3000 
    206 H206       -2.2924  -21.3772  -50.0974 H         1 UNK         0.0600 
    207 H207       -4.0087  -19.6958  -50.6814 H         1 UNK         0.0600 
    208 H208       -4.8991  -20.8806  -51.6324 H         1 UNK         0.0600 
    209 H209       -3.2970  -20.3726  -52.1338 H         1 UNK         0.0600 
    210 H210       -2.6629  -23.9817  -49.5048 H         1 UNK         0.3000 
    211 H211       -2.3256  -26.0902  -50.0817 H         1 UNK         0.0600 
    212 H212       -0.3654  -25.1959  -51.3798 H         1 UNK         0.0600 
    213 H213       -1.0420  -26.6463  -52.1055 H         1 UNK         0.0600 
    214 H214       -1.3794  -25.0778  -52.8166 H         1 UNK         0.0600 
    215 H215       -4.8382  -25.4867  -49.9932 H         1 UNK         0.3000 
    216 H216       -6.9525  -25.7287  -50.6479 H         1 UNK         0.0600 
    217 H217       -7.5759  -27.8345  -51.7895 H         1 UNK         0.0600 
    218 H218       -5.9178  -28.0833  -52.3197 H         1 UNK         0.0600 
    219 H219       -6.3184  -28.1468  -50.6039 H         1 UNK         0.0600 
    220 H220       -5.8094  -23.6968  -51.8503 H         1 UNK         0.3000 
    221 H221       -5.8333  -22.1650  -53.3926 H         1 UNK         0.0600 
    222 H222       -8.1667  -23.6422  -54.7095 H         1 UNK         0.0600 
    223 H223       -8.3074  -22.5316  -53.3465 H         1 UNK         0.0600 
    224 H224       -7.7552  -21.9456  -54.9055 H         1 UNK         0.0600 
    225 H225       -4.4505  -24.9907  -54.1109 H         1 UNK         0.3000 
    226 H226       -4.1827  -24.7918  -56.9881 H         1 UNK         0.0600 
    227 H227       -4.0000  -26.9560  -55.7001 H         1 UNK         0.0600 
    228 H228       -2.6274  -26.6471  -56.7543 H         1 UNK         0.0600 
    229 H229       -2.4702  -26.3907  -55.0251 H         1 UNK         0.0600 
    230 H230       -2.3389  -23.5482  -54.2012 H         1 UNK         0.3000 
    231 H231       -0.0942  -22.6397  -55.9069 H         1 UNK         0.0600 
    232 H232        0.8731  -21.8582  -53.7805 H         1 UNK         0.0600 
    233 H233        0.3914  -23.5394  -53.6338 H         1 UNK         0.0600 
    234 H234       -0.5929  -22.2693  -52.9072 H         1 UNK         0.0600 
    235 H235       -3.0392  -21.4600  -54.4514 H         1 UNK         0.3000 
    236 H236       -4.1810  -19.5458  -54.4462 H         1 UNK         0.0600 
    237 H237       -4.2130  -20.1167  -56.8783 H         1 UNK         0.0600 
    238 H238       -4.3320  -18.3843  -56.6218 H         1 UNK         0.0600 
    239 H239       -2.8061  -19.0880  -57.1448 H         1 UNK         0.0600 
    240 H240       -1.7628  -19.3739  -52.9944 H         1 UNK         0.3000 
    241 H241       -0.5417  -18.0059  -51.7914 H         1 UNK         0.0600 
    242 H242        1.5865  -17.5537  -55.0169 H         1 UNK         0.3800 
    243 H243        0.1713  -18.5657  -54.8850 H         1 UNK         0.3800 
    244 H244       -0.9579  -15.5604  -51.5919 H         1 UNK         0.0800 
    245 H245       -2.0119  -15.6027  -52.9651 H         1 UNK         0.0800 
    246 H246       -1.5200  -15.7145  -49.4011 H         1 UNK         0.0800 
    247 H247       -1.8389  -17.4130  -49.1549 H         1 UNK         0.0800 
@<TRIPOS>BOND
     1    1    2 1    
     2    1  127 1    
     3    1  128 1    
     4    1  129 1    
     5    2    3 2    
     6    2    4 am   BACKBONE|DICT|INTERRES
     7    4    5 1    
     8    4  130 1    
     9    5    6 1    
    10    5   65 1    
    11    5  131 1    
    12    6    7 1    
    13    6  132 1    
    14    6  133 1    
    15    7    8 1    
    16    8    9 1    
    17    8  134 1    
    18    8  135 1    
    19    9   10 ar   
    20    9   14 ar   
    21   10   11 ar   
    22   10  136 1    
    23   11   12 ar   
    24   11  126 1    
    25   12   13 ar   
    26   12  137 1    
    27   13   14 ar   
    28   13   15 1    
    29   14  138 1    
    30   15   16 1    
    31   15  139 1    
    32   15  140 1    
    33   16   17 1    
    34   17   18 1    
    35   17  141 1    
    36   17  142 1    
    37   18   19 1    
    38   18   67 1    
    39   18  143 1    
    40   19   20 am   BACKBONE|DICT|INTERRES
    41   19  144 1    
    42   20   21 2    
    43   20   22 1    
    44   22   23 1    
    45   22   24 1    
    46   22  145 1    
    47   23  146 1    
    48   23  147 1    
    49   23  148 1    
    50   24   25 am   BACKBONE|DICT|INTERRES
    51   24  149 1    
    52   25   26 2    
    53   25   27 1    
    54   27   28 1    
    55   27   29 1    
    56   27  150 1    
    57   28  151 1    
    58   28  152 1    
    59   28  153 1    
    60   29   30 am   BACKBONE|DICT|INTERRES
    61   29  154 1    
    62   30   31 2    
    63   30   32 1    
    64   32   33 1    
    65   32   34 1    
    66   32  155 1    
    67   33  156 1    
    68   33  157 1    
    69   33  158 1    
    70   34   35 am   BACKBONE|DICT|INTERRES
    71   34  159 1    
    72   35   36 2    
    73   35   37 1    
    74   37   38 1    
    75   37   39 1    
    76   37  160 1    
    77   38  161 1    
    78   38  162 1    
    79   38  163 1    
    80   39   40 am   BACKBONE|DICT|INTERRES
    81   39  164 1    
    82   40   41 2    
    83   40   42 1    
    84   42   43 1    
    85   42   44 1    
    86   42  165 1    
    87   43  166 1    
    88   43  167 1    
    89   43  168 1    
    90   44   45 am   BACKBONE|DICT|INTERRES
    91   44  169 1    
    92   45   46 2    
    93   45   47 1    
    94   47   48 1    
    95   47   49 1    
    96   47  170 1    
    97   48  171 1    
    98   48  172 1    
    99   48  173 1    
   100   49   50 am   BACKBONE|DICT|INTERRES
   101   49  174 1    
   102   50   51 2    
   103   50   52 1    
   104   52   53 1    
   105   52   54 1    
   106   52  175 1    
   107   53  176 1    
   108   53  177 1    
   109   53  178 1    
   110   54   55 am   BACKBONE|DICT|INTERRES
   111   54  179 1    
   112   55   56 2    
   113   55   57 1    
   114   57   58 1    
   115   57   59 1    
   116   57  180 1    
   117   58  181 1    
   118   58  182 1    
   119   58  183 1    
   120   59   60 am   BACKBONE|DICT|INTERRES
   121   59  184 1    
   122   60   61 2    
   123   60   62 1    
   124   62   63 1    
   125   62   64 1    
   126   62  185 1    
   127   63  186 1    
   128   63  187 1    
   129   63  188 1    
   130   64   65 am   BACKBONE|DICT|INTERRES
   131   64  189 1    
   132   65   66 2    
   133   67   68 2    
   134   67   69 am   BACKBONE|DICT|INTERRES
   135   69   70 1    
   136   69  190 1    
   137   70   71 1    
   138   70   72 1    
   139   70  191 1    
   140   71  192 1    
   141   71  193 1    
   142   71  194 1    
   143   72   73 2    
   144   72   74 am   BACKBONE|DICT|INTERRES
   145   74   75 1    
   146   74  195 1    
   147   75   76 1    
   148   75   77 1    
   149   75  196 1    
   150   76  197 1    
   151   76  198 1    
   152   76  199 1    
   153   77   78 2    
   154   77   79 am   BACKBONE|DICT|INTERRES
   155   79   80 1    
   156   79  200 1    
   157   80   81 1    
   158   80   82 1    
   159   80  201 1    
   160   81  202 1    
   161   81  203 1    
   162   81  204 1    
   163   82   83 2    
   164   82   84 am   BACKBONE|DICT|INTERRES
   165   84   85 1    
   166   84  205 1    
   167   85   86 1    
   168   85   87 1    
   169   85  206 1    
   170   86  207 1    
   171   86  208 1    
   172   86  209 1    
   173   87   88 2    
   174   87   89 am   BACKBONE|DICT|INTERRES
   175   89   90 1    
   176   89  210 1    
   177   90   91 1    
   178   90   92 1    
   179   90  211 1    
   180   91  212 1    
   181   91  213 1    
   182   91  214 1    
   183   92   93 2    
   184   92   94 am   BACKBONE|DICT|INTERRES
   185   94   95 1    
   186   94  215 1    
   187   95   96 1    
   188   95   97 1    
   189   95  216 1    
   190   96  217 1    
   191   96  218 1    
   192   96  219 1    
   193   97   98 2    
   194   97   99 am   BACKBONE|DICT|INTERRES
   195   99  100 1    
   196   99  220 1    
   197  100  101 1    
   198  100  102 1    
   199  100  221 1    
   200  101  222 1    
   201  101  223 1    
   202  101  224 1    
   203  102  103 2    
   204  102  104 am   BACKBONE|DICT|INTERRES
   205  104  105 1    
   206  104  225 1    
   207  105  106 1    
   208  105  107 1    
   209  105  226 1    
   210  106  227 1    
   211  106  228 1    
   212  106  229 1    
   213  107  108 2    
   214  107  109 am   BACKBONE|DICT|INTERRES
   215  109  110 1    
   216  109  230 1    
   217  110  111 1    
   218  110  112 1    
   219  110  231 1    
   220  111  232 1    
   221  111  233 1    
   222  111  234 1    
   223  112  113 2    
   224  112  114 am   BACKBONE|DICT|INTERRES
   225  114  115 1    
   226  114  235 1    
   227  115  116 1    
   228  115  117 1    
   229  115  236 1    
   230  116  237 1    
   231  116  238 1    
   232  116  239 1    
   233  117  118 2    
   234  117  119 am   BACKBONE|DICT|INTERRES
   235  119  120 1    
   236  119  240 1    
   237  120  121 1    
   238  120  124 1    
   239  120  241 1    
   240  121  122 am   BACKBONE|DICT|INTERRES
   241  121  123 2    
   242  122  242 1    
   243  122  243 1    
   244  124  125 1    
   245  124  244 1    
   246  124  245 1    
   247  125  126 1    
   248  126  246 1    
   249  126  247 1    
@<TRIPOS>SUBSTRUCTURE
     1 UNK         1 GROUP             0       ****    0 ROOT    
