@<TRIPOS>MOLECULE
3R540
247   249    1
SMALL
USER_CHARGES


@<TRIPOS>ATOM
      1 CA          6.4068  -10.7536  -47.4630 C.3       0 UNK        -0.1800 
      2 C           5.3174  -11.5651  -46.7786 C.2       0 UNK         0.5000 
      3 O           4.4236  -10.9889  -46.1601 O.2       0 UNK        -0.5000 
      4 N           5.3727  -12.8985  -46.9011 N.am      1 UNK        -0.5000 
      5 CA          4.4307  -13.8550  -46.2977 C.3       1 UNK         0.1400 
      6 C6          4.9761  -15.3192  -46.3983 C.3       23 UNK        -0.0398 
      7 S7          3.8251  -16.6634  -46.8613 S.3       23 UNK        -0.2404 
      8 C8          4.1790  -16.8273  -48.6374 C.3       23 UNK        -0.0205 
      9 C9          3.0039  -17.4680  -49.3525 C.ar      23 UNK        -0.0193 
     10 C10         1.9359  -16.6730  -49.7673 C.ar      23 UNK        -0.1150 
     11 C11         0.8228  -17.2422  -50.3850 C.ar      23 UNK        -0.0193 
     12 C12         0.7805  -18.6271  -50.5789 C.ar      23 UNK        -0.1150 
     13 C13         1.8504  -19.4398  -50.1851 C.ar      23 UNK        -0.0193 
     14 C14         2.9665  -18.8459  -49.5792 C.ar      23 UNK        -0.1150 
     15 C15         1.7718  -20.9469  -50.4436 C.3       23 UNK        -0.0205 
     16 S16         2.7017  -21.9916  -49.2643 S.3       23 UNK        -0.2404 
     17 C17         1.8433  -21.6083  -47.6995 C.3       23 UNK        -0.0398 
     18 CA          1.0160  -22.7696  -47.0962 C.3       11 UNK         0.1400 
     19 N           0.4306  -22.3713  -45.8152 N.am      11 UNK        -0.5000 
     20 C          -0.2566  -23.1618  -44.9804 C.2       10 UNK         0.5000 
     21 O          -0.4316  -24.3655  -45.1617 O.2       10 UNK        -0.5000 
     22 CA         -0.9110  -22.4745  -43.7677 C.3       10 UNK         0.1400 
     23 CB          0.1154  -22.2319  -42.6516 C.3       10 UNK        -0.1800 
     24 N          -1.5578  -21.2106  -44.1252 N.am      10 UNK        -0.5000 
     25 C          -2.5836  -21.0990  -44.9821 C.2       9 UNK         0.5000 
     26 O          -3.1296  -22.0578  -45.5258 O.2       9 UNK        -0.5000 
     27 CA         -3.0424  -19.6746  -45.3324 C.3       9 UNK         0.1400 
     28 CB         -3.9538  -19.0998  -44.2376 C.3       9 UNK        -0.1800 
     29 N          -1.9105  -18.7770  -45.5556 N.am      9 UNK        -0.5000 
     30 C          -1.0804  -18.8538  -46.6053 C.2       8 UNK         0.5000 
     31 O          -1.1932  -19.6805  -47.5105 O.2       8 UNK        -0.5000 
     32 CA          0.0903  -17.8547  -46.6194 C.3       8 UNK         0.1400 
     33 CB         -0.3960  -16.4727  -47.0782 C.3       8 UNK        -0.1800 
     34 N           0.7309  -17.7144  -45.3128 N.am      8 UNK        -0.5000 
     35 C           1.3466  -18.6970  -44.6406 C.2       7 UNK         0.5000 
     36 O           1.4817  -19.8420  -45.0661 O.2       7 UNK        -0.5000 
     37 CA          1.8275  -18.3533  -43.2200 C.3       7 UNK         0.1400 
     38 CB          3.2091  -17.6840  -43.2600 C.3       7 UNK        -0.1800 
     39 N           0.8876  -17.4787  -42.5187 N.am      7 UNK        -0.5000 
     40 C          -0.3805  -17.7811  -42.2160 C.2       6 UNK         0.5000 
     41 O          -0.8871  -18.8822  -42.4325 O.2       6 UNK        -0.5000 
     42 CA         -1.2496  -16.6427  -41.6484 C.3       6 UNK         0.1400 
     43 CB         -0.8360  -16.2708  -40.2115 C.3       6 UNK        -0.1800 
     44 N          -1.3127  -15.4625  -42.5262 N.am      6 UNK        -0.5000 
     45 C          -0.3333  -14.6071  -42.8584 C.2       5 UNK         0.5000 
     46 O           0.8225  -14.6965  -42.4350 O.2       5 UNK        -0.5000 
     47 CA         -0.6973  -13.5155  -43.8884 C.3       5 UNK         0.1400 
     48 CB         -2.0935  -12.8961  -43.6598 C.3       5 UNK        -0.1800 
     49 N           0.3323  -12.4795  -43.9903 N.am      5 UNK        -0.5000 
     50 C           0.6964  -11.5896  -43.0548 C.2       4 UNK         0.5000 
     51 O           0.1405  -11.4584  -41.9630 O.2       4 UNK        -0.5000 
     52 CA          1.8890  -10.6798  -43.4046 C.3       4 UNK         0.1400 
     53 CB          3.2080  -11.3381  -42.9722 C.3       4 UNK        -0.1800 
     54 N           1.9639  -10.3502  -44.8287 N.am      4 UNK        -0.5000 
     55 C           1.0891   -9.5731  -45.4827 C.2       3 UNK         0.5000 
     56 O           0.1277   -9.0199  -44.9474 O.2       3 UNK        -0.5000 
     57 CA          1.3245   -9.3916  -46.9911 C.3       3 UNK         0.1400 
     58 CB          2.3835   -8.3092  -47.2537 C.3       3 UNK        -0.1800 
     59 N           1.7399  -10.6428  -47.6242 N.am      3 UNK        -0.5000 
     60 C           0.8952  -11.5969  -48.0393 C.2       2 UNK         0.5000 
     61 O          -0.3301  -11.5076  -47.9610 O.2       2 UNK        -0.5000 
     62 CA          1.5219  -12.8668  -48.6483 C.3       2 UNK         0.1400 
     63 CB          1.7019  -12.6919  -50.1651 C.3       2 UNK        -0.1800 
     64 N           2.8102  -13.2229  -48.0487 N.am      2 UNK        -0.5000 
     65 C           2.9740  -13.6320  -46.7810 C.2       1 UNK         0.5000 
     66 O           2.0412  -13.7758  -45.9897 O.2       1 UNK        -0.5000 
     67 C          -0.0602  -23.3025  -48.0653 C.2       11 UNK         0.5000 
     68 O           0.0944  -24.4026  -48.5957 O.2       11 UNK        -0.5000 
     69 N          -1.1504  -22.5426  -48.2429 N.am      12 UNK        -0.5000 
     70 CA         -2.2811  -22.9181  -49.0918 C.3       12 UNK         0.1400 
     71 CB         -3.2531  -21.7398  -49.1975 C.3       12 UNK        -0.1800 
     72 C          -3.0162  -24.1808  -48.6127 C.2       12 UNK         0.5000 
     73 O          -3.4440  -24.9776  -49.4490 O.2       12 UNK        -0.5000 
     74 N          -3.1431  -24.3472  -47.2900 N.am      13 UNK        -0.5000 
     75 CA         -3.7100  -25.5350  -46.6548 C.3       13 UNK         0.1400 
     76 CB         -3.9801  -25.2525  -45.1697 C.3       13 UNK        -0.1800 
     77 C          -2.8104  -26.7712  -46.8274 C.2       13 UNK         0.5000 
     78 O          -3.3162  -27.8370  -47.1774 O.2       13 UNK        -0.5000 
     79 N          -1.4946  -26.6041  -46.6273 N.am      14 UNK        -0.5000 
     80 CA         -0.4792  -27.6448  -46.8195 C.3       14 UNK         0.1400 
     81 CB          0.8769  -27.1454  -46.2989 C.3       14 UNK        -0.1800 
     82 C          -0.3626  -28.1074  -48.2840 C.2       14 UNK         0.5000 
     83 O          -0.1765  -29.2986  -48.5346 O.2       14 UNK        -0.5000 
     84 N          -0.5197  -27.1646  -49.2225 N.am      15 UNK        -0.5000 
     85 CA         -0.5978  -27.4119  -50.6634 C.3       15 UNK         0.1400 
     86 CB         -0.3826  -26.0803  -51.4013 C.3       15 UNK        -0.1800 
     87 C          -1.9277  -28.0572  -51.1090 C.2       15 UNK         0.5000 
     88 O          -2.0198  -28.5007  -52.2541 O.2       15 UNK        -0.5000 
     89 N          -2.9319  -28.0739  -50.2175 N.am      16 UNK        -0.5000 
     90 CA         -4.3126  -28.5264  -50.4234 C.3       16 UNK         0.1400 
     91 CB         -4.3631  -30.0408  -50.7137 C.3       16 UNK        -0.1800 
     92 C          -5.0763  -27.6819  -51.4664 C.2       16 UNK         0.5000 
     93 O          -5.9960  -28.1833  -52.1156 O.2       16 UNK        -0.5000 
     94 N          -4.6805  -26.4109  -51.6024 N.am      17 UNK        -0.5000 
     95 CA         -5.2886  -25.4317  -52.4957 C.3       17 UNK         0.1400 
     96 CB         -4.1989  -24.4756  -53.0102 C.3       17 UNK        -0.1800 
     97 C          -6.3961  -24.6559  -51.7689 C.2       17 UNK         0.5000 
     98 O          -7.5028  -24.5419  -52.2978 O.2       17 UNK        -0.5000 
     99 N          -6.0681  -24.1552  -50.5661 N.am      18 UNK        -0.5000 
    100 CA        -6.8924  -23.3028  -49.7010 C.3       18 UNK         0.1400 
    101 CB        -7.9878  -24.1542  -49.0226 C.3       18 UNK        -0.1800 
    102 C         -7.4307  -22.0508  -50.4385 C.2       18 UNK         0.5000 
    103 O         -6.7261  -21.5033  -51.2908 O.2       18 UNK        -0.5000 
    104 N         -8.6605  -21.6289  -50.1063 N.am      19 UNK        -0.5000 
    105 CA        -9.4542  -20.5839  -50.7627 C.3       19 UNK         0.1400 
    106 CB       -10.0110  -21.1251  -52.0994 C.3       19 UNK        -0.1800 
    107 C         -8.7030  -19.2397  -50.8932 C.2       19 UNK         0.5000 
    108 O         -8.3766  -18.6299  -49.8737 O.2       19 UNK        -0.5000 
    109 N         -8.4420  -18.8074  -52.1341 N.am      20 UNK        -0.5000 
    110 CA        -7.7352  -17.5728  -52.4817 C.3       20 UNK         0.1400 
    111 CB        -8.0866  -17.2049  -53.9327 C.3       20 UNK        -0.1800 
    112 C         -6.2045  -17.6479  -52.2982 C.2       20 UNK         0.5000 
    113 O         -5.5335  -16.6295  -52.4817 O.2       20 UNK        -0.5000 
    114 N         -5.6720  -18.8323  -51.9592 N.am      21 UNK        -0.5000 
    115 CA        -4.2558  -19.1309  -51.7484 C.3       21 UNK         0.1400 
    116 CB        -3.7451  -18.4262  -50.4689 C.3       21 UNK        -0.1800 
    117 C         -3.4278  -18.8432  -53.0178 C.2       21 UNK         0.5000 
    118 O         -3.6677  -19.4779  -54.0463 O.2       21 UNK        -0.5000 
    119 N         -2.4889  -17.8956  -52.9313 N.am      22 UNK        -0.5000 
    120 CA        -1.6734  -17.4045  -54.0504 C.3       22 UNK         0.1400 
    121 C         -2.3600  -16.3002  -54.9107 C.2       22 UNK         0.5000 
    122 N         -3.5647  -15.8425  -54.5854 N.am      22 UNK        -0.7600 
    123 O         -1.7958  -15.8621  -55.9097 O.2       22 UNK        -0.5000 
    124 C124       -0.2444  -17.0145  -53.5839 C.3       23 UNK        -0.0398 
    125 S125       -0.1540  -15.5956  -52.4309 S.3       23 UNK        -0.2404 
    126 C126       -0.3483  -16.3580  -50.7876 C.3       23 UNK        -0.0205 
    127 H127        7.1178  -11.3905  -47.9897 H         1 UNK         0.0600 
    128 H128        5.9641  -10.0669  -48.1845 H         1 UNK         0.0600 
    129 H129        6.9550  -10.1676  -46.7254 H         1 UNK         0.0600 
    130 H130        6.1324  -13.3041  -47.4290 H         1 UNK         0.3000 
    131 H131        4.4067  -13.6118  -45.2335 H         1 UNK         0.0600 
    132 H132        5.4041  -15.5954  -45.4336 H         1 UNK         0.0800 
    133 H133        5.8201  -15.3676  -47.0878 H         1 UNK         0.0800 
    134 H134        5.0860  -17.4174  -48.7769 H         1 UNK         0.0800 
    135 H135        4.3750  -15.8454  -49.0711 H         1 UNK         0.0800 
    136 H136        1.9632  -15.6103  -49.5847 H         1 UNK         0.1150 
    137 H137       -0.0886  -19.0743  -51.0404 H         1 UNK         0.1150 
    138 H138        3.8038  -19.4520  -49.2653 H         1 UNK         0.1150 
    139 H139        0.7299  -21.2715  -50.4374 H         1 UNK         0.0800 
    140 H140        2.1491  -21.1413  -51.4481 H         1 UNK         0.0800 
    141 H141        1.2147  -20.7283  -47.8331 H         1 UNK         0.0800 
    142 H142        2.6129  -21.3085  -46.9873 H         1 UNK         0.0800 
    143 H143        1.7007  -23.5948  -46.8900 H         1 UNK         0.0600 
    144 H144        0.5736  -21.4000  -45.5493 H         1 UNK         0.3000 
    145 H145       -1.6818  -23.1444  -43.3813 H         1 UNK         0.0600 
    146 H146       -0.3552  -21.7914  -41.7724 H         1 UNK         0.0600 
    147 H147        0.5797  -23.1680  -42.3390 H         1 UNK         0.0600 
    148 H148        0.9123  -21.5619  -42.9742 H         1 UNK         0.0600 
    149 H149       -1.1948  -20.3704  -43.6852 H         1 UNK         0.3000 
    150 H150       -3.6196  -19.7288  -46.2581 H         1 UNK         0.0600 
    151 H151       -4.8246  -19.7384  -44.0838 H         1 UNK         0.0600 
    152 H152       -4.3215  -18.1105  -44.5100 H         1 UNK         0.0600 
    153 H153       -3.4386  -19.0150  -43.2807 H         1 UNK         0.0600 
    154 H154       -1.7169  -18.1016  -44.8329 H         1 UNK         0.3000 
    155 H155        0.8354  -18.2194  -47.3291 H         1 UNK         0.0600 
    156 H156        0.4443  -15.8009  -47.2526 H         1 UNK         0.0600 
    157 H157       -0.9592  -16.5477  -48.0075 H         1 UNK         0.0600 
    158 H158       -1.0518  -16.0079  -46.3417 H         1 UNK         0.0600 
    159 H159        0.6995  -16.8003  -44.8885 H         1 UNK         0.3000 
    160 H160        1.9091  -19.2851  -42.6572 H         1 UNK         0.0600 
    161 H161        3.5986  -17.5248  -42.2544 H         1 UNK         0.0600 
    162 H162        3.1729  -16.7159  -43.7617 H         1 UNK         0.0600 
    163 H163        3.9296  -18.3045  -43.7946 H         1 UNK         0.0600 
    164 H164        1.1820  -16.5183  -42.3560 H         1 UNK         0.3000 
    165 H165       -2.2696  -17.0273  -41.5982 H         1 UNK         0.0600 
    166 H166       -1.4975  -15.5098  -39.7975 H         1 UNK         0.0600 
    167 H167       -0.8909  -17.1406  -39.5559 H         1 UNK         0.0600 
    168 H168        0.1842  -15.8904  -40.1590 H         1 UNK         0.0600 
    169 H169       -2.2197  -15.3030  -42.9419 H         1 UNK         0.3000 
    170 H170       -0.7082  -14.0065  -44.8621 H         1 UNK         0.0600 
    171 H171       -2.8860  -13.6243  -43.8340 H         1 UNK         0.0600 
    172 H172       -2.2112  -12.5201  -42.6430 H         1 UNK         0.0600 
    173 H173       -2.2704  -12.0661  -44.3442 H         1 UNK         0.0600 
    174 H174        0.9268  -12.5633  -44.8082 H         1 UNK         0.3000 
    175 H175        1.7731   -9.7476  -42.8477 H         1 UNK         0.0600 
    176 H176        3.3735  -12.2809  -43.4940 H         1 UNK         0.0600 
    177 H177        4.0599  -10.6884  -43.1738 H         1 UNK         0.0600 
    178 H178        3.2052  -11.5517  -41.9026 H         1 UNK         0.0600 
    179 H179        2.7665  -10.7125  -45.3375 H         1 UNK         0.3000 
    180 H180        0.3867   -9.0564  -47.4399 H         1 UNK         0.0600 
    181 H181        3.3522   -8.5756  -46.8297 H         1 UNK         0.0600 
    182 H182        2.0841   -7.3575  -46.8131 H         1 UNK         0.0600 
    183 H183        2.5201   -8.1436  -48.3224 H         1 UNK         0.0600 
    184 H184        2.7343  -10.8190  -47.6648 H         1 UNK         0.3000 
    185 H185        0.8282  -13.6923  -48.4774 H         1 UNK         0.0600 
    186 H186        0.7460  -12.4851  -50.6483 H         1 UNK         0.0600 
    187 H187        2.3724  -11.8635  -50.3973 H         1 UNK         0.0600 
    188 H188        2.1087  -13.5886  -50.6311 H         1 UNK         0.0600 
    189 H189        3.6300  -13.1044  -48.6253 H         1 UNK         0.3000 
    190 H190       -1.2015  -21.6324  -47.7939 H         1 UNK         0.3000 
    191 H191       -1.8892  -23.1239  -50.0899 H         1 UNK         0.0600 
    192 H192       -3.6893  -21.4834  -48.2315 H         1 UNK         0.0600 
    193 H193       -4.0694  -21.9618  -49.8850 H         1 UNK         0.0600 
    194 H194       -2.7357  -20.8606  -49.5740 H         1 UNK         0.0600 
    195 H195       -2.8374  -23.6016  -46.6710 H         1 UNK         0.3000 
    196 H196       -4.6668  -25.7496  -47.1358 H         1 UNK         0.0600 
    197 H197       -4.4182  -26.1227  -44.6796 H         1 UNK         0.0600 
    198 H198       -4.6786  -24.4244  -45.0484 H         1 UNK         0.0600 
    199 H199       -3.0657  -24.9980  -44.6336 H         1 UNK         0.0600 
    200 H200       -1.1579  -25.7025  -46.2982 H         1 UNK         0.3000 
    201 H201       -0.7738  -28.5105  -46.2228 H         1 UNK         0.0600 
    202 H202        0.8254  -26.9022  -45.2375 H         1 UNK         0.0600 
    203 H203        1.2079  -26.2527  -46.8304 H         1 UNK         0.0600 
    204 H204        1.6481  -27.9069  -46.4210 H         1 UNK         0.0600 
    205 H205       -0.5775  -26.1935  -48.9271 H         1 UNK         0.3000 
    206 H206        0.2082  -28.0938  -50.9414 H         1 UNK         0.0600 
    207 H207        0.5772  -25.6343  -51.1396 H         1 UNK         0.0600 
    208 H208       -0.3899  -26.2233  -52.4825 H         1 UNK         0.0600 
    209 H209       -1.1636  -25.3583  -51.1606 H         1 UNK         0.0600 
    210 H210       -2.7460  -27.6927  -49.2985 H         1 UNK         0.3000 
    211 H211       -4.8256  -28.3593  -49.4754 H         1 UNK         0.0600 
    212 H212       -3.9393  -30.2825  -51.6887 H         1 UNK         0.0600 
    213 H213       -5.3906  -30.4061  -50.7056 H         1 UNK         0.0600 
    214 H214       -3.8141  -30.6042  -49.9592 H         1 UNK         0.0600 
    215 H215       -3.9705  -26.0638  -50.9649 H         1 UNK         0.3000 
    216 H216       -5.7304  -25.9370  -53.3573 H         1 UNK         0.0600 
    217 H217       -4.6236  -23.7219  -53.6746 H         1 UNK         0.0600 
    218 H218       -3.4382  -25.0162  -53.5738 H         1 UNK         0.0600 
    219 H219       -3.6984  -23.9503  -52.1958 H         1 UNK         0.0600 
    220 H220       -5.1337  -24.3494  -50.2240 H         1 UNK         0.3000 
    221 H221       -6.2298  -22.9317  -48.9181 H         1 UNK         0.0600 
    222 H222       -8.7366  -24.4959  -49.7385 H         1 UNK         0.0600 
    223 H223       -7.5568  -25.0372  -48.5502 H         1 UNK         0.0600 
    224 H224       -8.5011  -23.5969  -48.2384 H         1 UNK         0.0600 
    225 H225       -9.1359  -22.1223  -49.3644 H         1 UNK         0.3000 
    226 H226      -10.3060  -20.3875  -50.1101 H         1 UNK         0.0600 
    227 H227      -10.6119  -22.0195  -51.9336 H         1 UNK         0.0600 
    228 H228      -10.6587  -20.3946  -52.5862 H         1 UNK         0.0600 
    229 H229       -9.2169  -21.3928  -52.7978 H         1 UNK         0.0600 
    230 H230       -8.7270  -19.3898  -52.9081 H         1 UNK         0.3000 
    231 H231       -8.0966  -16.7736  -51.8313 H         1 UNK         0.0600 
    232 H232       -9.1629  -17.0886  -54.0614 H         1 UNK         0.0600 
    233 H233       -7.6241  -16.2603  -54.2222 H         1 UNK         0.0600 
    234 H234       -7.7433  -17.9663  -54.6342 H         1 UNK         0.0600 
    235 H235       -6.2919  -19.6299  -51.8545 H         1 UNK         0.3000 
    236 H236       -4.1909  -20.2068  -51.5856 H         1 UNK         0.0600 
    237 H237       -2.7070  -18.6845  -50.2601 H         1 UNK         0.0600 
    238 H238       -3.8121  -17.3400  -50.5343 H         1 UNK         0.0600 
    239 H239       -4.3278  -18.7355  -49.6009 H         1 UNK         0.0600 
    240 H240       -2.4055  -17.3781  -52.0707 H         1 UNK         0.3000 
    241 H241       -1.5388  -18.2386  -54.7417 H         1 UNK         0.0600 
    242 H242       -4.0694  -16.1947  -53.7786 H         1 UNK         0.3800 
    243 H243       -3.9898  -15.1327  -55.1600 H         1 UNK         0.3800 
    244 H244        0.2465  -17.8787  -53.1396 H         1 UNK         0.0800 
    245 H245        0.3677  -16.7659  -54.4523 H         1 UNK         0.0800 
    246 H246       -0.4514  -15.5480  -50.0646 H         1 UNK         0.0800 
    247 H247       -1.2791  -16.9156  -50.7338 H         1 UNK         0.0800 
@<TRIPOS>BOND
     1    1    2 1    
     2    1  127 1    
     3    1  128 1    
     4    1  129 1    
     5    2    3 2    
     6    2    4 am   BACKBONE|DICT|INTERRES
     7    4    5 1    
     8    4  130 1    
     9    5    6 1    
    10    5   65 1    
    11    5  131 1    
    12    6    7 1    
    13    6  132 1    
    14    6  133 1    
    15    7    8 1    
    16    8    9 1    
    17    8  134 1    
    18    8  135 1    
    19    9   10 ar   
    20    9   14 ar   
    21   10   11 ar   
    22   10  136 1    
    23   11   12 ar   
    24   11  126 1    
    25   12   13 ar   
    26   12  137 1    
    27   13   14 ar   
    28   13   15 1    
    29   14  138 1    
    30   15   16 1    
    31   15  139 1    
    32   15  140 1    
    33   16   17 1    
    34   17   18 1    
    35   17  141 1    
    36   17  142 1    
    37   18   19 1    
    38   18   67 1    
    39   18  143 1    
    40   19   20 am   BACKBONE|DICT|INTERRES
    41   19  144 1    
    42   20   21 2    
    43   20   22 1    
    44   22   23 1    
    45   22   24 1    
    46   22  145 1    
    47   23  146 1    
    48   23  147 1    
    49   23  148 1    
    50   24   25 am   BACKBONE|DICT|INTERRES
    51   24  149 1    
    52   25   26 2    
    53   25   27 1    
    54   27   28 1    
    55   27   29 1    
    56   27  150 1    
    57   28  151 1    
    58   28  152 1    
    59   28  153 1    
    60   29   30 am   BACKBONE|DICT|INTERRES
    61   29  154 1    
    62   30   31 2    
    63   30   32 1    
    64   32   33 1    
    65   32   34 1    
    66   32  155 1    
    67   33  156 1    
    68   33  157 1    
    69   33  158 1    
    70   34   35 am   BACKBONE|DICT|INTERRES
    71   34  159 1    
    72   35   36 2    
    73   35   37 1    
    74   37   38 1    
    75   37   39 1    
    76   37  160 1    
    77   38  161 1    
    78   38  162 1    
    79   38  163 1    
    80   39   40 am   BACKBONE|DICT|INTERRES
    81   39  164 1    
    82   40   41 2    
    83   40   42 1    
    84   42   43 1    
    85   42   44 1    
    86   42  165 1    
    87   43  166 1    
    88   43  167 1    
    89   43  168 1    
    90   44   45 am   BACKBONE|DICT|INTERRES
    91   44  169 1    
    92   45   46 2    
    93   45   47 1    
    94   47   48 1    
    95   47   49 1    
    96   47  170 1    
    97   48  171 1    
    98   48  172 1    
    99   48  173 1    
   100   49   50 am   BACKBONE|DICT|INTERRES
   101   49  174 1    
   102   50   51 2    
   103   50   52 1    
   104   52   53 1    
   105   52   54 1    
   106   52  175 1    
   107   53  176 1    
   108   53  177 1    
   109   53  178 1    
   110   54   55 am   BACKBONE|DICT|INTERRES
   111   54  179 1    
   112   55   56 2    
   113   55   57 1    
   114   57   58 1    
   115   57   59 1    
   116   57  180 1    
   117   58  181 1    
   118   58  182 1    
   119   58  183 1    
   120   59   60 am   BACKBONE|DICT|INTERRES
   121   59  184 1    
   122   60   61 2    
   123   60   62 1    
   124   62   63 1    
   125   62   64 1    
   126   62  185 1    
   127   63  186 1    
   128   63  187 1    
   129   63  188 1    
   130   64   65 am   BACKBONE|DICT|INTERRES
   131   64  189 1    
   132   65   66 2    
   133   67   68 2    
   134   67   69 am   BACKBONE|DICT|INTERRES
   135   69   70 1    
   136   69  190 1    
   137   70   71 1    
   138   70   72 1    
   139   70  191 1    
   140   71  192 1    
   141   71  193 1    
   142   71  194 1    
   143   72   73 2    
   144   72   74 am   BACKBONE|DICT|INTERRES
   145   74   75 1    
   146   74  195 1    
   147   75   76 1    
   148   75   77 1    
   149   75  196 1    
   150   76  197 1    
   151   76  198 1    
   152   76  199 1    
   153   77   78 2    
   154   77   79 am   BACKBONE|DICT|INTERRES
   155   79   80 1    
   156   79  200 1    
   157   80   81 1    
   158   80   82 1    
   159   80  201 1    
   160   81  202 1    
   161   81  203 1    
   162   81  204 1    
   163   82   83 2    
   164   82   84 am   BACKBONE|DICT|INTERRES
   165   84   85 1    
   166   84  205 1    
   167   85   86 1    
   168   85   87 1    
   169   85  206 1    
   170   86  207 1    
   171   86  208 1    
   172   86  209 1    
   173   87   88 2    
   174   87   89 am   BACKBONE|DICT|INTERRES
   175   89   90 1    
   176   89  210 1    
   177   90   91 1    
   178   90   92 1    
   179   90  211 1    
   180   91  212 1    
   181   91  213 1    
   182   91  214 1    
   183   92   93 2    
   184   92   94 am   BACKBONE|DICT|INTERRES
   185   94   95 1    
   186   94  215 1    
   187   95   96 1    
   188   95   97 1    
   189   95  216 1    
   190   96  217 1    
   191   96  218 1    
   192   96  219 1    
   193   97   98 2    
   194   97   99 am   BACKBONE|DICT|INTERRES
   195   99  100 1    
   196   99  220 1    
   197  100  101 1    
   198  100  102 1    
   199  100  221 1    
   200  101  222 1    
   201  101  223 1    
   202  101  224 1    
   203  102  103 2    
   204  102  104 am   BACKBONE|DICT|INTERRES
   205  104  105 1    
   206  104  225 1    
   207  105  106 1    
   208  105  107 1    
   209  105  226 1    
   210  106  227 1    
   211  106  228 1    
   212  106  229 1    
   213  107  108 2    
   214  107  109 am   BACKBONE|DICT|INTERRES
   215  109  110 1    
   216  109  230 1    
   217  110  111 1    
   218  110  112 1    
   219  110  231 1    
   220  111  232 1    
   221  111  233 1    
   222  111  234 1    
   223  112  113 2    
   224  112  114 am   BACKBONE|DICT|INTERRES
   225  114  115 1    
   226  114  235 1    
   227  115  116 1    
   228  115  117 1    
   229  115  236 1    
   230  116  237 1    
   231  116  238 1    
   232  116  239 1    
   233  117  118 2    
   234  117  119 am   BACKBONE|DICT|INTERRES
   235  119  120 1    
   236  119  240 1    
   237  120  121 1    
   238  120  124 1    
   239  120  241 1    
   240  121  122 am   BACKBONE|DICT|INTERRES
   241  121  123 2    
   242  122  242 1    
   243  122  243 1    
   244  124  125 1    
   245  124  244 1    
   246  124  245 1    
   247  125  126 1    
   248  126  246 1    
   249  126  247 1    
@<TRIPOS>SUBSTRUCTURE
     1 UNK         1 GROUP             0       ****    0 ROOT    
