@<TRIPOS>MOLECULE
3R540
247   249    1
SMALL
USER_CHARGES


@<TRIPOS>ATOM
      1 CA         -5.0706  -16.2811  -48.6075 C.3       0 UNK        -0.1800 
      2 C          -3.9242  -15.2871  -48.4902 C.2       0 UNK         0.5000 
      3 O          -4.1603  -14.0799  -48.4397 O.2       0 UNK        -0.5000 
      4 N          -2.6842  -15.7892  -48.4504 N.am      1 UNK        -0.5000 
      5 CA         -1.4665  -15.0008  -48.2625 C.3       1 UNK         0.1400 
      6 C6         -0.2141  -15.7786  -48.7376 C.3       23 UNK        -0.0398 
      7 S7          1.2649  -14.7155  -48.8715 S.3       23 UNK        -0.2404 
      8 C8          1.6214  -14.7662  -50.6570 C.3       23 UNK        -0.0205 
      9 C9          2.0030  -16.1568  -51.1512 C.ar      23 UNK        -0.0193 
     10 C10         1.3320  -16.7171  -52.2418 C.ar      23 UNK        -0.1150 
     11 C11         1.6896  -17.9784  -52.7252 C.ar      23 UNK        -0.0193 
     12 C12         2.7245  -18.6844  -52.1054 C.ar      23 UNK        -0.1150 
     13 C13         3.4038  -18.1385  -51.0111 C.ar      23 UNK        -0.0193 
     14 C14         3.0404  -16.8723  -50.5430 C.ar      23 UNK        -0.1150 
     15 C15         4.5615  -18.8901  -50.3655 C.3       23 UNK        -0.0205 
     16 S16         4.0954  -20.5432  -49.7586 S.3       23 UNK        -0.2404 
     17 C17         3.1550  -20.1490  -48.2458 C.3       23 UNK        -0.0398 
     18 CA          2.2304  -21.3221  -47.8274 C.3       11 UNK         0.1400 
     19 N           2.0430  -21.3917  -46.3751 N.am      11 UNK        -0.5000 
     20 C           1.5700  -22.4633  -45.7215 C.2       10 UNK         0.5000 
     21 O           1.3146  -23.5384  -46.2640 O.2       10 UNK        -0.5000 
     22 CA          1.3055  -22.3017  -44.2124 C.3       10 UNK         0.1400 
     23 CB          2.5749  -22.6036  -43.4022 C.3       10 UNK        -0.1800 
     24 N           0.8015  -20.9727  -43.8627 N.am      10 UNK        -0.5000 
     25 C          -0.3789  -20.4798  -44.2639 C.2       9 UNK         0.5000 
     26 O          -1.1975  -21.1271  -44.9156 O.2       9 UNK        -0.5000 
     27 CA         -0.6702  -19.0037  -43.9339 C.3       9 UNK         0.1400 
     28 CB         -1.2179  -18.8619  -42.5072 C.3       9 UNK        -0.1800 
     29 N           0.5031  -18.1448  -44.0955 N.am      9 UNK        -0.5000 
     30 C           1.1583  -17.9518  -45.2498 C.2       8 UNK         0.5000 
     31 O           0.8292  -18.4656  -46.3180 O.2       8 UNK        -0.5000 
     32 CA          2.4430  -17.1097  -45.1822 C.3       8 UNK         0.1400 
     33 CB          2.1266  -15.6119  -45.1250 C.3       8 UNK        -0.1800 
     34 N           3.2539  -17.4727  -44.0230 N.am      8 UNK        -0.5000 
     35 C           3.9341  -18.6203  -43.9072 C.2       7 UNK         0.5000 
     36 O           3.9840  -19.4781  -44.7889 O.2       7 UNK        -0.5000 
     37 CA          4.6464  -18.8593  -42.5634 C.3       7 UNK         0.1400 
     38 CB          6.0304  -18.1934  -42.5578 C.3       7 UNK        -0.1800 
     39 N           3.8689  -18.3742  -41.4200 N.am      7 UNK        -0.5000 
     40 C           2.7091  -18.9130  -41.0190 C.2       6 UNK         0.5000 
     41 O           2.1827  -19.8810  -41.5654 O.2       6 UNK        -0.5000 
     42 CA          1.9992  -18.2373  -39.8325 C.3       6 UNK         0.1400 
     43 CB          2.5551  -18.7633  -38.5008 C.3       6 UNK        -0.1800 
     44 N           2.0752  -16.7738  -39.8472 N.am      6 UNK        -0.5000 
     45 C           1.5671  -15.9928  -40.8089 C.2       5 UNK         0.5000 
     46 O           1.0591  -16.4217  -41.8467 O.2       5 UNK        -0.5000 
     47 CA          1.6338  -14.4768  -40.5755 C.3       5 UNK         0.1400 
     48 CB          2.4694  -13.7803  -41.6608 C.3       5 UNK        -0.1800 
     49 N           0.2798  -13.9319  -40.5836 N.am      5 UNK        -0.5000 
     50 C          -0.5303  -13.8977  -39.5175 C.2       4 UNK         0.5000 
     51 O          -0.1871  -14.2427  -38.3859 O.2       4 UNK        -0.5000 
     52 CA         -1.9675  -13.3971  -39.7544 C.3       4 UNK         0.1400 
     53 CB         -2.0423  -11.8724  -39.5821 C.3       4 UNK        -0.1800 
     54 N          -2.4841  -13.7528  -41.0763 N.am      4 UNK        -0.5000 
     55 C          -2.8414  -14.9836  -41.4611 C.2       3 UNK         0.5000 
     56 O          -2.7972  -15.9637  -40.7175 O.2       3 UNK        -0.5000 
     57 CA         -3.3262  -15.1633  -42.9151 C.3       3 UNK         0.1400 
     58 CB         -4.8421  -14.9185  -43.0301 C.3       3 UNK        -0.1800 
     59 N          -2.5842  -14.3869  -43.9172 N.am      3 UNK        -0.5000 
     60 C          -2.5048  -13.0637  -44.1029 C.2       2 UNK         0.5000 
     61 O          -3.0873  -12.2399  -43.3971 O.2       2 UNK        -0.5000 
     62 CA         -1.5917  -12.5590  -45.2397 C.3       2 UNK         0.1400 
     63 CB         -0.1353  -12.4608  -44.7503 C.3       2 UNK        -0.1800 
     64 N          -1.6686  -13.2935  -46.5125 N.am      2 UNK        -0.5000 
     65 C          -1.3632  -14.5704  -46.7847 C.2       1 UNK         0.5000 
     66 O          -1.0414  -15.4025  -45.9353 O.2       1 UNK        -0.5000 
     67 C           0.8810  -21.2850  -48.5779 C.2       11 UNK         0.5000 
     68 O           0.7586  -21.9038  -49.6340 O.2       11 UNK        -0.5000 
     69 N          -0.1078  -20.5780  -48.0113 N.am      12 UNK        -0.5000 
     70 CA         -1.4663  -20.4717  -48.5406 C.3       12 UNK         0.1400 
     71 CB         -2.1924  -19.3067  -47.8536 C.3       12 UNK        -0.1800 
     72 C          -2.2847  -21.7664  -48.4037 C.2       12 UNK         0.5000 
     73 O          -3.0817  -22.0682  -49.2940 O.2       12 UNK        -0.5000 
     74 N          -2.0558  -22.5006  -47.3073 N.am      13 UNK        -0.5000 
     75 CA         -2.6812  -23.7686  -46.9267 C.3       13 UNK         0.1400 
     76 CB         -2.3851  -24.8609  -47.9780 C.3       13 UNK        -0.1800 
     77 C          -4.1883  -23.6421  -46.6141 C.2       13 UNK         0.5000 
     78 O          -4.7378  -22.5369  -46.5687 O.2       13 UNK        -0.5000 
     79 N          -4.8270  -24.7932  -46.3618 N.am      14 UNK        -0.5000 
     80 CA         -6.2504  -24.9239  -46.0496 C.3       14 UNK         0.1400 
     81 CB         -6.5738  -26.4001  -45.7746 C.3       14 UNK        -0.1800 
     82 C          -7.1388  -24.3763  -47.1799 C.2       14 UNK         0.5000 
     83 O          -6.9008  -24.6898  -48.3485 O.2       14 UNK        -0.5000 
     84 N          -8.1166  -23.5386  -46.8067 N.am      15 UNK        -0.5000 
     85 CA         -9.0706  -22.8431  -47.6829 C.3       15 UNK         0.1400 
     86 CB        -10.0426  -23.8565  -48.3232 C.3       15 UNK        -0.1800 
     87 C          -8.4128  -21.9203  -48.7364 C.2       15 UNK         0.5000 
     88 O          -9.0564  -21.5860  -49.7322 O.2       15 UNK        -0.5000 
     89 N          -7.1442  -21.5402  -48.5076 N.am      16 UNK        -0.5000 
     90 CA         -6.2621  -20.7955  -49.4120 C.3       16 UNK         0.1400 
     91 CB         -6.7827  -19.3584  -49.6281 C.3       16 UNK        -0.1800 
     92 C          -5.9814  -21.5355  -50.7405 C.2       16 UNK         0.5000 
     93 O          -5.6966  -20.8883  -51.7488 O.2       16 UNK        -0.5000 
     94 N          -6.0642  -22.8751  -50.7336 N.am      17 UNK        -0.5000 
     95 CA         -5.9457  -23.7193  -51.9239 C.3       17 UNK         0.1400 
     96 CB         -6.2819  -25.1711  -51.5543 C.3       17 UNK        -0.1800 
     97 C          -4.5716  -23.6415  -52.6121 C.2       17 UNK         0.5000 
     98 O          -4.5111  -23.6033  -53.8420 O.2       17 UNK        -0.5000 
     99 N          -3.4943  -23.5902  -51.8180 N.am      18 UNK        -0.5000 
    100 CA        -2.1309  -23.4608  -52.3298 C.3       18 UNK         0.1400 
    101 CB        -1.1279  -24.0397  -51.3247 C.3       18 UNK        -0.1800 
    102 C         -1.7940  -22.0097  -52.7144 C.2       18 UNK         0.5000 
    103 O         -0.9987  -21.8137  -53.6317 O.2       18 UNK        -0.5000 
    104 N         -2.4419  -21.0258  -52.0694 N.am      19 UNK        -0.5000 
    105 CA        -2.3933  -19.6130  -52.4607 C.3       19 UNK         0.1400 
    106 CB        -2.9985  -18.7098  -51.3705 C.3       19 UNK        -0.1800 
    107 C         -3.0657  -19.3616  -53.8219 C.2       19 UNK         0.5000 
    108 O         -2.5316  -18.6061  -54.6334 O.2       19 UNK        -0.5000 
    109 N         -4.2128  -20.0141  -54.0513 N.am      20 UNK        -0.5000 
    110 CA        -4.9526  -19.9744  -55.3116 C.3       20 UNK         0.1400 
    111 CB        -6.3250  -20.6372  -55.1172 C.3       20 UNK        -0.1800 
    112 C         -4.1849  -20.6314  -56.4744 C.2       20 UNK         0.5000 
    113 O         -4.2217  -20.1131  -57.5910 O.2       20 UNK        -0.5000 
    114 N         -3.5027  -21.7501  -56.1919 N.am      21 UNK        -0.5000 
    115 CA        -2.6708  -22.4742  -57.1510 C.3       21 UNK         0.1400 
    116 CB        -2.4228  -23.9024  -56.6370 C.3       21 UNK        -0.1800 
    117 C         -1.3473  -21.7404  -57.4389 C.2       21 UNK         0.5000 
    118 O         -1.0995  -21.3532  -58.5813 O.2       21 UNK        -0.5000 
    119 N         -0.5264  -21.5708  -56.3941 N.am      22 UNK        -0.5000 
    120 CA         0.8035  -20.9388  -56.4051 C.3       22 UNK         0.1400 
    121 C          1.8675  -21.6123  -57.3287 C.2       22 UNK         0.5000 
    122 N          1.7261  -22.8891  -57.6644 N.am      22 UNK        -0.7600 
    123 O          2.8467  -20.9888  -57.7296 O.2       22 UNK        -0.5000 
    124 C124        0.7165  -19.3917  -56.5529 C.3       23 UNK        -0.0398 
    125 S125        1.8839  -18.5202  -55.4491 S.3       23 UNK        -0.2404 
    126 C126        0.9390  -18.5891  -53.8971 C.3       23 UNK        -0.0205 
    127 H127       -5.6119  -16.1221  -49.5401 H         1 UNK         0.0600 
    128 H128       -5.7680  -16.1500  -47.7802 H         1 UNK         0.0600 
    129 H129       -4.7164  -17.3112  -48.5912 H         1 UNK         0.0600 
    130 H130       -2.5590  -16.7894  -48.4554 H         1 UNK         0.3000 
    131 H131       -1.5497  -14.1064  -48.8844 H         1 UNK         0.0600 
    132 H132       -0.4125  -16.2305  -49.7101 H         1 UNK         0.0800 
    133 H133        0.0172  -16.6089  -48.0693 H         1 UNK         0.0800 
    134 H134        2.4457  -14.0840  -50.8686 H         1 UNK         0.0800 
    135 H135        0.7566  -14.3807  -51.1993 H         1 UNK         0.0800 
    136 H136        0.5321  -16.1690  -52.7199 H         1 UNK         0.1150 
    137 H137        3.0043  -19.6600  -52.4781 H         1 UNK         0.1150 
    138 H138        3.5688  -16.4354  -49.7072 H         1 UNK         0.1150 
    139 H139        5.3533  -19.0036  -51.1070 H         1 UNK         0.0800 
    140 H140        4.9934  -18.3173  -49.5433 H         1 UNK         0.0800 
    141 H141        2.5961  -19.2199  -48.3750 H         1 UNK         0.0800 
    142 H142        3.8899  -19.9496  -47.4650 H         1 UNK         0.0800 
    143 H143        2.7230  -22.2555  -48.1098 H         1 UNK         0.0600 
    144 H144        2.2538  -20.5536  -45.8483 H         1 UNK         0.3000 
    145 H145        0.5433  -23.0315  -43.9313 H         1 UNK         0.0600 
    146 H146        2.3736  -22.5781  -42.3312 H         1 UNK         0.0600 
    147 H147        2.9615  -23.5962  -43.6364 H         1 UNK         0.0600 
    148 H148        3.3670  -21.8844  -43.6109 H         1 UNK         0.0600 
    149 H149        1.3901  -20.4064  -43.2584 H         1 UNK         0.3000 
    150 H150       -1.4333  -18.6476  -44.6287 H         1 UNK         0.0600 
    151 H151       -2.1431  -19.4264  -42.3861 H         1 UNK         0.0600 
    152 H152       -1.4360  -17.8211  -42.2705 H         1 UNK         0.0600 
    153 H153       -0.5090  -19.2289  -41.7652 H         1 UNK         0.0600 
    154 H154        0.8173  -17.6450  -43.2677 H         1 UNK         0.3000 
    155 H155        3.0248  -17.3012  -46.0865 H         1 UNK         0.0600 
    156 H156        1.4594  -15.3828  -44.2958 H         1 UNK         0.0600 
    157 H157        1.6325  -15.2863  -46.0384 H         1 UNK         0.0600 
    158 H158        3.0304  -15.0130  -45.0134 H         1 UNK         0.0600 
    159 H159        3.2183  -16.8490  -43.2308 H         1 UNK         0.3000 
    160 H160        4.7855  -19.9365  -42.4487 H         1 UNK         0.0600 
    161 H161        5.9576  -17.1087  -42.6452 H         1 UNK         0.0600 
    162 H162        6.6377  -18.5500  -43.3909 H         1 UNK         0.0600 
    163 H163        6.5736  -18.4212  -41.6405 H         1 UNK         0.0600 
    164 H164        4.2338  -17.5787  -40.9172 H         1 UNK         0.3000 
    165 H165        0.9433  -18.5096  -39.8874 H         1 UNK         0.0600 
    166 H166        1.9900  -18.3712  -37.6550 H         1 UNK         0.0600 
    167 H167        2.4929  -19.8515  -38.4543 H         1 UNK         0.0600 
    168 H168        3.6015  -18.4881  -38.3631 H         1 UNK         0.0600 
    169 H169        2.4704  -16.3392  -39.0257 H         1 UNK         0.3000 
    170 H170        2.1058  -14.2793  -39.6106 H         1 UNK         0.0600 
    171 H171        3.4690  -14.2119  -41.7251 H         1 UNK         0.0600 
    172 H172        2.0094  -13.8633  -42.6445 H         1 UNK         0.0600 
    173 H173        2.5871  -12.7191  -41.4410 H         1 UNK         0.0600 
    174 H174       -0.1039  -13.6890  -41.4842 H         1 UNK         0.3000 
    175 H175       -2.6088  -13.8579  -39.0000 H         1 UNK         0.0600 
    176 H176       -1.4384  -11.3529  -40.3272 H         1 UNK         0.0600 
    177 H177       -3.0683  -11.5156  -39.6746 H         1 UNK         0.0600 
    178 H178       -1.6814  -11.5719  -38.5976 H         1 UNK         0.0600 
    179 H179       -2.6035  -13.0018  -41.7507 H         1 UNK         0.3000 
    180 H180       -3.1464  -16.2081  -43.1729 H         1 UNK         0.0600 
    181 H181       -5.1964  -15.1125  -44.0426 H         1 UNK         0.0600 
    182 H182       -5.1115  -13.8945  -42.7702 H         1 UNK         0.0600 
    183 H183       -5.3937  -15.5792  -42.3602 H         1 UNK         0.0600 
    184 H184       -2.0169  -14.9455  -44.5552 H         1 UNK         0.3000 
    185 H185       -1.9240  -11.5460  -45.4720 H         1 UNK         0.0600 
    186 H186       -0.0588  -11.8115  -43.8772 H         1 UNK         0.0600 
    187 H187        0.2585  -13.4346  -44.4652 H         1 UNK         0.0600 
    188 H188        0.5153  -12.0482  -45.5214 H         1 UNK         0.0600 
    189 H189       -2.0076  -12.7371  -47.2856 H         1 UNK         0.3000 
    190 H190        0.1057  -20.0295  -47.1833 H         1 UNK         0.3000 
    191 H191       -1.3770  -20.2538  -49.6039 H         1 UNK         0.0600 
    192 H192       -3.1822  -19.1575  -48.2851 H         1 UNK         0.0600 
    193 H193       -1.6335  -18.3793  -47.9620 H         1 UNK         0.0600 
    194 H194       -2.3278  -19.4901  -46.7878 H         1 UNK         0.0600 
    195 H195       -1.4693  -22.0843  -46.5902 H         1 UNK         0.3000 
    196 H196       -2.1964  -24.0615  -45.9944 H         1 UNK         0.0600 
    197 H197       -2.9605  -24.7118  -48.8921 H         1 UNK         0.0600 
    198 H198       -1.3279  -24.8724  -48.2439 H         1 UNK         0.0600 
    199 H199       -2.6262  -25.8546  -47.6004 H         1 UNK         0.0600 
    200 H200       -4.3111  -25.6569  -46.4371 H         1 UNK         0.3000 
    201 H201       -6.4412  -24.3538  -45.1380 H         1 UNK         0.0600 
    202 H202       -6.3707  -27.0251  -46.6454 H         1 UNK         0.0600 
    203 H203       -7.6263  -26.5278  -45.5180 H         1 UNK         0.0600 
    204 H204       -5.9877  -26.7851  -44.9399 H         1 UNK         0.0600 
    205 H205       -8.2102  -23.3270  -45.8226 H         1 UNK         0.3000 
    206 H206       -9.6557  -22.1880  -47.0361 H         1 UNK         0.0600 
    207 H207      -10.5025  -24.4938  -47.5680 H         1 UNK         0.0600 
    208 H208      -10.8507  -23.3482  -48.8503 H         1 UNK         0.0600 
    209 H209       -9.5378  -24.5009  -49.0438 H         1 UNK         0.0600 
    210 H210       -6.6935  -21.8877  -47.6698 H         1 UNK         0.3000 
    211 H211       -5.3040  -20.7189  -48.8984 H         1 UNK         0.0600 
    212 H212       -6.0662  -18.7582  -50.1882 H         1 UNK         0.0600 
    213 H213       -6.9535  -18.8540  -48.6773 H         1 UNK         0.0600 
    214 H214       -7.7174  -19.3443  -50.1885 H         1 UNK         0.0600 
    215 H215       -6.2992  -23.3474  -49.8671 H         1 UNK         0.3000 
    216 H216       -6.6900  -23.3738  -52.6443 H         1 UNK         0.0600 
    217 H217       -5.5978  -25.5621  -50.8000 H         1 UNK         0.0600 
    218 H218       -6.2196  -25.8229  -52.4266 H         1 UNK         0.0600 
    219 H219       -7.2950  -25.2520  -51.1595 H         1 UNK         0.0600 
    220 H220       -3.6169  -23.5186  -50.8148 H         1 UNK         0.3000 
    221 H221       -2.0441  -24.0600  -53.2385 H         1 UNK         0.0600 
    222 H222       -1.3214  -25.0960  -51.1386 H         1 UNK         0.0600 
    223 H223       -1.1650  -23.5214  -50.3702 H         1 UNK         0.0600 
    224 H224       -0.1072  -23.9552  -51.6999 H         1 UNK         0.0600 
    225 H225       -3.0725  -21.2826  -51.3203 H         1 UNK         0.3000 
    226 H226       -1.3460  -19.3338  -52.5610 H         1 UNK         0.0600 
    227 H227       -3.8470  -19.1769  -50.8746 H         1 UNK         0.0600 
    228 H228       -2.2572  -18.4607  -50.6140 H         1 UNK         0.0600 
    229 H229       -3.3425  -17.7589  -51.7805 H         1 UNK         0.0600 
    230 H230       -4.6319  -20.5441  -53.2914 H         1 UNK         0.3000 
    231 H231       -5.1160  -18.9264  -55.5711 H         1 UNK         0.0600 
    232 H232       -6.2301  -21.6849  -54.8308 H         1 UNK         0.0600 
    233 H233       -6.9115  -20.5986  -56.0359 H         1 UNK         0.0600 
    234 H234       -6.9001  -20.1310  -54.3415 H         1 UNK         0.0600 
    235 H235       -3.5713  -22.1361  -55.2588 H         1 UNK         0.3000 
    236 H236       -3.2194  -22.5530  -58.0921 H         1 UNK         0.0600 
    237 H237       -3.3618  -24.4431  -56.5159 H         1 UNK         0.0600 
    238 H238       -1.8098  -24.4693  -57.3386 H         1 UNK         0.0600 
    239 H239       -1.9125  -23.9076  -55.6738 H         1 UNK         0.0600 
    240 H240       -0.8336  -21.8708  -55.4720 H         1 UNK         0.3000 
    241 H241        1.1782  -21.1537  -55.4045 H         1 UNK         0.0600 
    242 H242        2.4166  -23.3258  -58.2550 H         1 UNK         0.3800 
    243 H243        0.9366  -23.4219  -57.3373 H         1 UNK         0.3800 
    244 H244       -0.2881  -19.0379  -56.3153 H         1 UNK         0.0800 
    245 H245        0.8924  -19.0821  -57.5843 H         1 UNK         0.0800 
    246 H246       -0.0084  -18.0710  -54.0458 H         1 UNK         0.0800 
    247 H247        0.6984  -19.6266  -53.6634 H         1 UNK         0.0800 
@<TRIPOS>BOND
     1    1    2 1    
     2    1  127 1    
     3    1  128 1    
     4    1  129 1    
     5    2    3 2    
     6    2    4 am   BACKBONE|DICT|INTERRES
     7    4    5 1    
     8    4  130 1    
     9    5    6 1    
    10    5   65 1    
    11    5  131 1    
    12    6    7 1    
    13    6  132 1    
    14    6  133 1    
    15    7    8 1    
    16    8    9 1    
    17    8  134 1    
    18    8  135 1    
    19    9   10 ar   
    20    9   14 ar   
    21   10   11 ar   
    22   10  136 1    
    23   11   12 ar   
    24   11  126 1    
    25   12   13 ar   
    26   12  137 1    
    27   13   14 ar   
    28   13   15 1    
    29   14  138 1    
    30   15   16 1    
    31   15  139 1    
    32   15  140 1    
    33   16   17 1    
    34   17   18 1    
    35   17  141 1    
    36   17  142 1    
    37   18   19 1    
    38   18   67 1    
    39   18  143 1    
    40   19   20 am   BACKBONE|DICT|INTERRES
    41   19  144 1    
    42   20   21 2    
    43   20   22 1    
    44   22   23 1    
    45   22   24 1    
    46   22  145 1    
    47   23  146 1    
    48   23  147 1    
    49   23  148 1    
    50   24   25 am   BACKBONE|DICT|INTERRES
    51   24  149 1    
    52   25   26 2    
    53   25   27 1    
    54   27   28 1    
    55   27   29 1    
    56   27  150 1    
    57   28  151 1    
    58   28  152 1    
    59   28  153 1    
    60   29   30 am   BACKBONE|DICT|INTERRES
    61   29  154 1    
    62   30   31 2    
    63   30   32 1    
    64   32   33 1    
    65   32   34 1    
    66   32  155 1    
    67   33  156 1    
    68   33  157 1    
    69   33  158 1    
    70   34   35 am   BACKBONE|DICT|INTERRES
    71   34  159 1    
    72   35   36 2    
    73   35   37 1    
    74   37   38 1    
    75   37   39 1    
    76   37  160 1    
    77   38  161 1    
    78   38  162 1    
    79   38  163 1    
    80   39   40 am   BACKBONE|DICT|INTERRES
    81   39  164 1    
    82   40   41 2    
    83   40   42 1    
    84   42   43 1    
    85   42   44 1    
    86   42  165 1    
    87   43  166 1    
    88   43  167 1    
    89   43  168 1    
    90   44   45 am   BACKBONE|DICT|INTERRES
    91   44  169 1    
    92   45   46 2    
    93   45   47 1    
    94   47   48 1    
    95   47   49 1    
    96   47  170 1    
    97   48  171 1    
    98   48  172 1    
    99   48  173 1    
   100   49   50 am   BACKBONE|DICT|INTERRES
   101   49  174 1    
   102   50   51 2    
   103   50   52 1    
   104   52   53 1    
   105   52   54 1    
   106   52  175 1    
   107   53  176 1    
   108   53  177 1    
   109   53  178 1    
   110   54   55 am   BACKBONE|DICT|INTERRES
   111   54  179 1    
   112   55   56 2    
   113   55   57 1    
   114   57   58 1    
   115   57   59 1    
   116   57  180 1    
   117   58  181 1    
   118   58  182 1    
   119   58  183 1    
   120   59   60 am   BACKBONE|DICT|INTERRES
   121   59  184 1    
   122   60   61 2    
   123   60   62 1    
   124   62   63 1    
   125   62   64 1    
   126   62  185 1    
   127   63  186 1    
   128   63  187 1    
   129   63  188 1    
   130   64   65 am   BACKBONE|DICT|INTERRES
   131   64  189 1    
   132   65   66 2    
   133   67   68 2    
   134   67   69 am   BACKBONE|DICT|INTERRES
   135   69   70 1    
   136   69  190 1    
   137   70   71 1    
   138   70   72 1    
   139   70  191 1    
   140   71  192 1    
   141   71  193 1    
   142   71  194 1    
   143   72   73 2    
   144   72   74 am   BACKBONE|DICT|INTERRES
   145   74   75 1    
   146   74  195 1    
   147   75   76 1    
   148   75   77 1    
   149   75  196 1    
   150   76  197 1    
   151   76  198 1    
   152   76  199 1    
   153   77   78 2    
   154   77   79 am   BACKBONE|DICT|INTERRES
   155   79   80 1    
   156   79  200 1    
   157   80   81 1    
   158   80   82 1    
   159   80  201 1    
   160   81  202 1    
   161   81  203 1    
   162   81  204 1    
   163   82   83 2    
   164   82   84 am   BACKBONE|DICT|INTERRES
   165   84   85 1    
   166   84  205 1    
   167   85   86 1    
   168   85   87 1    
   169   85  206 1    
   170   86  207 1    
   171   86  208 1    
   172   86  209 1    
   173   87   88 2    
   174   87   89 am   BACKBONE|DICT|INTERRES
   175   89   90 1    
   176   89  210 1    
   177   90   91 1    
   178   90   92 1    
   179   90  211 1    
   180   91  212 1    
   181   91  213 1    
   182   91  214 1    
   183   92   93 2    
   184   92   94 am   BACKBONE|DICT|INTERRES
   185   94   95 1    
   186   94  215 1    
   187   95   96 1    
   188   95   97 1    
   189   95  216 1    
   190   96  217 1    
   191   96  218 1    
   192   96  219 1    
   193   97   98 2    
   194   97   99 am   BACKBONE|DICT|INTERRES
   195   99  100 1    
   196   99  220 1    
   197  100  101 1    
   198  100  102 1    
   199  100  221 1    
   200  101  222 1    
   201  101  223 1    
   202  101  224 1    
   203  102  103 2    
   204  102  104 am   BACKBONE|DICT|INTERRES
   205  104  105 1    
   206  104  225 1    
   207  105  106 1    
   208  105  107 1    
   209  105  226 1    
   210  106  227 1    
   211  106  228 1    
   212  106  229 1    
   213  107  108 2    
   214  107  109 am   BACKBONE|DICT|INTERRES
   215  109  110 1    
   216  109  230 1    
   217  110  111 1    
   218  110  112 1    
   219  110  231 1    
   220  111  232 1    
   221  111  233 1    
   222  111  234 1    
   223  112  113 2    
   224  112  114 am   BACKBONE|DICT|INTERRES
   225  114  115 1    
   226  114  235 1    
   227  115  116 1    
   228  115  117 1    
   229  115  236 1    
   230  116  237 1    
   231  116  238 1    
   232  116  239 1    
   233  117  118 2    
   234  117  119 am   BACKBONE|DICT|INTERRES
   235  119  120 1    
   236  119  240 1    
   237  120  121 1    
   238  120  124 1    
   239  120  241 1    
   240  121  122 am   BACKBONE|DICT|INTERRES
   241  121  123 2    
   242  122  242 1    
   243  122  243 1    
   244  124  125 1    
   245  124  244 1    
   246  124  245 1    
   247  125  126 1    
   248  126  246 1    
   249  126  247 1    
@<TRIPOS>SUBSTRUCTURE
     1 UNK         1 GROUP             0       ****    0 ROOT    
