@<TRIPOS>MOLECULE
3R540
247   249    1
SMALL
USER_CHARGES


@<TRIPOS>ATOM
      1 CA          6.7624  -13.2386  -45.8899 C.3       0 UNK        -0.1800 
      2 C           5.2638  -12.9786  -45.9108 C.2       0 UNK         0.5000 
      3 O           4.7080  -12.5321  -44.9091 O.2       0 UNK        -0.5000 
      4 N           4.6113  -13.2289  -47.0533 N.am      1 UNK        -0.5000 
      5 CA          3.1609  -13.0882  -47.2583 C.3       1 UNK         0.1400 
      6 C6          2.7374  -13.6856  -48.6256 C.3       23 UNK        -0.0398 
      7 S7          1.0946  -14.4691  -48.5858 S.3       23 UNK        -0.2404 
      8 C8          0.8608  -14.7917  -50.3596 C.3       23 UNK        -0.0205 
      9 C9         -0.3252  -15.7090  -50.6074 C.ar      23 UNK        -0.0193 
     10 C10        -1.6267  -15.2059  -50.5508 C.ar      23 UNK        -0.1150 
     11 C11        -2.7223  -16.0423  -50.7821 C.ar      23 UNK        -0.0193 
     12 C12        -2.5086  -17.3951  -51.0692 C.ar      23 UNK        -0.1150 
     13 C13        -1.2089  -17.9005  -51.1656 C.ar      23 UNK        -0.0193 
     14 C14        -0.1227  -17.0555  -50.9206 C.ar      23 UNK        -0.1150 
     15 C15        -0.9646  -19.3378  -51.5967 C.3       23 UNK        -0.0205 
     16 S16        -0.4424  -20.3912  -50.2102 S.3       23 UNK        -0.2404 
     17 C17        -2.0007  -21.2371  -49.8003 C.3       23 UNK        -0.0398 
     18 CA         -1.7733  -22.4155  -48.8277 C.3       11 UNK         0.1400 
     19 N          -1.2590  -22.0059  -47.5173 N.am      11 UNK        -0.5000 
     20 C          -0.7960  -22.8640  -46.5964 C.2       10 UNK         0.5000 
     21 O          -0.7192  -24.0790  -46.7839 O.2       10 UNK        -0.5000 
     22 CA         -0.4085  -22.2989  -45.2170 C.3       10 UNK         0.1400 
     23 CB          1.1012  -22.0302  -45.1512 C.3       10 UNK        -0.1800 
     24 N          -1.1448  -21.0901  -44.8395 N.am      10 UNK        -0.5000 
     25 C          -2.4777  -21.0053  -44.7125 C.2       9 UNK         0.5000 
     26 O          -3.2408  -21.9563  -44.8850 O.2       9 UNK        -0.5000 
     27 CA         -3.0601  -19.6119  -44.4145 C.3       9 UNK         0.1400 
     28 CB         -2.9883  -19.2954  -42.9140 C.3       9 UNK        -0.1800 
     29 N          -2.3926  -18.5551  -45.1759 N.am      9 UNK        -0.5000 
     30 C          -2.3978  -18.4620  -46.5139 C.2       8 UNK         0.5000 
     31 O          -3.0223  -19.2289  -47.2452 O.2       8 UNK        -0.5000 
     32 CA         -1.5297  -17.3548  -47.1344 C.3       8 UNK         0.1400 
     33 CB         -2.2824  -16.0150  -47.1459 C.3       8 UNK        -0.1800 
     34 N          -0.2609  -17.2082  -46.4198 N.am      8 UNK        -0.5000 
     35 C           0.7590  -18.0736  -46.5150 C.2       7 UNK         0.5000 
     36 O           0.7561  -19.0527  -47.2583 O.2       7 UNK        -0.5000 
     37 CA          1.9726  -17.8352  -45.5954 C.3       7 UNK         0.1400 
     38 CB          2.9938  -16.9055  -46.2637 C.3       7 UNK        -0.1800 
     39 N           1.5988  -17.2876  -44.2906 N.am      7 UNK        -0.5000 
     40 C           0.9330  -17.9763  -43.3530 C.2       6 UNK         0.5000 
     41 O           0.5960  -19.1525  -43.4826 O.2       6 UNK        -0.5000 
     42 CA          0.5314  -17.2100  -42.0778 C.3       6 UNK         0.1400 
     43 CB          1.6616  -17.2625  -41.0393 C.3       6 UNK        -0.1800 
     44 N           0.1673  -15.8118  -42.3201 N.am      6 UNK        -0.5000 
     45 C          -0.7977  -15.3900  -43.1499 C.2       5 UNK         0.5000 
     46 O          -1.5023  -16.1572  -43.8049 O.2       5 UNK        -0.5000 
     47 CA         -1.0158  -13.8692  -43.2870 C.3       5 UNK         0.1400 
     48 CB         -2.4159  -13.4796  -42.7875 C.3       5 UNK        -0.1800 
     49 N          -0.0204  -13.0558  -42.5817 N.am      5 UNK        -0.5000 
     50 C           1.2449  -12.8711  -42.9779 C.2       4 UNK         0.5000 
     51 O           1.7361  -13.4017  -43.9752 O.2       4 UNK        -0.5000 
     52 CA          2.1121  -12.0006  -42.0611 C.3       4 UNK         0.1400 
     53 CB          2.8744  -12.8717  -41.0475 C.3       4 UNK        -0.1800 
     54 N           3.0616  -11.2249  -42.8518 N.am      4 UNK        -0.5000 
     55 C           3.5086  -10.0074  -42.5189 C.2       3 UNK         0.5000 
     56 O           3.1533   -9.4040  -41.5051 O.2       3 UNK        -0.5000 
     57 CA          4.5163   -9.3400  -43.4683 C.3       3 UNK         0.1400 
     58 CB          5.9466   -9.8116  -43.1598 C.3       3 UNK        -0.1800 
     59 N           4.2080   -9.6093  -44.8718 N.am      3 UNK        -0.5000 
     60 C           3.4442   -8.8253  -45.6460 C.2       2 UNK         0.5000 
     61 O           2.9023   -7.7942  -45.2455 O.2       2 UNK        -0.5000 
     62 CA          3.2684   -9.2372  -47.1220 C.3       2 UNK         0.1400 
     63 CB          4.2068   -8.4167  -48.0207 C.3       2 UNK        -0.1800 
     64 N           3.5242  -10.6588  -47.3512 N.am      2 UNK        -0.5000 
     65 C           2.6502  -11.6387  -47.0836 C.2       1 UNK         0.5000 
     66 O           1.5008  -11.4324  -46.6930 O.2       1 UNK        -0.5000 
     67 C          -3.0423  -23.2844  -48.7122 C.2       11 UNK         0.5000 
     68 O          -3.2355  -24.1833  -49.5309 O.2       11 UNK        -0.5000 
     69 N          -3.8774  -23.0216  -47.6995 N.am      12 UNK        -0.5000 
     70 CA         -5.0477  -23.8341  -47.3807 C.3       12 UNK         0.1400 
     71 CB         -6.1317  -22.9425  -46.7542 C.3       12 UNK        -0.1800 
     72 C          -4.6814  -24.9904  -46.4358 C.2       12 UNK         0.5000 
     73 O          -5.1166  -26.1195  -46.6597 O.2       12 UNK        -0.5000 
     74 N          -3.9122  -24.6815  -45.3841 N.am      13 UNK        -0.5000 
     75 CA         -3.6568  -25.5854  -44.2648 C.3       13 UNK         0.1400 
     76 CB         -3.2189  -24.7579  -43.0462 C.3       13 UNK        -0.1800 
     77 C          -2.6304  -26.6955  -44.5503 C.2       13 UNK         0.5000 
     78 O          -2.7696  -27.7811  -43.9844 O.2       13 UNK        -0.5000 
     79 N          -1.6097  -26.4109  -45.3709 N.am      14 UNK        -0.5000 
     80 CA         -0.4491  -27.2856  -45.5541 C.3       14 UNK         0.1400 
     81 CB          0.7963  -26.6055  -44.9605 C.3       14 UNK        -0.1800 
     82 C          -0.2090  -27.6633  -47.0221 C.2       14 UNK         0.5000 
     83 O           0.0500  -28.8352  -47.3012 O.2       14 UNK        -0.5000 
     84 N          -0.2818  -26.6893  -47.9402 N.am      15 UNK        -0.5000 
     85 CA          0.1016  -26.8445  -49.3499 C.3       15 UNK         0.1400 
     86 CB          0.4957  -25.4736  -49.9239 C.3       15 UNK        -0.1800 
     87 C          -0.9722  -27.5498  -50.2073 C.2       15 UNK         0.5000 
     88 O          -1.3961  -27.0142  -51.2324 O.2       15 UNK        -0.5000 
     89 N          -1.3978  -28.7418  -49.7667 N.am      16 UNK        -0.5000 
     90 CA         -2.3265  -29.6653  -50.4338 C.3       16 UNK         0.1400 
     91 CB         -1.6577  -30.2769  -51.6827 C.3       16 UNK        -0.1800 
     92 C          -3.7145  -29.0601  -50.7446 C.2       16 UNK         0.5000 
     93 O          -4.3719  -29.4889  -51.6948 O.2       16 UNK        -0.5000 
     94 N          -4.1299  -28.0773  -49.9319 N.am      17 UNK        -0.5000 
     95 CA         -5.3652  -27.2984  -50.0442 C.3       17 UNK         0.1400 
     96 CB         -6.5996  -28.1770  -49.7528 C.3       17 UNK        -0.1800 
     97 C          -5.4715  -26.5107  -51.3677 C.2       17 UNK         0.5000 
     98 O          -6.5414  -26.4681  -51.9781 O.2       17 UNK        -0.5000 
     99 N          -4.3619  -25.8748  -51.7746 N.am      18 UNK        -0.5000 
    100 CA        -4.3024  -24.9215  -52.8882 C.3       18 UNK         0.1400 
    101 CB        -2.8408  -24.5152  -53.1331 C.3       18 UNK        -0.1800 
    102 C         -5.1730  -23.6720  -52.6444 C.2       18 UNK         0.5000 
    103 O         -5.7616  -23.1462  -53.5894 O.2       18 UNK        -0.5000 
    104 N         -5.2613  -23.2620  -51.3703 N.am      19 UNK        -0.5000 
    105 CA        -6.1102  -22.2055  -50.8215 C.3       19 UNK         0.1400 
    106 CB        -7.5910  -22.6435  -50.8465 C.3       19 UNK        -0.1800 
    107 C         -5.8342  -20.8384  -51.4739 C.2       19 UNK         0.5000 
    108 O         -4.7164  -20.3368  -51.3536 O.2       19 UNK        -0.5000 
    109 N         -6.8353  -20.2572  -52.1466 N.am      20 UNK        -0.5000 
    110 CA        -6.8163  -18.9266  -52.7602 C.3       20 UNK         0.1400 
    111 CB        -8.2691  -18.4696  -52.9833 C.3       20 UNK        -0.1800 
    112 C         -5.9585  -18.8197  -54.0441 C.2       20 UNK         0.5000 
    113 O         -6.3504  -18.1436  -54.9971 O.2       20 UNK        -0.5000 
    114 N         -4.7784  -19.4475  -54.0435 N.am      21 UNK        -0.5000 
    115 CA        -3.7544  -19.3685  -55.0852 C.3       21 UNK         0.1400 
    116 CB        -2.9706  -20.6939  -55.0980 C.3       21 UNK        -0.1800 
    117 C         -2.8519  -18.1355  -54.8608 C.2       21 UNK         0.5000 
    118 O         -1.6283  -18.2617  -54.7985 O.2       21 UNK        -0.5000 
    119 N         -3.4856  -16.9689  -54.6938 N.am      22 UNK        -0.5000 
    120 CA        -2.8629  -15.7143  -54.2379 C.3       22 UNK         0.1400 
    121 C         -2.0694  -14.9360  -55.3278 C.2       22 UNK         0.5000 
    122 N         -2.0868  -15.3489  -56.5891 N.am      22 UNK        -0.7600 
    123 O         -1.4216  -13.9383  -55.0234 O.2       22 UNK        -0.5000 
    124 C124       -3.8823  -14.7829  -53.5184 C.3       23 UNK        -0.0398 
    125 S125       -4.9954  -15.6395  -52.3428 S.3       23 UNK        -0.2404 
    126 C126       -4.1320  -15.4712  -50.7469 C.3       23 UNK        -0.0205 
    127 H127        7.1246  -13.6057  -46.8504 H         1 UNK         0.0600 
    128 H128        7.2982  -12.3199  -45.6513 H         1 UNK         0.0600 
    129 H129        7.0015  -13.9812  -45.1288 H         1 UNK         0.0600 
    130 H130        5.1337  -13.5785  -47.8440 H         1 UNK         0.3000 
    131 H131        2.6919  -13.6678  -46.4624 H         1 UNK         0.0600 
    132 H132        2.7738  -12.9381  -49.4206 H         1 UNK         0.0800 
    133 H133        3.4342  -14.4695  -48.9263 H         1 UNK         0.0800 
    134 H134        0.7117  -13.8465  -50.8838 H         1 UNK         0.0800 
    135 H135        1.7694  -15.2339  -50.7714 H         1 UNK         0.0800 
    136 H136       -1.7824  -14.1604  -50.3247 H         1 UNK         0.1150 
    137 H137       -3.3535  -18.0408  -51.2628 H         1 UNK         0.1150 
    138 H138        0.8823  -17.4480  -50.9874 H         1 UNK         0.1150 
    139 H139       -1.8541  -19.7494  -52.0749 H         1 UNK         0.0800 
    140 H140       -0.1844  -19.3501  -52.3592 H         1 UNK         0.0800 
    141 H141       -2.4286  -21.6067  -50.7342 H         1 UNK         0.0800 
    142 H142       -2.7136  -20.5160  -49.4015 H         1 UNK         0.0800 
    143 H143       -1.0040  -23.0421  -49.2715 H         1 UNK         0.0600 
    144 H144       -1.2874  -21.0173  -47.3064 H         1 UNK         0.3000 
    145 H145       -0.6424  -23.0672  -44.4786 H         1 UNK         0.0600 
    146 H146        1.4046  -21.7248  -44.1498 H         1 UNK         0.0600 
    147 H147        1.6692  -22.9272  -45.4020 H         1 UNK         0.0600 
    148 H148        1.4014  -21.2469  -45.8468 H         1 UNK         0.0600 
    149 H149       -0.5846  -20.2717  -44.6217 H         1 UNK         0.3000 
    150 H150       -4.1112  -19.6208  -44.7103 H         1 UNK         0.0600 
    151 H151       -3.5451  -20.0329  -42.3347 H         1 UNK         0.0600 
    152 H152       -3.4164  -18.3168  -42.6953 H         1 UNK         0.0600 
    153 H153       -1.9618  -19.3009  -42.5488 H         1 UNK         0.0600 
    154 H154       -1.9058  -17.8393  -44.6440 H         1 UNK         0.3000 
    155 H155       -1.3149  -17.6325  -48.1685 H         1 UNK         0.0600 
    156 H156       -3.1971  -16.0931  -47.7342 H         1 UNK         0.0600 
    157 H157       -1.6780  -15.2255  -47.5909 H         1 UNK         0.0600 
    158 H158       -2.5667  -15.6938  -46.1444 H         1 UNK         0.0600 
    159 H159       -0.2068  -16.4609  -45.7435 H         1 UNK         0.3000 
    160 H160        2.4551  -18.8015  -45.4320 H         1 UNK         0.0600 
    161 H161        3.8976  -16.8091  -45.6620 H         1 UNK         0.0600 
    162 H162        2.5799  -15.9104  -46.4091 H         1 UNK         0.0600 
    163 H163        3.2899  -17.2850  -47.2425 H         1 UNK         0.0600 
    164 H164        1.8247  -16.3187  -44.1146 H         1 UNK         0.3000 
    165 H165       -0.3435  -17.7080  -41.6561 H         1 UNK         0.0600 
    166 H166        1.3539  -16.8078  -40.0975 H         1 UNK         0.0600 
    167 H167        1.9458  -18.2934  -40.8233 H         1 UNK         0.0600 
    168 H168        2.5541  -16.7416  -41.3884 H         1 UNK         0.0600 
    169 H169        0.6956  -15.1136  -41.8200 H         1 UNK         0.3000 
    170 H170       -0.9576  -13.6344  -44.3521 H         1 UNK         0.0600 
    171 H171       -3.1910  -14.0306  -43.3222 H         1 UNK         0.0600 
    172 H172       -2.5373  -13.6912  -41.7245 H         1 UNK         0.0600 
    173 H173       -2.6099  -12.4184  -42.9443 H         1 UNK         0.0600 
    174 H174       -0.3382  -12.6039  -41.7359 H         1 UNK         0.3000 
    175 H175        1.4504  -11.3214  -41.5189 H         1 UNK         0.0600 
    176 H176        3.4610  -12.2589  -40.3628 H         1 UNK         0.0600 
    177 H177        2.1881  -13.4658  -40.4430 H         1 UNK         0.0600 
    178 H178        3.5567  -13.5611  -41.5469 H         1 UNK         0.0600 
    179 H179        3.4070  -11.6821  -43.6928 H         1 UNK         0.3000 
    180 H180        4.4808   -8.2633  -43.2877 H         1 UNK         0.0600 
    181 H181        6.0589  -10.8879  -43.2913 H         1 UNK         0.0600 
    182 H182        6.2180   -9.5793  -42.1292 H         1 UNK         0.0600 
    183 H183        6.6723   -9.3175  -43.8059 H         1 UNK         0.0600 
    184 H184        4.5489  -10.4876  -45.2421 H         1 UNK         0.3000 
    185 H185        2.2394   -9.0099  -47.4091 H         1 UNK         0.0600 
    186 H186        4.0528   -8.6546  -49.0734 H         1 UNK         0.0600 
    187 H187        4.0266   -7.3475  -47.9011 H         1 UNK         0.0600 
    188 H188        5.2554   -8.6012  -47.7836 H         1 UNK         0.0600 
    189 H189        4.4482  -10.9109  -47.6709 H         1 UNK         0.3000 
    190 H190       -3.6326  -22.2960  -47.0368 H         1 UNK         0.3000 
    191 H191       -5.4621  -24.2626  -48.2955 H         1 UNK         0.0600 
    192 H192       -5.7920  -22.4795  -45.8270 H         1 UNK         0.0600 
    193 H193       -7.0260  -23.5223  -46.5224 H         1 UNK         0.0600 
    194 H194       -6.4304  -22.1440  -47.4328 H         1 UNK         0.0600 
    195 H195       -3.6202  -23.7149  -45.2585 H         1 UNK         0.3000 
    196 H196       -4.5986  -26.0751  -44.0072 H         1 UNK         0.0600 
    197 H197       -2.2834  -24.2308  -43.2318 H         1 UNK         0.0600 
    198 H198       -3.0689  -25.3948  -42.1734 H         1 UNK         0.0600 
    199 H199       -3.9729  -24.0163  -42.7812 H         1 UNK         0.0600 
    200 H200       -1.5666  -25.5041  -45.8254 H         1 UNK         0.3000 
    201 H201       -0.5883  -28.2256  -45.0164 H         1 UNK         0.0600 
    202 H202        1.0155  -25.6566  -45.4507 H         1 UNK         0.0600 
    203 H203        1.6767  -27.2404  -45.0675 H         1 UNK         0.0600 
    204 H204        0.6658  -26.4084  -43.8964 H         1 UNK         0.0600 
    205 H205       -0.4972  -25.7453  -47.6308 H         1 UNK         0.3000 
    206 H206        0.9951  -27.4714  -49.3869 H         1 UNK         0.0600 
    207 H207        1.1318  -24.9118  -49.2395 H         1 UNK         0.0600 
    208 H208        1.0442  -25.5922  -50.8589 H         1 UNK         0.0600 
    209 H209       -0.3839  -24.8747  -50.1480 H         1 UNK         0.0600 
    210 H210       -0.9925  -29.0706  -48.8940 H         1 UNK         0.3000 
    211 H211       -2.5064  -30.4761  -49.7267 H         1 UNK         0.0600 
    212 H212       -1.4989  -29.5296  -52.4609 H         1 UNK         0.0600 
    213 H213       -2.2718  -31.0702  -52.1104 H         1 UNK         0.0600 
    214 H214       -0.6909  -30.7162  -51.4371 H         1 UNK         0.0600 
    215 H215       -3.5033  -27.7954  -49.1917 H         1 UNK         0.3000 
    216 H216       -5.3146  -26.5426  -49.2615 H         1 UNK         0.0600 
    217 H217       -6.5024  -28.6847  -48.7931 H         1 UNK         0.0600 
    218 H218       -7.5065  -27.5730  -49.7072 H         1 UNK         0.0600 
    219 H219       -6.7503  -28.9355  -50.5213 H         1 UNK         0.0600 
    220 H220       -3.5141  -25.9778  -51.2296 H         1 UNK         0.3000 
    221 H221       -4.6777  -25.4224  -53.7827 H         1 UNK         0.0600 
    222 H222       -2.3991  -24.0475  -52.2522 H         1 UNK         0.0600 
    223 H223       -2.2306  -25.3806  -53.3920 H         1 UNK         0.0600 
    224 H224       -2.7641  -23.8047  -53.9571 H         1 UNK         0.0600 
    225 H225       -4.6616  -23.7363  -50.7009 H         1 UNK         0.3000 
    226 H226       -5.8209  -22.0932  -49.7770 H         1 UNK         0.0600 
    227 H227       -7.7266  -23.5752  -50.2968 H         1 UNK         0.0600 
    228 H228       -8.2325  -21.8988  -50.3733 H         1 UNK         0.0600 
    229 H229       -7.9562  -22.8074  -51.8610 H         1 UNK         0.0600 
    230 H230       -7.6981  -20.7725  -52.2417 H         1 UNK         0.3000 
    231 H231       -6.3694  -18.2436  -52.0360 H         1 UNK         0.0600 
    232 H232       -8.8401  -18.5002  -52.0551 H         1 UNK         0.0600 
    233 H233       -8.7793  -19.0983  -53.7139 H         1 UNK         0.0600 
    234 H234       -8.3069  -17.4420  -53.3474 H         1 UNK         0.0600 
    235 H235       -4.5172  -19.9231  -53.1846 H         1 UNK         0.3000 
    236 H236       -4.2324  -19.2521  -56.0599 H         1 UNK         0.0600 
    237 H237       -2.2154  -20.6960  -55.8848 H         1 UNK         0.0600 
    238 H238       -2.4617  -20.8728  -54.1505 H         1 UNK         0.0600 
    239 H239       -3.6337  -21.5394  -55.2830 H         1 UNK         0.0600 
    240 H240       -4.4950  -16.9618  -54.7673 H         1 UNK         0.3000 
    241 H241       -2.1090  -15.9907  -53.5004 H         1 UNK         0.0600 
    242 H242       -1.5672  -14.8407  -57.2877 H         1 UNK         0.3800 
    243 H243       -2.6078  -16.1711  -56.8490 H         1 UNK         0.3800 
    244 H244       -3.3595  -13.9828  -52.9916 H         1 UNK         0.0800 
    245 H245       -4.5184  -14.2903  -54.2557 H         1 UNK         0.0800 
    246 H246       -4.7051  -15.9930  -49.9795 H         1 UNK         0.0800 
    247 H247       -4.1207  -14.4185  -50.4604 H         1 UNK         0.0800 
@<TRIPOS>BOND
     1    1    2 1    
     2    1  127 1    
     3    1  128 1    
     4    1  129 1    
     5    2    3 2    
     6    2    4 am   BACKBONE|DICT|INTERRES
     7    4    5 1    
     8    4  130 1    
     9    5    6 1    
    10    5   65 1    
    11    5  131 1    
    12    6    7 1    
    13    6  132 1    
    14    6  133 1    
    15    7    8 1    
    16    8    9 1    
    17    8  134 1    
    18    8  135 1    
    19    9   10 ar   
    20    9   14 ar   
    21   10   11 ar   
    22   10  136 1    
    23   11   12 ar   
    24   11  126 1    
    25   12   13 ar   
    26   12  137 1    
    27   13   14 ar   
    28   13   15 1    
    29   14  138 1    
    30   15   16 1    
    31   15  139 1    
    32   15  140 1    
    33   16   17 1    
    34   17   18 1    
    35   17  141 1    
    36   17  142 1    
    37   18   19 1    
    38   18   67 1    
    39   18  143 1    
    40   19   20 am   BACKBONE|DICT|INTERRES
    41   19  144 1    
    42   20   21 2    
    43   20   22 1    
    44   22   23 1    
    45   22   24 1    
    46   22  145 1    
    47   23  146 1    
    48   23  147 1    
    49   23  148 1    
    50   24   25 am   BACKBONE|DICT|INTERRES
    51   24  149 1    
    52   25   26 2    
    53   25   27 1    
    54   27   28 1    
    55   27   29 1    
    56   27  150 1    
    57   28  151 1    
    58   28  152 1    
    59   28  153 1    
    60   29   30 am   BACKBONE|DICT|INTERRES
    61   29  154 1    
    62   30   31 2    
    63   30   32 1    
    64   32   33 1    
    65   32   34 1    
    66   32  155 1    
    67   33  156 1    
    68   33  157 1    
    69   33  158 1    
    70   34   35 am   BACKBONE|DICT|INTERRES
    71   34  159 1    
    72   35   36 2    
    73   35   37 1    
    74   37   38 1    
    75   37   39 1    
    76   37  160 1    
    77   38  161 1    
    78   38  162 1    
    79   38  163 1    
    80   39   40 am   BACKBONE|DICT|INTERRES
    81   39  164 1    
    82   40   41 2    
    83   40   42 1    
    84   42   43 1    
    85   42   44 1    
    86   42  165 1    
    87   43  166 1    
    88   43  167 1    
    89   43  168 1    
    90   44   45 am   BACKBONE|DICT|INTERRES
    91   44  169 1    
    92   45   46 2    
    93   45   47 1    
    94   47   48 1    
    95   47   49 1    
    96   47  170 1    
    97   48  171 1    
    98   48  172 1    
    99   48  173 1    
   100   49   50 am   BACKBONE|DICT|INTERRES
   101   49  174 1    
   102   50   51 2    
   103   50   52 1    
   104   52   53 1    
   105   52   54 1    
   106   52  175 1    
   107   53  176 1    
   108   53  177 1    
   109   53  178 1    
   110   54   55 am   BACKBONE|DICT|INTERRES
   111   54  179 1    
   112   55   56 2    
   113   55   57 1    
   114   57   58 1    
   115   57   59 1    
   116   57  180 1    
   117   58  181 1    
   118   58  182 1    
   119   58  183 1    
   120   59   60 am   BACKBONE|DICT|INTERRES
   121   59  184 1    
   122   60   61 2    
   123   60   62 1    
   124   62   63 1    
   125   62   64 1    
   126   62  185 1    
   127   63  186 1    
   128   63  187 1    
   129   63  188 1    
   130   64   65 am   BACKBONE|DICT|INTERRES
   131   64  189 1    
   132   65   66 2    
   133   67   68 2    
   134   67   69 am   BACKBONE|DICT|INTERRES
   135   69   70 1    
   136   69  190 1    
   137   70   71 1    
   138   70   72 1    
   139   70  191 1    
   140   71  192 1    
   141   71  193 1    
   142   71  194 1    
   143   72   73 2    
   144   72   74 am   BACKBONE|DICT|INTERRES
   145   74   75 1    
   146   74  195 1    
   147   75   76 1    
   148   75   77 1    
   149   75  196 1    
   150   76  197 1    
   151   76  198 1    
   152   76  199 1    
   153   77   78 2    
   154   77   79 am   BACKBONE|DICT|INTERRES
   155   79   80 1    
   156   79  200 1    
   157   80   81 1    
   158   80   82 1    
   159   80  201 1    
   160   81  202 1    
   161   81  203 1    
   162   81  204 1    
   163   82   83 2    
   164   82   84 am   BACKBONE|DICT|INTERRES
   165   84   85 1    
   166   84  205 1    
   167   85   86 1    
   168   85   87 1    
   169   85  206 1    
   170   86  207 1    
   171   86  208 1    
   172   86  209 1    
   173   87   88 2    
   174   87   89 am   BACKBONE|DICT|INTERRES
   175   89   90 1    
   176   89  210 1    
   177   90   91 1    
   178   90   92 1    
   179   90  211 1    
   180   91  212 1    
   181   91  213 1    
   182   91  214 1    
   183   92   93 2    
   184   92   94 am   BACKBONE|DICT|INTERRES
   185   94   95 1    
   186   94  215 1    
   187   95   96 1    
   188   95   97 1    
   189   95  216 1    
   190   96  217 1    
   191   96  218 1    
   192   96  219 1    
   193   97   98 2    
   194   97   99 am   BACKBONE|DICT|INTERRES
   195   99  100 1    
   196   99  220 1    
   197  100  101 1    
   198  100  102 1    
   199  100  221 1    
   200  101  222 1    
   201  101  223 1    
   202  101  224 1    
   203  102  103 2    
   204  102  104 am   BACKBONE|DICT|INTERRES
   205  104  105 1    
   206  104  225 1    
   207  105  106 1    
   208  105  107 1    
   209  105  226 1    
   210  106  227 1    
   211  106  228 1    
   212  106  229 1    
   213  107  108 2    
   214  107  109 am   BACKBONE|DICT|INTERRES
   215  109  110 1    
   216  109  230 1    
   217  110  111 1    
   218  110  112 1    
   219  110  231 1    
   220  111  232 1    
   221  111  233 1    
   222  111  234 1    
   223  112  113 2    
   224  112  114 am   BACKBONE|DICT|INTERRES
   225  114  115 1    
   226  114  235 1    
   227  115  116 1    
   228  115  117 1    
   229  115  236 1    
   230  116  237 1    
   231  116  238 1    
   232  116  239 1    
   233  117  118 2    
   234  117  119 am   BACKBONE|DICT|INTERRES
   235  119  120 1    
   236  119  240 1    
   237  120  121 1    
   238  120  124 1    
   239  120  241 1    
   240  121  122 am   BACKBONE|DICT|INTERRES
   241  121  123 2    
   242  122  242 1    
   243  122  243 1    
   244  124  125 1    
   245  124  244 1    
   246  124  245 1    
   247  125  126 1    
   248  126  246 1    
   249  126  247 1    
@<TRIPOS>SUBSTRUCTURE
     1 UNK         1 GROUP             0       ****    0 ROOT    
