@<TRIPOS>MOLECULE
3R540
247   249    1
SMALL
USER_CHARGES


@<TRIPOS>ATOM
      1 CA         -3.0932   -9.9691  -45.9629 C.3       0 UNK        -0.1800 
      2 C          -2.6042  -11.2414  -46.6396 C.2       0 UNK         0.5000 
      3 O          -3.3740  -12.1907  -46.7869 O.2       0 UNK        -0.5000 
      4 N          -1.3269  -11.2647  -47.0448 N.am      1 UNK        -0.5000 
      5 CA         -0.6233  -12.3607  -47.7235 C.3       1 UNK         0.1400 
      6 C6         -1.2743  -12.7672  -49.0753 C.3       23 UNK        -0.0398 
      7 S7         -0.1928  -13.8216  -50.0989 S.3       23 UNK        -0.2404 
      8 C8         -1.0714  -15.4112  -49.9934 C.3       23 UNK        -0.0205 
      9 C9         -0.1829  -16.5549  -50.4484 C.ar      23 UNK        -0.0193 
     10 C10        -0.0958  -16.8830  -51.8034 C.ar      23 UNK        -0.1150 
     11 C11         0.7320  -17.9258  -52.2284 C.ar      23 UNK        -0.0193 
     12 C12         1.4802  -18.6374  -51.2863 C.ar      23 UNK        -0.1150 
     13 C13         1.3763  -18.3392  -49.9254 C.ar      23 UNK        -0.0193 
     14 C14         0.5484  -17.2911  -49.5122 C.ar      23 UNK        -0.1150 
     15 C15         2.1404  -19.1637  -48.8986 C.3       23 UNK        -0.0205 
     16 S16         1.5811  -20.8996  -48.8432 S.3       23 UNK        -0.2404 
     17 C17        -0.2202  -20.6932  -48.6446 C.3       23 UNK        -0.0398 
     18 CA         -0.8724  -21.7812  -47.7654 C.3       11 UNK         0.1400 
     19 N          -0.3085  -21.8343  -46.4141 N.am      11 UNK        -0.5000 
     20 C          -0.4818  -22.8591  -45.5665 C.2       10 UNK         0.5000 
     21 O          -1.1391  -23.8622  -45.8407 O.2       10 UNK        -0.5000 
     22 CA          0.1330  -22.7227  -44.1601 C.3       10 UNK         0.1400 
     23 CB          1.5746  -23.2500  -44.1526 C.3       10 UNK        -0.1800 
     24 N           0.1171  -21.3488  -43.6577 N.am      10 UNK        -0.5000 
     25 C          -0.9917  -20.6178  -43.4656 C.2       9 UNK         0.5000 
     26 O          -2.1296  -21.0581  -43.6293 O.2       9 UNK        -0.5000 
     27 CA         -0.8059  -19.1348  -43.0893 C.3       9 UNK         0.1400 
     28 CB         -0.9501  -18.9434  -41.5729 C.3       9 UNK        -0.1800 
     29 N           0.4730  -18.5662  -43.5221 N.am      9 UNK        -0.5000 
     30 C           0.9293  -18.5203  -44.7824 C.2       8 UNK         0.5000 
     31 O           0.2773  -18.8917  -45.7585 O.2       8 UNK        -0.5000 
     32 CA          2.3766  -18.0321  -44.9772 C.3       8 UNK         0.1400 
     33 CB          2.4013  -16.5880  -45.4946 C.3       8 UNK        -0.1800 
     34 N           3.1786  -18.1179  -43.7558 N.am      8 UNK        -0.5000 
     35 C           3.6078  -19.2562  -43.1935 C.2       7 UNK         0.5000 
     36 O           3.3464  -20.3717  -43.6467 O.2       7 UNK        -0.5000 
     37 CA          4.4362  -19.1135  -41.8975 C.3       7 UNK         0.1400 
     38 CB          5.2579  -20.3768  -41.5675 C.3       7 UNK        -0.1800 
     39 N           5.2871  -17.9170  -41.8848 N.am      7 UNK        -0.5000 
     40 C           6.2742  -17.6033  -42.7374 C.2       6 UNK         0.5000 
     41 O           6.6417  -18.3328  -43.6600 O.2       6 UNK        -0.5000 
     42 CA          6.9287  -16.2184  -42.5352 C.3       6 UNK         0.1400 
     43 CB          8.0038  -15.9065  -43.5923 C.3       6 UNK        -0.1800 
     44 N           5.9299  -15.1466  -42.5542 N.am      6 UNK        -0.5000 
     45 C           5.1421  -14.7992  -41.5290 C.2       5 UNK         0.5000 
     46 O           5.2187  -15.3274  -40.4166 O.2       5 UNK        -0.5000 
     47 CA          4.0778  -13.7075  -41.7818 C.3       5 UNK         0.1400 
     48 CB          3.8157  -13.4185  -43.2774 C.3       5 UNK        -0.1800 
     49 N           2.8151  -14.0021  -41.0972 N.am      5 UNK        -0.5000 
     50 C           2.0537  -15.0969  -41.2364 C.2       4 UNK         0.5000 
     51 O           2.3139  -16.0287  -41.9992 O.2       4 UNK        -0.5000 
     52 CA          0.7720  -15.1700  -40.3878 C.3       4 UNK         0.1400 
     53 CB          0.9005  -14.5074  -38.9983 C.3       4 UNK        -0.1800 
     54 N          -0.3830  -14.6609  -41.1294 N.am      4 UNK        -0.5000 
     55 C          -0.6098  -13.4113  -41.5567 C.2       3 UNK         0.5000 
     56 O           0.1302  -12.4536  -41.3250 O.2       3 UNK        -0.5000 
     57 CA         -1.8766  -13.2207  -42.4168 C.3       3 UNK         0.1400 
     58 CB         -2.2858  -11.7433  -42.5513 C.3       3 UNK        -0.1800 
     59 N          -1.7016  -13.7784  -43.7571 N.am      3 UNK        -0.5000 
     60 C          -1.6697  -15.0802  -44.0707 C.2       2 UNK         0.5000 
     61 O          -1.8396  -15.9728  -43.2400 O.2       2 UNK        -0.5000 
     62 CA         -1.4182  -15.4506  -45.5467 C.3       2 UNK         0.1400 
     63 CB         -2.4439  -16.4758  -46.0530 C.3       2 UNK        -0.1800 
     64 N          -1.4394  -14.2852  -46.4324 N.am      2 UNK        -0.5000 
     65 C          -0.3730  -13.5534  -46.7752 C.2       1 UNK         0.5000 
     66 O           0.7632  -13.7654  -46.3535 O.2       1 UNK        -0.5000 
     67 C          -2.4005  -21.5835  -47.7412 C.2       11 UNK         0.5000 
     68 O          -3.0833  -22.0795  -48.6376 O.2       11 UNK        -0.5000 
     69 N          -2.9148  -20.8750  -46.7260 N.am      12 UNK        -0.5000 
     70 CA         -4.3492  -20.7136  -46.4913 C.3       12 UNK         0.1400 
     71 CB         -4.6103  -19.4729  -45.6266 C.3       12 UNK        -0.1800 
     72 C          -4.9618  -21.9725  -45.8581 C.2       12 UNK         0.5000 
     73 O          -6.0481  -22.3800  -46.2667 O.2       12 UNK        -0.5000 
     74 N          -4.2401  -22.5944  -44.9138 N.am      13 UNK        -0.5000 
     75 CA         -4.6228  -23.8492  -44.2594 C.3       13 UNK         0.1400 
     76 CB         -3.6395  -24.1546  -43.1201 C.3       13 UNK        -0.1800 
     77 C          -4.7085  -25.0351  -45.2401 C.2       13 UNK         0.5000 
     78 O          -5.6388  -25.8364  -45.1481 O.2       13 UNK        -0.5000 
     79 N          -3.7630  -25.0973  -46.1879 N.am      14 UNK        -0.5000 
     80 CA         -3.7476  -26.0560  -47.2957 C.3       14 UNK         0.1400 
     81 CB         -2.3230  -26.1158  -47.8706 C.3       14 UNK        -0.1800 
     82 C          -4.7529  -25.7167  -48.4165 C.2       14 UNK         0.5000 
     83 O          -4.9711  -26.5501  -49.2958 O.2       14 UNK        -0.5000 
     84 N          -5.3079  -24.4948  -48.3894 N.am      15 UNK        -0.5000 
     85 CA         -6.1979  -23.8733  -49.3784 C.3       15 UNK         0.1400 
     86 CB         -7.5142  -24.6620  -49.5272 C.3       15 UNK        -0.1800 
     87 C          -5.5265  -23.5900  -50.7387 C.2       15 UNK         0.5000 
     88 O          -6.2165  -23.2387  -51.6956 O.2       15 UNK        -0.5000 
     89 N          -4.1929  -23.6917  -50.7999 N.am      16 UNK        -0.5000 
     90 CA         -3.3775  -23.4247  -51.9812 C.3       16 UNK         0.1400 
     91 CB         -1.9397  -23.8992  -51.7256 C.3       16 UNK        -0.1800 
     92 C          -3.3994  -21.9421  -52.3828 C.2       16 UNK         0.5000 
     93 O          -3.4431  -21.6452  -53.5761 O.2       16 UNK        -0.5000 
     94 N          -3.4099  -21.0458  -51.3853 N.am      17 UNK        -0.5000 
     95 CA         -3.5483  -19.6009  -51.5842 C.3       17 UNK         0.1400 
     96 CB         -3.1847  -18.8579  -50.2886 C.3       17 UNK        -0.1800 
     97 C          -4.9596  -19.2036  -52.0542 C.2       17 UNK         0.5000 
     98 O          -5.0958  -18.2701  -52.8444 O.2       17 UNK        -0.5000 
     99 N          -5.9797  -19.9264  -51.5699 N.am      18 UNK        -0.5000 
    100 CA        -7.3850  -19.7179  -51.9204 C.3       18 UNK         0.1400 
    101 CB        -8.2804  -20.4075  -50.8787 C.3       18 UNK        -0.1800 
    102 C         -7.7053  -20.2156  -53.3406 C.2       18 UNK         0.5000 
    103 O         -8.3877  -19.5190  -54.0925 O.2       18 UNK        -0.5000 
    104 N         -7.1873  -21.4015  -53.6871 N.am      19 UNK        -0.5000 
    105 CA        -7.3333  -22.0237  -55.0040 C.3       19 UNK         0.1400 
    106 CB        -7.0175  -23.5225  -54.8725 C.3       19 UNK        -0.1800 
    107 C         -6.4366  -21.3917  -56.0867 C.2       19 UNK         0.5000 
    108 O         -6.6804  -21.6207  -57.2718 O.2       19 UNK        -0.5000 
    109 N         -5.4000  -20.6525  -55.6613 N.am      20 UNK        -0.5000 
    110 CA        -4.2909  -20.1218  -56.4648 C.3       20 UNK         0.1400 
    111 CB        -4.7838  -19.0937  -57.5036 C.3       20 UNK        -0.1800 
    112 C         -3.4216  -21.2433  -57.0776 C.2       20 UNK         0.5000 
    113 O         -2.8271  -21.0673  -58.1422 O.2       20 UNK        -0.5000 
    114 N         -3.3549  -22.3781  -56.3701 N.am      21 UNK        -0.5000 
    115 CA        -2.5501  -23.5539  -56.6994 C.3       21 UNK         0.1400 
    116 CB        -3.2507  -24.7965  -56.1272 C.3       21 UNK        -0.1800 
    117 C         -1.1109  -23.4430  -56.1585 C.2       21 UNK         0.5000 
    118 O         -0.2682  -24.2720  -56.5029 O.2       21 UNK        -0.5000 
    119 N         -0.8585  -22.4297  -55.3208 N.am      22 UNK        -0.5000 
    120 CA         0.4382  -22.0953  -54.7160 C.3       22 UNK         0.1400 
    121 C          1.5647  -21.6647  -55.7052 C.2       22 UNK         0.5000 
    122 N          1.2695  -21.3507  -56.9609 N.am      22 UNK        -0.7600 
    123 O          2.7309  -21.6219  -55.3232 O.2       22 UNK        -0.5000 
    124 C124        0.2556  -21.0604  -53.5773 C.3       23 UNK        -0.0398 
    125 S125       -0.4917  -19.4876  -54.1441 S.3       23 UNK        -0.2404 
    126 C126        0.8019  -18.2866  -53.7034 C.3       23 UNK        -0.0205 
    127 H127       -3.5924  -10.2079  -45.0243 H         1 UNK         0.0600 
    128 H128       -3.8072   -9.4552  -46.6063 H         1 UNK         0.0600 
    129 H129       -2.2733   -9.2841  -45.7459 H         1 UNK         0.0600 
    130 H130       -0.7552  -10.4500  -46.8672 H         1 UNK         0.3000 
    131 H131        0.3605  -11.9508  -47.9594 H         1 UNK         0.0600 
    132 H132       -2.2397  -13.2529  -48.9288 H         1 UNK         0.0800 
    133 H133       -1.4856  -11.8690  -49.6568 H         1 UNK         0.0800 
    134 H134       -1.9749  -15.3697  -50.6036 H         1 UNK         0.0800 
    135 H135       -1.3989  -15.5871  -48.9691 H         1 UNK         0.0800 
    136 H136       -0.6725  -16.3255  -52.5281 H         1 UNK         0.1150 
    137 H137        2.1273  -19.4423  -51.6028 H         1 UNK         0.1150 
    138 H138        0.4672  -17.0504  -48.4612 H         1 UNK         0.1150 
    139 H139        2.0318  -18.7285  -47.9064 H         1 UNK         0.0800 
    140 H140        3.2052  -19.1376  -49.1332 H         1 UNK         0.0800 
    141 H141       -0.6497  -20.7087  -49.6477 H         1 UNK         0.0800 
    142 H142       -0.4288  -19.7052  -48.2307 H         1 UNK         0.0800 
    143 H143       -0.6854  -22.7466  -48.2410 H         1 UNK         0.0600 
    144 H144        0.2042  -21.0147  -46.1113 H         1 UNK         0.3000 
    145 H145       -0.4576  -23.3335  -43.4753 H         1 UNK         0.0600 
    146 H146        1.6117  -24.2899  -44.4798 H         1 UNK         0.0600 
    147 H147        2.0063  -23.2077  -43.1524 H         1 UNK         0.0600 
    148 H148        2.2171  -22.6727  -44.8189 H         1 UNK         0.0600 
    149 H149        1.0183  -20.9099  -43.5221 H         1 UNK         0.3000 
    150 H150       -1.6035  -18.5803  -43.5841 H         1 UNK         0.0600 
    151 H151       -1.8966  -19.3513  -41.2156 H         1 UNK         0.0600 
    152 H152       -0.9354  -17.8866  -41.3079 H         1 UNK         0.0600 
    153 H153       -0.1486  -19.4408  -41.0254 H         1 UNK         0.0600 
    154 H154        1.0750  -18.2023  -42.7974 H         1 UNK         0.3000 
    155 H155        2.8428  -18.6747  -45.7258 H         1 UNK         0.0600 
    156 H156        3.4218  -16.2474  -45.6696 H         1 UNK         0.0600 
    157 H157        1.9341  -15.9009  -44.7882 H         1 UNK         0.0600 
    158 H158        1.8649  -16.5006  -46.4401 H         1 UNK         0.0600 
    159 H159        3.3275  -17.2483  -43.2550 H         1 UNK         0.3000 
    160 H160        3.7110  -18.9754  -41.0945 H         1 UNK         0.0600 
    161 H161        5.9661  -20.6187  -42.3604 H         1 UNK         0.0600 
    162 H162        4.6081  -21.2429  -41.4359 H         1 UNK         0.0600 
    163 H163        5.8198  -20.2513  -40.6420 H         1 UNK         0.0600 
    164 H164        5.0587  -17.2219  -41.1812 H         1 UNK         0.3000 
    165 H165        7.4198  -16.2333  -41.5598 H         1 UNK         0.0600 
    166 H166        8.7923  -16.6601  -43.5834 H         1 UNK         0.0600 
    167 H167        7.5843  -15.8797  -44.5988 H         1 UNK         0.0600 
    168 H168        8.4769  -14.9432  -43.4005 H         1 UNK         0.0600 
    169 H169        5.7863  -14.6901  -43.4433 H         1 UNK         0.3000 
    170 H170        4.4657  -12.7941  -41.3292 H         1 UNK         0.0600 
    171 H171        3.0251  -12.6774  -43.3979 H         1 UNK         0.0600 
    172 H172        3.5092  -14.3135  -43.8186 H         1 UNK         0.0600 
    173 H173        4.7030  -13.0171  -43.7679 H         1 UNK         0.0600 
    174 H174        2.4923  -13.2927  -40.4545 H         1 UNK         0.3000 
    175 H175        0.5813  -16.2304  -40.2178 H         1 UNK         0.0600 
    176 H176        1.7527  -14.9145  -38.4525 H         1 UNK         0.0600 
    177 H177        1.0338  -13.4272  -39.0536 H         1 UNK         0.0600 
    178 H178        0.0123  -14.6972  -38.3958 H         1 UNK         0.0600 
    179 H179       -1.0103  -15.3726  -41.4909 H         1 UNK         0.3000 
    180 H180       -2.6953  -13.7473  -41.9216 H         1 UNK         0.0600 
    181 H181       -1.5407  -11.1636  -43.0978 H         1 UNK         0.0600 
    182 H182       -2.4095  -11.2810  -41.5711 H         1 UNK         0.0600 
    183 H183       -3.2369  -11.6481  -43.0748 H         1 UNK         0.0600 
    184 H184       -1.5351  -13.1167  -44.4996 H         1 UNK         0.3000 
    185 H185       -0.4359  -15.9213  -45.5913 H         1 UNK         0.0600 
    186 H186       -2.4153  -17.3819  -45.4487 H         1 UNK         0.0600 
    187 H187       -3.4603  -16.0825  -46.0156 H         1 UNK         0.0600 
    188 H188       -2.2337  -16.7763  -47.0790 H         1 UNK         0.0600 
    189 H189       -2.3522  -13.9554  -46.7299 H         1 UNK         0.3000 
    190 H190       -2.2914  -20.5196  -46.0151 H         1 UNK         0.3000 
    191 H191       -4.8470  -20.5556  -47.4508 H         1 UNK         0.0600 
    192 H192       -4.3456  -18.5657  -46.1671 H         1 UNK         0.0600 
    193 H193       -5.6667  -19.3918  -45.3671 H         1 UNK         0.0600 
    194 H194       -4.0443  -19.4937  -44.6953 H         1 UNK         0.0600 
    195 H195       -3.3833  -22.1553  -44.5886 H         1 UNK         0.3000 
    196 H196       -5.6137  -23.7055  -43.8237 H         1 UNK         0.0600 
    197 H197       -3.9448  -25.0460  -42.5707 H         1 UNK         0.0600 
    198 H198       -3.5921  -23.3317  -42.4065 H         1 UNK         0.0600 
    199 H199       -2.6320  -24.3314  -43.4958 H         1 UNK         0.0600 
    200 H200       -2.9803  -24.4510  -46.1406 H         1 UNK         0.3000 
    201 H201       -4.0048  -27.0442  -46.9089 H         1 UNK         0.0600 
    202 H202       -2.2534  -26.8457  -48.6781 H         1 UNK         0.0600 
    203 H203       -1.6021  -26.4086  -47.1069 H         1 UNK         0.0600 
    204 H204       -2.0110  -25.1505  -48.2718 H         1 UNK         0.0600 
    205 H205       -5.0751  -23.9004  -47.6048 H         1 UNK         0.3000 
    206 H206       -6.4519  -22.8943  -48.9704 H         1 UNK         0.0600 
    207 H207       -7.9776  -24.8407  -48.5570 H         1 UNK         0.0600 
    208 H208       -8.2342  -24.1099  -50.1324 H         1 UNK         0.0600 
    209 H209       -7.3587  -25.6269  -50.0099 H         1 UNK         0.0600 
    210 H210       -3.6991  -23.8821  -49.9395 H         1 UNK         0.3000 
    211 H211       -3.7906  -24.0026  -52.8097 H         1 UNK         0.0600 
    212 H212       -1.9156  -24.9562  -51.4600 H         1 UNK         0.0600 
    213 H213       -1.3249  -23.7773  -52.6180 H         1 UNK         0.0600 
    214 H214       -1.4665  -23.3399  -50.9172 H         1 UNK         0.0600 
    215 H215       -3.3705  -21.3860  -50.4289 H         1 UNK         0.3000 
    216 H216       -2.8461  -19.2894  -52.3593 H         1 UNK         0.0600 
    217 H217       -3.7762  -19.2043  -49.4407 H         1 UNK         0.0600 
    218 H218       -3.3548  -17.7854  -50.3917 H         1 UNK         0.0600 
    219 H219       -2.1319  -18.9856  -50.0448 H         1 UNK         0.0600 
    220 H220       -5.7727  -20.6970  -50.9538 H         1 UNK         0.3000 
    221 H221       -7.5929  -18.6462  -51.8862 H         1 UNK         0.0600 
    222 H222       -8.1260  -21.4865  -50.8580 H         1 UNK         0.0600 
    223 H223       -8.0891  -20.0222  -49.8770 H         1 UNK         0.0600 
    224 H224       -9.3347  -20.2333  -51.0973 H         1 UNK         0.0600 
    225 H225       -6.6959  -21.9482  -52.9840 H         1 UNK         0.3000 
    226 H226       -8.3705  -21.9177  -55.3286 H         1 UNK         0.0600 
    227 H227       -7.6803  -24.0034  -54.1528 H         1 UNK         0.0600 
    228 H228       -7.1444  -24.0372  -55.8258 H         1 UNK         0.0600 
    229 H229       -5.9908  -23.6888  -54.5432 H         1 UNK         0.0600 
    230 H230       -5.2828  -20.5605  -54.6612 H         1 UNK         0.3000 
    231 H231       -3.6434  -19.5926  -55.7636 H         1 UNK         0.0600 
    232 H232       -5.3673  -19.5617  -58.2965 H         1 UNK         0.0600 
    233 H233       -3.9428  -18.5854  -57.9765 H         1 UNK         0.0600 
    234 H234       -5.4034  -18.3283  -57.0362 H         1 UNK         0.0600 
    235 H235       -3.8035  -22.3796  -55.4614 H         1 UNK         0.3000 
    236 H236       -2.4912  -23.6595  -57.7846 H         1 UNK         0.0600 
    237 H237       -3.3121  -24.7593  -55.0396 H         1 UNK         0.0600 
    238 H238       -4.2642  -24.8924  -56.5174 H         1 UNK         0.0600 
    239 H239       -2.7127  -25.7069  -56.3944 H         1 UNK         0.0600 
    240 H240       -1.6208  -21.8090  -55.0835 H         1 UNK         0.3000 
    241 H241        0.8014  -23.0149  -54.2536 H         1 UNK         0.0600 
    242 H242        0.3154  -21.3740  -57.2837 H         1 UNK         0.3800 
    243 H243        2.0067  -21.0780  -57.5916 H         1 UNK         0.3800 
    244 H244       -0.3892  -21.4715  -52.8009 H         1 UNK         0.0800 
    245 H245        1.2111  -20.8766  -53.0873 H         1 UNK         0.0800 
    246 H246        1.7862  -18.6806  -53.9618 H         1 UNK         0.0800 
    247 H247        0.6670  -17.3885  -54.3079 H         1 UNK         0.0800 
@<TRIPOS>BOND
     1    1    2 1    
     2    1  127 1    
     3    1  128 1    
     4    1  129 1    
     5    2    3 2    
     6    2    4 am   BACKBONE|DICT|INTERRES
     7    4    5 1    
     8    4  130 1    
     9    5    6 1    
    10    5   65 1    
    11    5  131 1    
    12    6    7 1    
    13    6  132 1    
    14    6  133 1    
    15    7    8 1    
    16    8    9 1    
    17    8  134 1    
    18    8  135 1    
    19    9   10 ar   
    20    9   14 ar   
    21   10   11 ar   
    22   10  136 1    
    23   11   12 ar   
    24   11  126 1    
    25   12   13 ar   
    26   12  137 1    
    27   13   14 ar   
    28   13   15 1    
    29   14  138 1    
    30   15   16 1    
    31   15  139 1    
    32   15  140 1    
    33   16   17 1    
    34   17   18 1    
    35   17  141 1    
    36   17  142 1    
    37   18   19 1    
    38   18   67 1    
    39   18  143 1    
    40   19   20 am   BACKBONE|DICT|INTERRES
    41   19  144 1    
    42   20   21 2    
    43   20   22 1    
    44   22   23 1    
    45   22   24 1    
    46   22  145 1    
    47   23  146 1    
    48   23  147 1    
    49   23  148 1    
    50   24   25 am   BACKBONE|DICT|INTERRES
    51   24  149 1    
    52   25   26 2    
    53   25   27 1    
    54   27   28 1    
    55   27   29 1    
    56   27  150 1    
    57   28  151 1    
    58   28  152 1    
    59   28  153 1    
    60   29   30 am   BACKBONE|DICT|INTERRES
    61   29  154 1    
    62   30   31 2    
    63   30   32 1    
    64   32   33 1    
    65   32   34 1    
    66   32  155 1    
    67   33  156 1    
    68   33  157 1    
    69   33  158 1    
    70   34   35 am   BACKBONE|DICT|INTERRES
    71   34  159 1    
    72   35   36 2    
    73   35   37 1    
    74   37   38 1    
    75   37   39 1    
    76   37  160 1    
    77   38  161 1    
    78   38  162 1    
    79   38  163 1    
    80   39   40 am   BACKBONE|DICT|INTERRES
    81   39  164 1    
    82   40   41 2    
    83   40   42 1    
    84   42   43 1    
    85   42   44 1    
    86   42  165 1    
    87   43  166 1    
    88   43  167 1    
    89   43  168 1    
    90   44   45 am   BACKBONE|DICT|INTERRES
    91   44  169 1    
    92   45   46 2    
    93   45   47 1    
    94   47   48 1    
    95   47   49 1    
    96   47  170 1    
    97   48  171 1    
    98   48  172 1    
    99   48  173 1    
   100   49   50 am   BACKBONE|DICT|INTERRES
   101   49  174 1    
   102   50   51 2    
   103   50   52 1    
   104   52   53 1    
   105   52   54 1    
   106   52  175 1    
   107   53  176 1    
   108   53  177 1    
   109   53  178 1    
   110   54   55 am   BACKBONE|DICT|INTERRES
   111   54  179 1    
   112   55   56 2    
   113   55   57 1    
   114   57   58 1    
   115   57   59 1    
   116   57  180 1    
   117   58  181 1    
   118   58  182 1    
   119   58  183 1    
   120   59   60 am   BACKBONE|DICT|INTERRES
   121   59  184 1    
   122   60   61 2    
   123   60   62 1    
   124   62   63 1    
   125   62   64 1    
   126   62  185 1    
   127   63  186 1    
   128   63  187 1    
   129   63  188 1    
   130   64   65 am   BACKBONE|DICT|INTERRES
   131   64  189 1    
   132   65   66 2    
   133   67   68 2    
   134   67   69 am   BACKBONE|DICT|INTERRES
   135   69   70 1    
   136   69  190 1    
   137   70   71 1    
   138   70   72 1    
   139   70  191 1    
   140   71  192 1    
   141   71  193 1    
   142   71  194 1    
   143   72   73 2    
   144   72   74 am   BACKBONE|DICT|INTERRES
   145   74   75 1    
   146   74  195 1    
   147   75   76 1    
   148   75   77 1    
   149   75  196 1    
   150   76  197 1    
   151   76  198 1    
   152   76  199 1    
   153   77   78 2    
   154   77   79 am   BACKBONE|DICT|INTERRES
   155   79   80 1    
   156   79  200 1    
   157   80   81 1    
   158   80   82 1    
   159   80  201 1    
   160   81  202 1    
   161   81  203 1    
   162   81  204 1    
   163   82   83 2    
   164   82   84 am   BACKBONE|DICT|INTERRES
   165   84   85 1    
   166   84  205 1    
   167   85   86 1    
   168   85   87 1    
   169   85  206 1    
   170   86  207 1    
   171   86  208 1    
   172   86  209 1    
   173   87   88 2    
   174   87   89 am   BACKBONE|DICT|INTERRES
   175   89   90 1    
   176   89  210 1    
   177   90   91 1    
   178   90   92 1    
   179   90  211 1    
   180   91  212 1    
   181   91  213 1    
   182   91  214 1    
   183   92   93 2    
   184   92   94 am   BACKBONE|DICT|INTERRES
   185   94   95 1    
   186   94  215 1    
   187   95   96 1    
   188   95   97 1    
   189   95  216 1    
   190   96  217 1    
   191   96  218 1    
   192   96  219 1    
   193   97   98 2    
   194   97   99 am   BACKBONE|DICT|INTERRES
   195   99  100 1    
   196   99  220 1    
   197  100  101 1    
   198  100  102 1    
   199  100  221 1    
   200  101  222 1    
   201  101  223 1    
   202  101  224 1    
   203  102  103 2    
   204  102  104 am   BACKBONE|DICT|INTERRES
   205  104  105 1    
   206  104  225 1    
   207  105  106 1    
   208  105  107 1    
   209  105  226 1    
   210  106  227 1    
   211  106  228 1    
   212  106  229 1    
   213  107  108 2    
   214  107  109 am   BACKBONE|DICT|INTERRES
   215  109  110 1    
   216  109  230 1    
   217  110  111 1    
   218  110  112 1    
   219  110  231 1    
   220  111  232 1    
   221  111  233 1    
   222  111  234 1    
   223  112  113 2    
   224  112  114 am   BACKBONE|DICT|INTERRES
   225  114  115 1    
   226  114  235 1    
   227  115  116 1    
   228  115  117 1    
   229  115  236 1    
   230  116  237 1    
   231  116  238 1    
   232  116  239 1    
   233  117  118 2    
   234  117  119 am   BACKBONE|DICT|INTERRES
   235  119  120 1    
   236  119  240 1    
   237  120  121 1    
   238  120  124 1    
   239  120  241 1    
   240  121  122 am   BACKBONE|DICT|INTERRES
   241  121  123 2    
   242  122  242 1    
   243  122  243 1    
   244  124  125 1    
   245  124  244 1    
   246  124  245 1    
   247  125  126 1    
   248  126  246 1    
   249  126  247 1    
@<TRIPOS>SUBSTRUCTURE
     1 UNK         1 GROUP             0       ****    0 ROOT    
