@<TRIPOS>MOLECULE
3R540
247   249    1
SMALL
USER_CHARGES


@<TRIPOS>ATOM
      1 CA         -2.8853  -10.2661  -47.0479 C.3       0 UNK        -0.1800 
      2 C          -2.3334  -11.5866  -47.5655 C.2       0 UNK         0.5000 
      3 O          -3.0887  -12.5453  -47.7256 O.2       0 UNK        -0.5000 
      4 N          -1.0192  -11.6391  -47.8219 N.am      1 UNK        -0.5000 
      5 CA         -0.2566  -12.7788  -48.3466 C.3       1 UNK         0.1400 
      6 C6         -0.7502  -13.2566  -49.7408 C.3       23 UNK        -0.0398 
      7 S7          0.4166  -14.3930  -50.5637 S.3       23 UNK        -0.2404 
      8 C8         -0.5260  -15.9459  -50.4864 C.3       23 UNK        -0.0205 
      9 C9          0.3778  -17.1493  -50.6834 C.ar      23 UNK        -0.0193 
     10 C10         0.5532  -17.7033  -51.9547 C.ar      23 UNK        -0.1150 
     11 C11         1.3742  -18.8206  -52.1292 C.ar      23 UNK        -0.0193 
     12 C12         2.0260  -19.3771  -51.0259 C.ar      23 UNK        -0.1150 
     13 C13         1.8434  -18.8431  -49.7480 C.ar      23 UNK        -0.0193 
     14 C14         1.0218  -17.7242  -49.5835 C.ar      23 UNK        -0.1150 
     15 C15         2.5106  -19.4910  -48.5417 C.3       23 UNK        -0.0205 
     16 S16         1.9973  -21.2260  -48.3081 S.3       23 UNK        -0.2404 
     17 C17         0.1809  -21.0633  -48.3467 C.3       23 UNK        -0.0398 
     18 CA         -0.5447  -22.1115  -47.4776 C.3       11 UNK         0.1400 
     19 N          -0.1259  -22.0688  -46.0750 N.am      11 UNK        -0.5000 
     20 C          -0.3423  -23.0544  -45.1925 C.2       10 UNK         0.5000 
     21 O          -0.9140  -24.1050  -45.4789 O.2       10 UNK        -0.5000 
     22 CA          0.1004  -22.8079  -43.7365 C.3       10 UNK         0.1400 
     23 CB          1.5424  -23.2903  -43.5265 C.3       10 UNK        -0.1800 
     24 N          -0.0039  -21.4036  -43.3379 N.am      10 UNK        -0.5000 
     25 C          -1.1461  -20.6994  -43.3254 C.2       9 UNK         0.5000 
     26 O          -2.2475  -21.1973  -43.5602 O.2       9 UNK        -0.5000 
     27 CA         -1.0436  -19.1803  -43.0823 C.3       9 UNK         0.1400 
     28 CB         -1.3973  -18.8409  -41.6276 C.3       9 UNK        -0.1800 
     29 N           0.2695  -18.6131  -43.4008 N.am      9 UNK        -0.5000 
     30 C           0.8740  -18.6590  -44.5971 C.2       8 UNK         0.5000 
     31 O           0.3470  -19.1243  -45.6070 O.2       8 UNK        -0.5000 
     32 CA          2.3301  -18.1620  -44.6630 C.3       8 UNK         0.1400 
     33 CB          2.4084  -16.7737  -45.3112 C.3       8 UNK        -0.1800 
     34 N           2.9771  -18.1142  -43.3511 N.am      8 UNK        -0.5000 
     35 C           3.3455  -19.1835  -42.6323 C.2       7 UNK         0.5000 
     36 O           3.1561  -20.3425  -43.0045 O.2       7 UNK        -0.5000 
     37 CA          3.9987  -18.9000  -41.2614 C.3       7 UNK         0.1400 
     38 CB          4.8074  -20.0983  -40.7226 C.3       7 UNK        -0.1800 
     39 N           4.8059  -17.6735  -41.2466 N.am      7 UNK        -0.5000 
     40 C           5.8875  -17.3947  -41.9894 C.2       6 UNK         0.5000 
     41 O           6.3920  -18.1836  -42.7903 O.2       6 UNK        -0.5000 
     42 CA          6.4728  -15.9743  -41.8255 C.3       6 UNK         0.1400 
     43 CB          7.6804  -15.7169  -42.7453 C.3       6 UNK        -0.1800 
     44 N           5.4617  -14.9458  -42.0832 N.am      6 UNK        -0.5000 
     45 C           4.5252  -14.5406  -41.2165 C.2       5 UNK         0.5000 
     46 O           4.4503  -14.9696  -40.0621 O.2       5 UNK        -0.5000 
     47 CA          3.4875  -13.5092  -41.7151 C.3       5 UNK         0.1400 
     48 CB          3.4355  -13.3625  -43.2528 C.3       5 UNK        -0.1800 
     49 N           2.1453  -13.7791  -41.1899 N.am      5 UNK        -0.5000 
     50 C           1.4307  -14.9047  -41.3315 C.2       4 UNK         0.5000 
     51 O           1.8154  -15.8952  -41.9549 O.2       4 UNK        -0.5000 
     52 CA          0.0399  -14.9383  -40.6736 C.3       4 UNK         0.1400 
     53 CB         -0.0552  -14.1273  -39.3622 C.3       4 UNK        -0.1800 
     54 N          -1.0054  -14.5579  -41.6259 N.am      4 UNK        -0.5000 
     55 C          -1.1965  -13.3694  -42.2147 C.2       3 UNK         0.5000 
     56 O          -0.5174  -12.3660  -41.9900 O.2       3 UNK        -0.5000 
     57 CA         -2.3335  -13.3159  -43.2561 C.3       3 UNK         0.1400 
     58 CB         -2.7880  -11.8782  -43.5620 C.3       3 UNK        -0.1800 
     59 N          -1.9388  -13.9569  -44.5094 N.am      3 UNK        -0.5000 
     60 C          -1.7989  -15.2744  -44.7064 C.2       2 UNK         0.5000 
     61 O          -2.0495  -16.1102  -43.8381 O.2       2 UNK        -0.5000 
     62 CA         -1.3096  -15.7390  -46.0934 C.3       2 UNK         0.1400 
     63 CB         -2.2059  -16.8472  -46.6677 C.3       2 UNK        -0.1800 
     64 N          -1.2258  -14.6400  -47.0588 N.am      2 UNK        -0.5000 
     65 C          -0.1293  -13.9119  -47.3040 C.2       1 UNK         0.5000 
     66 O           0.9432  -14.0810  -46.7250 O.2       1 UNK        -0.5000 
     67 C          -2.0699  -21.9460  -47.6238 C.2       11 UNK         0.5000 
     68 O          -2.6444  -22.4849  -48.5700 O.2       11 UNK        -0.5000 
     69 N          -2.7040  -21.2117  -46.6977 N.am      12 UNK        -0.5000 
     70 CA         -4.1589  -21.0796  -46.6194 C.3       12 UNK         0.1400 
     71 CB         -4.5403  -19.8138  -45.8394 C.3       12 UNK        -0.1800 
     72 C          -4.8020  -22.3320  -46.0037 C.2       12 UNK         0.5000 
     73 O          -5.8411  -22.7722  -46.4923 O.2       12 UNK        -0.5000 
     74 N          -4.1492  -22.9205  -44.9902 N.am      13 UNK        -0.5000 
     75 CA         -4.5416  -24.1911  -44.3718 C.3       13 UNK         0.1400 
     76 CB         -3.6742  -24.4488  -43.1310 C.3       13 UNK        -0.1800 
     77 C          -4.4656  -25.3791  -45.3525 C.2       13 UNK         0.5000 
     78 O          -5.3487  -26.2368  -45.3417 O.2       13 UNK        -0.5000 
     79 N          -3.4409  -25.3766  -46.2169 N.am      14 UNK        -0.5000 
     80 CA         -3.2688  -26.3134  -47.3312 C.3       14 UNK         0.1400 
     81 CB         -1.8020  -26.2643  -47.7889 C.3       14 UNK        -0.1800 
     82 C          -4.2063  -26.0339  -48.5265 C.2       14 UNK         0.5000 
     83 O          -4.2556  -26.8453  -49.4507 O.2       14 UNK        -0.5000 
     84 N          -4.9005  -24.8863  -48.5032 N.am      15 UNK        -0.5000 
     85 CA         -5.8233  -24.3441  -49.5071 C.3       15 UNK         0.1400 
     86 CB         -6.9967  -25.3059  -49.7791 C.3       15 UNK        -0.1800 
     87 C          -5.1539  -23.8631  -50.8104 C.2       15 UNK         0.5000 
     88 O          -5.8587  -23.3998  -51.7074 O.2       15 UNK        -0.5000 
     89 N          -3.8181  -23.9195  -50.8865 N.am      16 UNK        -0.5000 
     90 CA         -3.0154  -23.4738  -52.0244 C.3       16 UNK         0.1400 
     91 CB         -1.5501  -23.8814  -51.8088 C.3       16 UNK        -0.1800 
     92 C          -3.1302  -21.9603  -52.2607 C.2       16 UNK         0.5000 
     93 O          -3.3419  -21.5396  -53.3979 O.2       16 UNK        -0.5000 
     94 N          -3.0420  -21.1788  -51.1753 N.am      17 UNK        -0.5000 
     95 CA         -3.2118  -19.7248  -51.2048 C.3       17 UNK         0.1400 
     96 CB         -2.5828  -19.1007  -49.9517 C.3       17 UNK        -0.1800 
     97 C          -4.6884  -19.3090  -51.3197 C.2       17 UNK         0.5000 
     98 O          -4.9735  -18.2538  -51.8843 O.2       17 UNK        -0.5000 
     99 N          -5.5973  -20.1438  -50.7937 N.am      18 UNK        -0.5000 
    100 CA        -7.0442  -19.9203  -50.8234 C.3       18 UNK         0.1400 
    101 CB        -7.7367  -20.8701  -49.8336 C.3       18 UNK        -0.1800 
    102 C         -7.6210  -20.0826  -52.2405 C.2       18 UNK         0.5000 
    103 O         -8.4019  -19.2392  -52.6820 O.2       18 UNK        -0.5000 
    104 N         -7.1953  -21.1446  -52.9384 N.am      19 UNK        -0.5000 
    105 CA        -7.5208  -21.3960  -54.3433 C.3       19 UNK         0.1400 
    106 CB        -7.2952  -22.8870  -54.6407 C.3       19 UNK        -0.1800 
    107 C         -6.6884  -20.5335  -55.3126 C.2       19 UNK         0.5000 
    108 O         -7.0694  -20.3999  -56.4759 O.2       19 UNK        -0.5000 
    109 N         -5.5572  -20.0015  -54.8234 N.am      20 UNK        -0.5000 
    110 CA        -4.5021  -19.2934  -55.5578 C.3       20 UNK         0.1400 
    111 CB        -5.0222  -17.9654  -56.1441 C.3       20 UNK        -0.1800 
    112 C         -3.8124  -20.1941  -56.6055 C.2       20 UNK         0.5000 
    113 O         -3.3492  -19.7090  -57.6394 O.2       20 UNK        -0.5000 
    114 N         -3.7454  -21.4990  -56.3064 N.am      21 UNK        -0.5000 
    115 CA        -3.2038  -22.5524  -57.1657 C.3       21 UNK         0.1400 
    116 CB        -3.5256  -23.9170  -56.5374 C.3       21 UNK        -0.1800 
    117 C         -1.6918  -22.4112  -57.4128 C.2       21 UNK         0.5000 
    118 O         -1.2106  -22.7834  -58.4836 O.2       21 UNK        -0.5000 
    119 N         -0.9843  -21.8529  -56.4255 N.am      22 UNK        -0.5000 
    120 CA         0.4351  -21.4845  -56.4989 C.3       22 UNK         0.1400 
    121 C          0.7022  -20.0728  -57.1043 C.2       22 UNK         0.5000 
    122 N         -0.3035  -19.3246  -57.5456 N.am      22 UNK        -0.7600 
    123 O          1.8519  -19.6510  -57.1939 O.2       22 UNK        -0.5000 
    124 C124        1.1416  -21.7001  -55.1364 C.3       23 UNK        -0.0398 
    125 S125        0.3729  -20.8130  -53.7352 S.3       23 UNK        -0.2404 
    126 C126        1.5501  -19.4469  -53.5004 C.3       23 UNK        -0.0205 
    127 H127       -2.0893   -9.5860  -46.7436 H         1 UNK         0.0600 
    128 H128       -3.5324  -10.4360  -46.1880 H         1 UNK         0.0600 
    129 H129       -3.4743   -9.7786  -47.8245 H         1 UNK         0.0600 
    130 H130       -0.4639  -10.8138  -47.6411 H         1 UNK         0.3000 
    131 H131        0.7529  -12.3893  -48.4904 H         1 UNK         0.0600 
    132 H132       -1.7396  -13.7118  -49.6829 H         1 UNK         0.0800 
    133 H133       -0.8668  -12.3922  -50.3956 H         1 UNK         0.0800 
    134 H134       -1.3130  -15.9310  -51.2420 H         1 UNK         0.0800 
    135 H135       -1.0280  -16.0286  -49.5229 H         1 UNK         0.0800 
    136 H136        0.0459  -17.2707  -52.8055 H         1 UNK         0.1150 
    137 H137        2.6529  -20.2481  -51.1564 H         1 UNK         0.1150 
    138 H138        0.8729  -17.3040  -48.5983 H         1 UNK         0.1150 
    139 H139        2.2814  -18.9343  -47.6336 H         1 UNK         0.0800 
    140 H140        3.5935  -19.4515  -48.6650 H         1 UNK         0.0800 
    141 H141       -0.1275  -21.1563  -49.3899 H         1 UNK         0.0800 
    142 H142       -0.0952  -20.0562  -48.0302 H         1 UNK         0.0800 
    143 H143       -0.2920  -23.0980  -47.8720 H         1 UNK         0.0600 
    144 H144        0.3134  -21.2078  -45.7695 H         1 UNK         0.3000 
    145 H145       -0.5537  -23.3889  -43.0841 H         1 UNK         0.0600 
    146 H146        1.6394  -24.3489  -43.7709 H         1 UNK         0.0600 
    147 H147        1.8546  -23.1653  -42.4895 H         1 UNK         0.0600 
    148 H148        2.2449  -22.7420  -44.1558 H         1 UNK         0.0600 
    149 H149        0.8669  -20.9238  -43.1504 H         1 UNK         0.3000 
    150 H150       -1.7786  -18.7085  -43.7357 H         1 UNK         0.0600 
    151 H151       -0.6606  -19.2400  -40.9294 H         1 UNK         0.0600 
    152 H152       -2.3692  -19.2543  -41.3545 H         1 UNK         0.0600 
    153 H153       -1.4546  -17.7629  -41.4809 H         1 UNK         0.0600 
    154 H154        0.7719  -18.1747  -42.6421 H         1 UNK         0.3000 
    155 H155        2.8876  -18.8636  -45.2864 H         1 UNK         0.0600 
    156 H156        3.4392  -16.4262  -45.3802 H         1 UNK         0.0600 
    157 H157        1.8416  -16.0339  -44.7449 H         1 UNK         0.0600 
    158 H158        2.0056  -16.7903  -46.3244 H         1 UNK         0.0600 
    159 H159        3.0510  -17.1982  -42.9222 H         1 UNK         0.3000 
    160 H160        3.1735  -18.7247  -40.5698 H         1 UNK         0.0600 
    161 H161        5.6162  -20.3783  -41.3980 H         1 UNK         0.0600 
    162 H162        4.1708  -20.9748  -40.5961 H         1 UNK         0.0600 
    163 H163        5.2445  -19.8738  -39.7497 H         1 UNK         0.0600 
    164 H164        4.4673  -16.9306  -40.6431 H         1 UNK         0.3000 
    165 H165        6.8193  -15.8853  -40.7937 H         1 UNK         0.0600 
    166 H166        8.4766  -16.4384  -42.5576 H         1 UNK         0.0600 
    167 H167        7.4086  -15.7923  -43.7990 H         1 UNK         0.0600 
    168 H168        8.0989  -14.7244  -42.5773 H         1 UNK         0.0600 
    169 H169        5.4395  -14.5712  -43.0206 H         1 UNK         0.3000 
    170 H170        3.7909  -12.5477  -41.2992 H         1 UNK         0.0600 
    171 H171        2.6556  -12.6613  -43.5510 H         1 UNK         0.0600 
    172 H172        3.2272  -14.3115  -43.7466 H         1 UNK         0.0600 
    173 H173        4.3755  -12.9773  -43.6492 H         1 UNK         0.0600 
    174 H174        1.7213  -13.0240  -40.6700 H         1 UNK         0.3000 
    175 H175       -0.1472  -15.9814  -40.4156 H         1 UNK         0.0600 
    176 H176        0.7158  -14.4398  -38.6568 H         1 UNK         0.0600 
    177 H177        0.0587  -13.0546  -39.5170 H         1 UNK         0.0600 
    178 H178       -1.0183  -14.2875  -38.8775 H         1 UNK         0.0600 
    179 H179       -1.5553  -15.3280  -41.9922 H         1 UNK         0.3000 
    180 H180       -3.1900  -13.8522  -42.8417 H         1 UNK         0.0600 
    181 H181       -1.9995  -11.2962  -44.0409 H         1 UNK         0.0600 
    182 H182       -3.0743  -11.3560  -42.6482 H         1 UNK         0.0600 
    183 H183       -3.6564  -11.8757  -44.2205 H         1 UNK         0.0600 
    184 H184       -1.6996  -13.3426  -45.2725 H         1 UNK         0.3000 
    185 H185       -0.3195  -16.1698  -45.9466 H         1 UNK         0.0600 
    186 H186       -2.2454  -17.7006  -45.9906 H         1 UNK         0.0600 
    187 H187       -3.2269  -16.5001  -46.8295 H         1 UNK         0.0600 
    188 H188       -1.8177  -17.2181  -47.6155 H         1 UNK         0.0600 
    189 H189       -2.0952  -14.3451  -47.4912 H         1 UNK         0.3000 
    190 H190       -2.1677  -20.8180  -45.9377 H         1 UNK         0.3000 
    191 H191       -4.5575  -20.9731  -47.6308 H         1 UNK         0.0600 
    192 H192       -4.2218  -18.9194  -46.3722 H         1 UNK         0.0600 
    193 H193       -5.6218  -19.7428  -45.7167 H         1 UNK         0.0600 
    194 H194       -4.0961  -19.7933  -44.8446 H         1 UNK         0.0600 
    195 H195       -3.3366  -22.4534  -44.5994 H         1 UNK         0.3000 
    196 H196       -5.5794  -24.0941  -44.0463 H         1 UNK         0.0600 
    197 H197       -4.0041  -25.3459  -42.6059 H         1 UNK         0.0600 
    198 H198       -3.7330  -23.6182  -42.4272 H         1 UNK         0.0600 
    199 H199       -2.6267  -24.5919  -43.3944 H         1 UNK         0.0600 
    200 H200       -2.7036  -24.6899  -46.0904 H         1 UNK         0.3000 
    201 H201       -3.4843  -27.3224  -46.9741 H         1 UNK         0.0600 
    202 H202       -1.6146  -26.9794  -48.5908 H         1 UNK         0.0600 
    203 H203       -1.1252  -26.5118  -46.9709 H         1 UNK         0.0600 
    204 H204       -1.5310  -25.2755  -48.1604 H         1 UNK         0.0600 
    205 H205       -4.7877  -24.2996  -47.6867 H         1 UNK         0.3000 
    206 H206       -6.2434  -23.4487  -49.0501 H         1 UNK         0.0600 
    207 H207       -7.4751  -25.6164  -48.8502 H         1 UNK         0.0600 
    208 H208       -7.7608  -24.8252  -50.3912 H         1 UNK         0.0600 
    209 H209       -6.6750  -26.2023  -50.3095 H         1 UNK         0.0600 
    210 H210       -3.3138  -24.2274  -50.0676 H         1 UNK         0.3000 
    211 H211       -3.3864  -23.9810  -52.9174 H         1 UNK         0.0600 
    212 H212       -1.4528  -24.9626  -51.7094 H         1 UNK         0.0600 
    213 H213       -0.9321  -23.5755  -52.6541 H         1 UNK         0.0600 
    214 H214       -1.1299  -23.4234  -50.9122 H         1 UNK         0.0600 
    215 H215       -2.8889  -21.6188  -50.2725 H         1 UNK         0.3000 
    216 H216       -2.6851  -19.3297  -52.0768 H         1 UNK         0.0600 
    217 H217       -3.0406  -19.4732  -49.0361 H         1 UNK         0.0600 
    218 H218       -2.7023  -18.0168  -49.9563 H         1 UNK         0.0600 
    219 H219       -1.5146  -19.3039  -49.9102 H         1 UNK         0.0600 
    220 H220       -5.2735  -21.0033  -50.3790 H         1 UNK         0.3000 
    221 H221       -7.2343  -18.8957  -50.4964 H         1 UNK         0.0600 
    222 H222       -7.6635  -21.9101  -50.1504 H         1 UNK         0.0600 
    223 H223       -7.3073  -20.7888  -48.8346 H         1 UNK         0.0600 
    224 H224       -8.7979  -20.6328  -49.7513 H         1 UNK         0.0600 
    225 H225       -6.6005  -21.8341  -52.4847 H         1 UNK         0.3000 
    226 H226       -8.5752  -21.1668  -54.5112 H         1 UNK         0.0600 
    227 H227       -7.9048  -23.5154  -53.9911 H         1 UNK         0.0600 
    228 H228       -7.5621  -23.1271  -55.6706 H         1 UNK         0.0600 
    229 H229       -6.2519  -23.1716  -54.4966 H         1 UNK         0.0600 
    230 H230       -5.3379  -20.2066  -53.8588 H         1 UNK         0.3000 
    231 H231       -3.7356  -19.0484  -54.8210 H         1 UNK         0.0600 
    232 H232       -5.7399  -18.1283  -56.9484 H         1 UNK         0.0600 
    233 H233       -4.2033  -17.3731  -56.5537 H         1 UNK         0.0600 
    234 H234       -5.5070  -17.3609  -55.3774 H         1 UNK         0.0600 
    235 H235       -4.0512  -21.7771  -55.3817 H         1 UNK         0.3000 
    236 H236       -3.7063  -22.4887  -58.1329 H         1 UNK         0.0600 
    237 H237       -3.0711  -24.0226  -55.5514 H         1 UNK         0.0600 
    238 H238       -4.6013  -24.0569  -56.4278 H         1 UNK         0.0600 
    239 H239       -3.1542  -24.7318  -57.1603 H         1 UNK         0.0600 
    240 H240       -1.4675  -21.5703  -55.5839 H         1 UNK         0.3000 
    241 H241        0.9179  -22.1710  -57.1967 H         1 UNK         0.0600 
    242 H242       -1.2611  -19.6526  -57.5212 H         1 UNK         0.3800 
    243 H243       -0.1022  -18.4199  -57.9407 H         1 UNK         0.3800 
    244 H244        1.1151  -22.7627  -54.8920 H         1 UNK         0.0800 
    245 H245        2.2020  -21.4537  -55.2068 H         1 UNK         0.0800 
    246 H246        2.5735  -19.8114  -53.6002 H         1 UNK         0.0800 
    247 H247        1.4072  -18.7030  -54.2858 H         1 UNK         0.0800 
@<TRIPOS>BOND
     1    1    2 1    
     2    1  127 1    
     3    1  128 1    
     4    1  129 1    
     5    2    3 2    
     6    2    4 am   BACKBONE|DICT|INTERRES
     7    4    5 1    
     8    4  130 1    
     9    5    6 1    
    10    5   65 1    
    11    5  131 1    
    12    6    7 1    
    13    6  132 1    
    14    6  133 1    
    15    7    8 1    
    16    8    9 1    
    17    8  134 1    
    18    8  135 1    
    19    9   10 ar   
    20    9   14 ar   
    21   10   11 ar   
    22   10  136 1    
    23   11   12 ar   
    24   11  126 1    
    25   12   13 ar   
    26   12  137 1    
    27   13   14 ar   
    28   13   15 1    
    29   14  138 1    
    30   15   16 1    
    31   15  139 1    
    32   15  140 1    
    33   16   17 1    
    34   17   18 1    
    35   17  141 1    
    36   17  142 1    
    37   18   19 1    
    38   18   67 1    
    39   18  143 1    
    40   19   20 am   BACKBONE|DICT|INTERRES
    41   19  144 1    
    42   20   21 2    
    43   20   22 1    
    44   22   23 1    
    45   22   24 1    
    46   22  145 1    
    47   23  146 1    
    48   23  147 1    
    49   23  148 1    
    50   24   25 am   BACKBONE|DICT|INTERRES
    51   24  149 1    
    52   25   26 2    
    53   25   27 1    
    54   27   28 1    
    55   27   29 1    
    56   27  150 1    
    57   28  151 1    
    58   28  152 1    
    59   28  153 1    
    60   29   30 am   BACKBONE|DICT|INTERRES
    61   29  154 1    
    62   30   31 2    
    63   30   32 1    
    64   32   33 1    
    65   32   34 1    
    66   32  155 1    
    67   33  156 1    
    68   33  157 1    
    69   33  158 1    
    70   34   35 am   BACKBONE|DICT|INTERRES
    71   34  159 1    
    72   35   36 2    
    73   35   37 1    
    74   37   38 1    
    75   37   39 1    
    76   37  160 1    
    77   38  161 1    
    78   38  162 1    
    79   38  163 1    
    80   39   40 am   BACKBONE|DICT|INTERRES
    81   39  164 1    
    82   40   41 2    
    83   40   42 1    
    84   42   43 1    
    85   42   44 1    
    86   42  165 1    
    87   43  166 1    
    88   43  167 1    
    89   43  168 1    
    90   44   45 am   BACKBONE|DICT|INTERRES
    91   44  169 1    
    92   45   46 2    
    93   45   47 1    
    94   47   48 1    
    95   47   49 1    
    96   47  170 1    
    97   48  171 1    
    98   48  172 1    
    99   48  173 1    
   100   49   50 am   BACKBONE|DICT|INTERRES
   101   49  174 1    
   102   50   51 2    
   103   50   52 1    
   104   52   53 1    
   105   52   54 1    
   106   52  175 1    
   107   53  176 1    
   108   53  177 1    
   109   53  178 1    
   110   54   55 am   BACKBONE|DICT|INTERRES
   111   54  179 1    
   112   55   56 2    
   113   55   57 1    
   114   57   58 1    
   115   57   59 1    
   116   57  180 1    
   117   58  181 1    
   118   58  182 1    
   119   58  183 1    
   120   59   60 am   BACKBONE|DICT|INTERRES
   121   59  184 1    
   122   60   61 2    
   123   60   62 1    
   124   62   63 1    
   125   62   64 1    
   126   62  185 1    
   127   63  186 1    
   128   63  187 1    
   129   63  188 1    
   130   64   65 am   BACKBONE|DICT|INTERRES
   131   64  189 1    
   132   65   66 2    
   133   67   68 2    
   134   67   69 am   BACKBONE|DICT|INTERRES
   135   69   70 1    
   136   69  190 1    
   137   70   71 1    
   138   70   72 1    
   139   70  191 1    
   140   71  192 1    
   141   71  193 1    
   142   71  194 1    
   143   72   73 2    
   144   72   74 am   BACKBONE|DICT|INTERRES
   145   74   75 1    
   146   74  195 1    
   147   75   76 1    
   148   75   77 1    
   149   75  196 1    
   150   76  197 1    
   151   76  198 1    
   152   76  199 1    
   153   77   78 2    
   154   77   79 am   BACKBONE|DICT|INTERRES
   155   79   80 1    
   156   79  200 1    
   157   80   81 1    
   158   80   82 1    
   159   80  201 1    
   160   81  202 1    
   161   81  203 1    
   162   81  204 1    
   163   82   83 2    
   164   82   84 am   BACKBONE|DICT|INTERRES
   165   84   85 1    
   166   84  205 1    
   167   85   86 1    
   168   85   87 1    
   169   85  206 1    
   170   86  207 1    
   171   86  208 1    
   172   86  209 1    
   173   87   88 2    
   174   87   89 am   BACKBONE|DICT|INTERRES
   175   89   90 1    
   176   89  210 1    
   177   90   91 1    
   178   90   92 1    
   179   90  211 1    
   180   91  212 1    
   181   91  213 1    
   182   91  214 1    
   183   92   93 2    
   184   92   94 am   BACKBONE|DICT|INTERRES
   185   94   95 1    
   186   94  215 1    
   187   95   96 1    
   188   95   97 1    
   189   95  216 1    
   190   96  217 1    
   191   96  218 1    
   192   96  219 1    
   193   97   98 2    
   194   97   99 am   BACKBONE|DICT|INTERRES
   195   99  100 1    
   196   99  220 1    
   197  100  101 1    
   198  100  102 1    
   199  100  221 1    
   200  101  222 1    
   201  101  223 1    
   202  101  224 1    
   203  102  103 2    
   204  102  104 am   BACKBONE|DICT|INTERRES
   205  104  105 1    
   206  104  225 1    
   207  105  106 1    
   208  105  107 1    
   209  105  226 1    
   210  106  227 1    
   211  106  228 1    
   212  106  229 1    
   213  107  108 2    
   214  107  109 am   BACKBONE|DICT|INTERRES
   215  109  110 1    
   216  109  230 1    
   217  110  111 1    
   218  110  112 1    
   219  110  231 1    
   220  111  232 1    
   221  111  233 1    
   222  111  234 1    
   223  112  113 2    
   224  112  114 am   BACKBONE|DICT|INTERRES
   225  114  115 1    
   226  114  235 1    
   227  115  116 1    
   228  115  117 1    
   229  115  236 1    
   230  116  237 1    
   231  116  238 1    
   232  116  239 1    
   233  117  118 2    
   234  117  119 am   BACKBONE|DICT|INTERRES
   235  119  120 1    
   236  119  240 1    
   237  120  121 1    
   238  120  124 1    
   239  120  241 1    
   240  121  122 am   BACKBONE|DICT|INTERRES
   241  121  123 2    
   242  122  242 1    
   243  122  243 1    
   244  124  125 1    
   245  124  244 1    
   246  124  245 1    
   247  125  126 1    
   248  126  246 1    
   249  126  247 1    
@<TRIPOS>SUBSTRUCTURE
     1 UNK         1 GROUP             0       ****    0 ROOT    
