@<TRIPOS>MOLECULE
3R540
247   249    1
SMALL
USER_CHARGES


@<TRIPOS>ATOM
      1 CA          4.0929  -15.7142  -45.6172 C.3       0 UNK        -0.1800 
      2 C           3.2430  -15.4438  -46.8509 C.2       0 UNK         0.5000 
      3 O           2.0651  -15.8009  -46.8791 O.2       0 UNK        -0.5000 
      4 N           3.8435  -14.8181  -47.8705 N.am      1 UNK        -0.5000 
      5 CA          3.2235  -14.4774  -49.1535 C.3       1 UNK         0.1400 
      6 C6          4.2916  -14.0130  -50.1764 C.3       23 UNK        -0.0398 
      7 S7          3.7779  -14.2485  -51.9118 S.3       23 UNK        -0.2404 
      8 C8          4.6152  -15.8100  -52.3427 C.3       23 UNK        -0.0205 
      9 C9          3.8111  -17.0178  -51.8864 C.ar      23 UNK        -0.0193 
     10 C10         2.8917  -17.6095  -52.7538 C.ar      23 UNK        -0.1150 
     11 C11         2.1247  -18.7005  -52.3400 C.ar      23 UNK        -0.0193 
     12 C12         2.2721  -19.1929  -51.0388 C.ar      23 UNK        -0.1150 
     13 C13         3.2012  -18.6188  -50.1584 C.ar      23 UNK        -0.0193 
     14 C14         3.9745  -17.5401  -50.6007 C.ar      23 UNK        -0.1150 
     15 C15         3.3832  -19.1005  -48.7177 C.3       23 UNK        -0.0205 
     16 S16         3.0567  -20.8757  -48.4460 S.3       23 UNK        -0.2404 
     17 C17         1.3462  -20.8276  -47.8123 C.3       23 UNK        -0.0398 
     18 CA          0.8822  -22.2049  -47.2830 C.3       11 UNK         0.1400 
     19 N           1.7262  -22.6968  -46.1902 N.am      11 UNK        -0.5000 
     20 C           1.7611  -23.9719  -45.7806 C.2       10 UNK         0.5000 
     21 O           1.0923  -24.8673  -46.2934 O.2       10 UNK        -0.5000 
     22 CA          2.6472  -24.2967  -44.5631 C.3       10 UNK         0.1400 
     23 CB          4.0740  -24.6413  -45.0140 C.3       10 UNK        -0.1800 
     24 N           2.7008  -23.2155  -43.5783 N.am      10 UNK        -0.5000 
     25 C           1.6426  -22.7048  -42.9346 C.2       9 UNK         0.5000 
     26 O           0.4941  -23.1238  -43.0799 O.2       9 UNK        -0.5000 
     27 CA          1.8952  -21.5005  -42.0079 C.3       9 UNK         0.1400 
     28 CB          3.3438  -21.4180  -41.4803 C.3       9 UNK        -0.1800 
     29 N           1.5196  -20.2235  -42.6204 N.am      9 UNK        -0.5000 
     30 C           1.9259  -19.7175  -43.7961 C.2       8 UNK         0.5000 
     31 O           2.5809  -20.3419  -44.6312 O.2       8 UNK        -0.5000 
     32 CA          1.5782  -18.2419  -44.0683 C.3       8 UNK         0.1400 
     33 CB          0.1782  -18.0968  -44.6799 C.3       8 UNK        -0.1800 
     34 N           1.6649  -17.4100  -42.8678 N.am      8 UNK        -0.5000 
     35 C           2.7867  -17.1586  -42.1777 C.2       7 UNK         0.5000 
     36 O           3.9039  -17.5523  -42.5132 O.2       7 UNK        -0.5000 
     37 CA          2.6296  -16.3432  -40.8839 C.3       7 UNK         0.1400 
     38 CB          2.5785  -14.8385  -41.1864 C.3       7 UNK        -0.1800 
     39 N           1.4207  -16.7276  -40.1566 N.am      7 UNK        -0.5000 
     40 C           1.3612  -17.7054  -39.2434 C.2       6 UNK         0.5000 
     41 O           2.3374  -18.3616  -38.8792 O.2       6 UNK        -0.5000 
     42 CA         -0.0205  -18.0049  -38.6271 C.3       6 UNK         0.1400 
     43 CB         -0.2137  -17.2039  -37.3305 C.3       6 UNK        -0.1800 
     44 N          -1.1398  -17.7255  -39.5294 N.am      6 UNK        -0.5000 
     45 C          -1.4113  -18.4245  -40.6393 C.2       5 UNK         0.5000 
     46 O          -0.7442  -19.3849  -41.0228 O.2       5 UNK        -0.5000 
     47 CA         -2.6006  -17.9396  -41.4915 C.3       5 UNK         0.1400 
     48 CB         -3.9104  -18.5645  -40.9895 C.3       5 UNK        -0.1800 
     49 N          -2.7563  -16.4820  -41.5778 N.am      5 UNK        -0.5000 
     50 C          -1.8028  -15.6200  -41.9563 C.2       4 UNK         0.5000 
     51 O          -0.6242  -15.9382  -42.1296 O.2       4 UNK        -0.5000 
     52 CA         -2.2285  -14.1505  -42.1391 C.3       4 UNK         0.1400 
     53 CB         -2.2350  -13.4285  -40.7829 C.3       4 UNK        -0.1800 
     54 N          -1.3272  -13.4362  -43.0464 N.am      4 UNK        -0.5000 
     55 C          -1.1676  -13.7166  -44.3470 C.2       3 UNK         0.5000 
     56 O          -1.8785  -14.5126  -44.9674 O.2       3 UNK        -0.5000 
     57 CA          0.0039  -12.9997  -45.0458 C.3       3 UNK         0.1400 
     58 CB          1.3460  -13.3933  -44.4078 C.3       3 UNK        -0.1800 
     59 N           0.0626  -13.3270  -46.4684 N.am      3 UNK        -0.5000 
     60 C          -0.5980  -12.6733  -47.4325 C.2       2 UNK         0.5000 
     61 O          -1.3253  -11.7016  -47.2156 O.2       2 UNK        -0.5000 
     62 CA         -0.4157  -13.1908  -48.8786 C.3       2 UNK         0.1400 
     63 CB         -0.5911  -12.0817  -49.9373 C.3       2 UNK        -0.1800 
     64 N           0.8412  -13.9200  -49.0933 N.am      2 UNK        -0.5000 
     65 C           2.0907  -13.4479  -48.9638 C.2       1 UNK         0.5000 
     66 O           2.3691  -12.2843  -48.6663 O.2       1 UNK        -0.5000 
     67 C          -0.6051  -22.1712  -46.8728 C.2       11 UNK         0.5000 
     68 O          -1.4695  -22.4338  -47.7093 O.2       11 UNK        -0.5000 
     69 N          -0.8846  -21.8954  -45.5897 N.am      12 UNK        -0.5000 
     70 CA         -2.2322  -21.9542  -45.0221 C.3       12 UNK         0.1400 
     71 CB         -2.2812  -21.1929  -43.6901 C.3       12 UNK        -0.1800 
     72 C          -2.7118  -23.4054  -44.8554 C.2       12 UNK         0.5000 
     73 O          -3.8616  -23.7001  -45.1792 O.2       12 UNK        -0.5000 
     74 N          -1.8100  -24.2951  -44.4151 N.am      13 UNK        -0.5000 
     75 CA         -2.0411  -25.7387  -44.3086 C.3       13 UNK         0.1400 
     76 CB         -0.8504  -26.3964  -43.5956 C.3       13 UNK        -0.1800 
     77 C          -2.3004  -26.4062  -45.6744 C.2       13 UNK         0.5000 
     78 O          -3.1583  -27.2842  -45.7703 O.2       13 UNK        -0.5000 
     79 N          -1.5883  -25.9451  -46.7122 N.am      14 UNK        -0.5000 
     80 CA         -1.7816  -26.3345  -48.1115 C.3       14 UNK         0.1400 
     81 CB         -0.5312  -25.9376  -48.9125 C.3       14 UNK        -0.1800 
     82 C          -3.0428  -25.7231  -48.7587 C.2       14 UNK         0.5000 
     83 O          -3.4080  -26.1405  -49.8583 O.2       14 UNK        -0.5000 
     84 N          -3.6721  -24.7506  -48.0813 N.am      15 UNK        -0.5000 
     85 CA         -4.8459  -23.9804  -48.4996 C.3       15 UNK         0.1400 
     86 CB         -6.0927  -24.8835  -48.6013 C.3       15 UNK        -0.1800 
     87 C          -4.5876  -23.1493  -49.7724 C.2       15 UNK         0.5000 
     88 O          -5.4352  -23.0977  -50.6665 O.2       15 UNK        -0.5000 
     89 N          -3.4207  -22.4921  -49.8270 N.am      16 UNK        -0.5000 
     90 CA         -2.9747  -21.6262  -50.9200 C.3       16 UNK         0.1400 
     91 CB         -1.4429  -21.5001  -50.8539 C.3       16 UNK        -0.1800 
     92 C          -3.6814  -20.2523  -50.9049 C.2       16 UNK         0.5000 
     93 O          -3.0273  -19.2116  -50.8280 O.2       16 UNK        -0.5000 
     94 N          -5.0159  -20.2747  -50.9663 N.am      17 UNK        -0.5000 
     95 CA         -5.8767  -19.1009  -51.0749 C.3       17 UNK         0.1400 
     96 CB         -7.3081  -19.5167  -50.7001 C.3       17 UNK        -0.1800 
     97 C          -5.8531  -18.5219  -52.4994 C.2       17 UNK         0.5000 
     98 O          -5.5701  -19.2479  -53.4561 O.2       17 UNK        -0.5000 
     99 N          -6.2314  -17.2441  -52.6335 N.am      18 UNK        -0.5000 
    100 CA        -6.3949  -16.5633  -53.9236 C.3       18 UNK         0.1400 
    101 CB        -6.6777  -15.0732  -53.6836 C.3       18 UNK        -0.1800 
    102 C         -7.4997  -17.1944  -54.7945 C.2       18 UNK         0.5000 
    103 O         -7.3422  -17.2838  -56.0118 O.2       18 UNK        -0.5000 
    104 N         -8.5631  -17.6897  -54.1441 N.am      19 UNK        -0.5000 
    105 CA        -9.6532  -18.4514  -54.7614 C.3       19 UNK         0.1400 
    106 CB       -10.7920  -18.6000  -53.7410 C.3       19 UNK        -0.1800 
    107 C         -9.2161  -19.8365  -55.2840 C.2       19 UNK         0.5000 
    108 O         -9.8664  -20.3790  -56.1775 O.2       19 UNK        -0.5000 
    109 N         -8.1159  -20.3691  -54.7356 N.am      20 UNK        -0.5000 
    110 CA        -7.4645  -21.6095  -55.1571 C.3       20 UNK         0.1400 
    111 CB        -7.0196  -22.3780  -53.8994 C.3       20 UNK        -0.1800 
    112 C         -6.2678  -21.3366  -56.0932 C.2       20 UNK         0.5000 
    113 O         -5.4896  -22.2549  -56.3564 O.2       20 UNK        -0.5000 
    114 N         -6.1089  -20.0813  -56.5469 N.am      21 UNK        -0.5000 
    115 CA        -5.0286  -19.5662  -57.3973 C.3       21 UNK         0.1400 
    116 CB        -5.1452  -20.1444  -58.8228 C.3       21 UNK        -0.1800 
    117 C         -3.6227  -19.7573  -56.7861 C.2       21 UNK         0.5000 
    118 O         -2.6489  -19.9330  -57.5206 O.2       21 UNK        -0.5000 
    119 N         -3.5467  -19.7347  -55.4484 N.am      22 UNK        -0.5000 
    120 CA        -2.3574  -20.0496  -54.6434 C.3       22 UNK         0.1400 
    121 C         -1.9407  -21.5548  -54.6757 C.2       22 UNK         0.5000 
    122 N         -2.7870  -22.4746  -55.1263 N.am      22 UNK        -0.7600 
    123 O         -0.8412  -21.9093  -54.2639 O.2       22 UNK        -0.5000 
    124 C124       -1.1754  -19.0671  -54.9027 C.3       23 UNK        -0.0398 
    125 S125       -0.4224  -18.4240  -53.3684 S.3       23 UNK        -0.2404 
    126 C126        1.1470  -19.3412  -53.3122 C.3       23 UNK        -0.0205 
    127 H127        3.5543  -15.4380  -44.7119 H         1 UNK         0.0600 
    128 H128        5.0257  -15.1505  -45.6378 H         1 UNK         0.0600 
    129 H129        4.3380  -16.7744  -45.5565 H         1 UNK         0.0600 
    130 H130        4.8015  -14.5188  -47.7592 H         1 UNK         0.3000 
    131 H131        2.7729  -15.3971  -49.5286 H         1 UNK         0.0600 
    132 H132        5.2209  -14.5626  -50.0237 H         1 UNK         0.0800 
    133 H133        4.5558  -12.9645  -50.0272 H         1 UNK         0.0800 
    134 H134        4.7457  -15.8447  -53.4255 H         1 UNK         0.0800 
    135 H135        5.6213  -15.8368  -51.9219 H         1 UNK         0.0800 
    136 H136        2.7646  -17.2151  -53.7524 H         1 UNK         0.1150 
    137 H137        1.6612  -20.0252  -50.7227 H         1 UNK         0.1150 
    138 H138        4.6892  -17.0842  -49.9300 H         1 UNK         0.1150 
    139 H139        4.4112  -18.9137  -48.4035 H         1 UNK         0.0800 
    140 H140        2.7550  -18.4967  -48.0612 H         1 UNK         0.0800 
    141 H141        0.6945  -20.4790  -48.6133 H         1 UNK         0.0800 
    142 H142        1.2890  -20.0790  -47.0223 H         1 UNK         0.0800 
    143 H143        0.9629  -22.9145  -48.1094 H         1 UNK         0.0600 
    144 H144        2.2782  -22.0005  -45.6974 H         1 UNK         0.3000 
    145 H145        2.2236  -25.1729  -44.0691 H         1 UNK         0.0600 
    146 H146        4.6903  -24.9537  -44.1709 H         1 UNK         0.0600 
    147 H147        4.5615  -23.7898  -45.4909 H         1 UNK         0.0600 
    148 H148        4.0684  -25.4617  -45.7330 H         1 UNK         0.0600 
    149 H149        3.6007  -22.7818  -43.4324 H         1 UNK         0.3000 
    150 H150        1.2378  -21.6345  -41.1476 H         1 UNK         0.0600 
    151 H151        3.6488  -22.3555  -41.0137 H         1 UNK         0.0600 
    152 H152        3.4327  -20.6386  -40.7229 H         1 UNK         0.0600 
    153 H153        4.0598  -21.1865  -42.2696 H         1 UNK         0.0600 
    154 H154        0.8923  -19.6600  -42.0539 H         1 UNK         0.3000 
    155 H155        2.3015  -17.8671  -44.7934 H         1 UNK         0.0600 
    156 H156        0.0454  -18.7502  -45.5417 H         1 UNK         0.0600 
    157 H157        0.0053  -17.0741  -45.0170 H         1 UNK         0.0600 
    158 H158       -0.5968  -18.3402  -43.9561 H         1 UNK         0.0600 
    159 H159        0.7970  -16.9865  -42.5470 H         1 UNK         0.3000 
    160 H160        3.5088  -16.5297  -40.2633 H         1 UNK         0.0600 
    161 H161        1.6706  -14.5710  -41.7252 H         1 UNK         0.0600 
    162 H162        3.4297  -14.5282  -41.7940 H         1 UNK         0.0600 
    163 H163        2.6027  -14.2536  -40.2670 H         1 UNK         0.0600 
    164 H164        0.5590  -16.2892  -40.4580 H         1 UNK         0.3000 
    165 H165       -0.0447  -19.0679  -38.3778 H         1 UNK         0.0600 
    166 H166       -1.1512  -17.4667  -36.8400 H         1 UNK         0.0600 
    167 H167        0.5904  -17.4074  -36.6220 H         1 UNK         0.0600 
    168 H168       -0.2215  -16.1295  -37.5185 H         1 UNK         0.0600 
    169 H169       -1.7310  -16.9411  -39.2972 H         1 UNK         0.3000 
    170 H170       -2.4333  -18.2940  -42.5082 H         1 UNK         0.0600 
    171 H171       -4.1711  -18.2066  -39.9928 H         1 UNK         0.0600 
    172 H172       -3.8306  -19.6514  -40.9384 H         1 UNK         0.0600 
    173 H173       -4.7401  -18.3337  -41.6579 H         1 UNK         0.0600 
    174 H174       -3.6904  -16.1295  -41.4266 H         1 UNK         0.3000 
    175 H175       -3.2343  -14.1264  -42.5633 H         1 UNK         0.0600 
    176 H176       -1.2461  -13.4293  -40.3219 H         1 UNK         0.0600 
    177 H177       -2.5548  -12.3917  -40.8894 H         1 UNK         0.0600 
    178 H178       -2.9225  -13.9077  -40.0848 H         1 UNK         0.0600 
    179 H179       -0.6890  -12.7870  -42.6114 H         1 UNK         0.3000 
    180 H180       -0.1316  -11.9226  -44.9278 H         1 UNK         0.0600 
    181 H181        2.1895  -13.0259  -44.9929 H         1 UNK         0.0600 
    182 H182        1.4411  -14.4763  -44.3182 H         1 UNK         0.0600 
    183 H183        1.4434  -12.9672  -43.4097 H         1 UNK         0.0600 
    184 H184        0.6042  -14.1460  -46.7184 H         1 UNK         0.3000 
    185 H185       -1.2137  -13.9182  -49.0337 H         1 UNK         0.0600 
    186 H186       -0.4650  -12.4755  -50.9458 H         1 UNK         0.0600 
    187 H187       -1.5885  -11.6437  -49.8849 H         1 UNK         0.0600 
    188 H188        0.1274  -11.2731  -49.8004 H         1 UNK         0.0600 
    189 H189        0.7320  -14.9052  -49.2917 H         1 UNK         0.3000 
    190 H190       -0.1226  -21.7732  -44.9381 H         1 UNK         0.3000 
    191 H191       -2.9169  -21.4562  -45.7124 H         1 UNK         0.0600 
    192 H192       -2.0004  -20.1523  -43.8329 H         1 UNK         0.0600 
    193 H193       -1.6139  -21.6197  -42.9420 H         1 UNK         0.0600 
    194 H194       -3.2885  -21.2022  -43.2720 H         1 UNK         0.0600 
    195 H195       -0.9030  -23.9524  -44.1102 H         1 UNK         0.3000 
    196 H196       -2.9302  -25.8866  -43.6924 H         1 UNK         0.0600 
    197 H197       -0.6767  -25.9461  -42.6180 H         1 UNK         0.0600 
    198 H198        0.0675  -26.3030  -44.1754 H         1 UNK         0.0600 
    199 H199       -1.0307  -27.4603  -43.4379 H         1 UNK         0.0600 
    200 H200       -0.8347  -25.2897  -46.5299 H         1 UNK         0.3000 
    201 H201       -1.8853  -27.4205  -48.1560 H         1 UNK         0.0600 
    202 H202        0.3644  -26.4079  -48.5062 H         1 UNK         0.0600 
    203 H203       -0.3775  -24.8581  -48.9048 H         1 UNK         0.0600 
    204 H204       -0.6156  -26.2491  -49.9543 H         1 UNK         0.0600 
    205 H205       -3.2896  -24.4868  -47.1827 H         1 UNK         0.3000 
    206 H206       -5.0323  -23.2581  -47.7038 H         1 UNK         0.0600 
    207 H207       -6.0101  -25.6018  -49.4174 H         1 UNK         0.0600 
    208 H208       -6.2507  -25.4406  -47.6778 H         1 UNK         0.0600 
    209 H209       -6.9901  -24.2900  -48.7794 H         1 UNK         0.0600 
    210 H210       -2.7838  -22.5641  -49.0361 H         1 UNK         0.3000 
    211 H211       -3.2266  -22.1083  -51.8668 H         1 UNK         0.0600 
    212 H212       -1.1257  -20.9930  -49.9442 H         1 UNK         0.0600 
    213 H213       -1.0614  -20.9225  -51.6948 H         1 UNK         0.0600 
    214 H214       -0.9604  -22.4772  -50.8840 H         1 UNK         0.0600 
    215 H215       -5.4645  -21.1835  -51.0286 H         1 UNK         0.3000 
    216 H216       -5.5295  -18.3380  -50.3750 H         1 UNK         0.0600 
    217 H217       -7.9888  -18.6650  -50.7298 H         1 UNK         0.0600 
    218 H218       -7.3469  -19.9247  -49.6898 H         1 UNK         0.0600 
    219 H219       -7.6993  -20.2748  -51.3804 H         1 UNK         0.0600 
    220 H220       -6.4540  -16.7059  -51.8083 H         1 UNK         0.3000 
    221 H221       -5.4536  -16.6499  -54.4708 H         1 UNK         0.0600 
    222 H222       -7.5969  -14.9225  -53.1161 H         1 UNK         0.0600 
    223 H223       -5.8626  -14.6006  -53.1352 H         1 UNK         0.0600 
    224 H224       -6.7841  -14.5391  -54.6289 H         1 UNK         0.0600 
    225 H225       -8.6104  -17.5666  -53.1435 H         1 UNK         0.3000 
    226 H226      -10.0266  -17.8807  -55.6143 H         1 UNK         0.0600 
    227 H227      -11.1615  -17.6268  -53.4170 H         1 UNK         0.0600 
    228 H228      -11.6365  -19.1388  -54.1730 H         1 UNK         0.0600 
    229 H229      -10.4699  -19.1499  -52.8557 H         1 UNK         0.0600 
    230 H230       -7.6107  -19.8314  -54.0442 H         1 UNK         0.3000 
    231 H231       -8.1696  -22.2364  -55.7062 H         1 UNK         0.0600 
    232 H232       -6.6101  -23.3548  -54.1593 H         1 UNK         0.0600 
    233 H233       -7.8574  -22.5502  -53.2236 H         1 UNK         0.0600 
    234 H234       -6.2494  -21.8405  -53.3456 H         1 UNK         0.0600 
    235 H235       -6.7831  -19.3853  -56.2539 H         1 UNK         0.3000 
    236 H236       -5.1824  -18.4884  -57.4648 H         1 UNK         0.0600 
    237 H237       -4.9428  -21.2157  -58.8424 H         1 UNK         0.0600 
    238 H238       -6.1423  -19.9836  -59.2325 H         1 UNK         0.0600 
    239 H239       -4.4373  -19.6650  -59.4999 H         1 UNK         0.0600 
    240 H240       -4.3979  -19.5867  -54.9117 H         1 UNK         0.3000 
    241 H241       -2.7011  -19.8917  -53.6225 H         1 UNK         0.0600 
    242 H242       -2.4973  -23.4392  -55.1337 H         1 UNK         0.3800 
    243 H243       -3.6952  -22.2276  -55.5054 H         1 UNK         0.3800 
    244 H244       -0.4187  -19.5105  -55.5519 H         1 UNK         0.0800 
    245 H245       -1.5279  -18.1881  -55.4437 H         1 UNK         0.0800 
    246 H246        1.5956  -19.3689  -54.3063 H         1 UNK         0.0800 
    247 H247        0.9562  -20.3774  -53.0313 H         1 UNK         0.0800 
@<TRIPOS>BOND
     1    1    2 1    
     2    1  127 1    
     3    1  128 1    
     4    1  129 1    
     5    2    3 2    
     6    2    4 am   BACKBONE|DICT|INTERRES
     7    4    5 1    
     8    4  130 1    
     9    5    6 1    
    10    5   65 1    
    11    5  131 1    
    12    6    7 1    
    13    6  132 1    
    14    6  133 1    
    15    7    8 1    
    16    8    9 1    
    17    8  134 1    
    18    8  135 1    
    19    9   10 ar   
    20    9   14 ar   
    21   10   11 ar   
    22   10  136 1    
    23   11   12 ar   
    24   11  126 1    
    25   12   13 ar   
    26   12  137 1    
    27   13   14 ar   
    28   13   15 1    
    29   14  138 1    
    30   15   16 1    
    31   15  139 1    
    32   15  140 1    
    33   16   17 1    
    34   17   18 1    
    35   17  141 1    
    36   17  142 1    
    37   18   19 1    
    38   18   67 1    
    39   18  143 1    
    40   19   20 am   BACKBONE|DICT|INTERRES
    41   19  144 1    
    42   20   21 2    
    43   20   22 1    
    44   22   23 1    
    45   22   24 1    
    46   22  145 1    
    47   23  146 1    
    48   23  147 1    
    49   23  148 1    
    50   24   25 am   BACKBONE|DICT|INTERRES
    51   24  149 1    
    52   25   26 2    
    53   25   27 1    
    54   27   28 1    
    55   27   29 1    
    56   27  150 1    
    57   28  151 1    
    58   28  152 1    
    59   28  153 1    
    60   29   30 am   BACKBONE|DICT|INTERRES
    61   29  154 1    
    62   30   31 2    
    63   30   32 1    
    64   32   33 1    
    65   32   34 1    
    66   32  155 1    
    67   33  156 1    
    68   33  157 1    
    69   33  158 1    
    70   34   35 am   BACKBONE|DICT|INTERRES
    71   34  159 1    
    72   35   36 2    
    73   35   37 1    
    74   37   38 1    
    75   37   39 1    
    76   37  160 1    
    77   38  161 1    
    78   38  162 1    
    79   38  163 1    
    80   39   40 am   BACKBONE|DICT|INTERRES
    81   39  164 1    
    82   40   41 2    
    83   40   42 1    
    84   42   43 1    
    85   42   44 1    
    86   42  165 1    
    87   43  166 1    
    88   43  167 1    
    89   43  168 1    
    90   44   45 am   BACKBONE|DICT|INTERRES
    91   44  169 1    
    92   45   46 2    
    93   45   47 1    
    94   47   48 1    
    95   47   49 1    
    96   47  170 1    
    97   48  171 1    
    98   48  172 1    
    99   48  173 1    
   100   49   50 am   BACKBONE|DICT|INTERRES
   101   49  174 1    
   102   50   51 2    
   103   50   52 1    
   104   52   53 1    
   105   52   54 1    
   106   52  175 1    
   107   53  176 1    
   108   53  177 1    
   109   53  178 1    
   110   54   55 am   BACKBONE|DICT|INTERRES
   111   54  179 1    
   112   55   56 2    
   113   55   57 1    
   114   57   58 1    
   115   57   59 1    
   116   57  180 1    
   117   58  181 1    
   118   58  182 1    
   119   58  183 1    
   120   59   60 am   BACKBONE|DICT|INTERRES
   121   59  184 1    
   122   60   61 2    
   123   60   62 1    
   124   62   63 1    
   125   62   64 1    
   126   62  185 1    
   127   63  186 1    
   128   63  187 1    
   129   63  188 1    
   130   64   65 am   BACKBONE|DICT|INTERRES
   131   64  189 1    
   132   65   66 2    
   133   67   68 2    
   134   67   69 am   BACKBONE|DICT|INTERRES
   135   69   70 1    
   136   69  190 1    
   137   70   71 1    
   138   70   72 1    
   139   70  191 1    
   140   71  192 1    
   141   71  193 1    
   142   71  194 1    
   143   72   73 2    
   144   72   74 am   BACKBONE|DICT|INTERRES
   145   74   75 1    
   146   74  195 1    
   147   75   76 1    
   148   75   77 1    
   149   75  196 1    
   150   76  197 1    
   151   76  198 1    
   152   76  199 1    
   153   77   78 2    
   154   77   79 am   BACKBONE|DICT|INTERRES
   155   79   80 1    
   156   79  200 1    
   157   80   81 1    
   158   80   82 1    
   159   80  201 1    
   160   81  202 1    
   161   81  203 1    
   162   81  204 1    
   163   82   83 2    
   164   82   84 am   BACKBONE|DICT|INTERRES
   165   84   85 1    
   166   84  205 1    
   167   85   86 1    
   168   85   87 1    
   169   85  206 1    
   170   86  207 1    
   171   86  208 1    
   172   86  209 1    
   173   87   88 2    
   174   87   89 am   BACKBONE|DICT|INTERRES
   175   89   90 1    
   176   89  210 1    
   177   90   91 1    
   178   90   92 1    
   179   90  211 1    
   180   91  212 1    
   181   91  213 1    
   182   91  214 1    
   183   92   93 2    
   184   92   94 am   BACKBONE|DICT|INTERRES
   185   94   95 1    
   186   94  215 1    
   187   95   96 1    
   188   95   97 1    
   189   95  216 1    
   190   96  217 1    
   191   96  218 1    
   192   96  219 1    
   193   97   98 2    
   194   97   99 am   BACKBONE|DICT|INTERRES
   195   99  100 1    
   196   99  220 1    
   197  100  101 1    
   198  100  102 1    
   199  100  221 1    
   200  101  222 1    
   201  101  223 1    
   202  101  224 1    
   203  102  103 2    
   204  102  104 am   BACKBONE|DICT|INTERRES
   205  104  105 1    
   206  104  225 1    
   207  105  106 1    
   208  105  107 1    
   209  105  226 1    
   210  106  227 1    
   211  106  228 1    
   212  106  229 1    
   213  107  108 2    
   214  107  109 am   BACKBONE|DICT|INTERRES
   215  109  110 1    
   216  109  230 1    
   217  110  111 1    
   218  110  112 1    
   219  110  231 1    
   220  111  232 1    
   221  111  233 1    
   222  111  234 1    
   223  112  113 2    
   224  112  114 am   BACKBONE|DICT|INTERRES
   225  114  115 1    
   226  114  235 1    
   227  115  116 1    
   228  115  117 1    
   229  115  236 1    
   230  116  237 1    
   231  116  238 1    
   232  116  239 1    
   233  117  118 2    
   234  117  119 am   BACKBONE|DICT|INTERRES
   235  119  120 1    
   236  119  240 1    
   237  120  121 1    
   238  120  124 1    
   239  120  241 1    
   240  121  122 am   BACKBONE|DICT|INTERRES
   241  121  123 2    
   242  122  242 1    
   243  122  243 1    
   244  124  125 1    
   245  124  244 1    
   246  124  245 1    
   247  125  126 1    
   248  126  246 1    
   249  126  247 1    
@<TRIPOS>SUBSTRUCTURE
     1 UNK         1 GROUP             0       ****    0 ROOT    
