@<TRIPOS>MOLECULE
3R540
247   249    1
SMALL
USER_CHARGES


@<TRIPOS>ATOM
      1 CA         -1.2922  -19.2305  -51.0354 C.3       0 UNK        -0.1800 
      2 C          -1.2419  -18.1111  -50.0055 C.2       0 UNK         0.5000 
      3 O          -0.7748  -18.3324  -48.8912 O.2       0 UNK        -0.5000 
      4 N          -1.7205  -16.9161  -50.3759 N.am      1 UNK        -0.5000 
      5 CA         -1.8057  -15.7183  -49.5300 C.3       1 UNK         0.1400 
      6 C6         -0.4187  -15.1624  -49.0874 C.3       23 UNK        -0.0398 
      7 S7          0.5765  -14.5813  -50.4990 S.3       23 UNK        -0.2404 
      8 C8          2.2560  -15.0867  -50.0047 C.3       23 UNK        -0.0205 
      9 C9          2.5615  -16.5329  -50.3690 C.ar      23 UNK        -0.0193 
     10 C10         2.5321  -16.9321  -51.7067 C.ar      23 UNK        -0.1150 
     11 C11         2.8391  -18.2454  -52.0708 C.ar      23 UNK        -0.0193 
     12 C12         3.2146  -19.1568  -51.0780 C.ar      23 UNK        -0.1150 
     13 C13         3.2743  -18.7667  -49.7345 C.ar      23 UNK        -0.0193 
     14 C14         2.9320  -17.4552  -49.3870 C.ar      23 UNK        -0.1150 
     15 C15         3.7785  -19.7280  -48.6620 C.3       23 UNK        -0.0205 
     16 S16         2.9466  -21.3494  -48.6647 S.3       23 UNK        -0.2404 
     17 C17         1.2178  -20.8796  -48.3429 C.3       23 UNK        -0.0398 
     18 CA          0.4631  -21.9593  -47.5327 C.3       11 UNK         0.1400 
     19 N           0.8507  -21.9987  -46.1174 N.am      11 UNK        -0.5000 
     20 C           0.4373  -22.9298  -45.2441 C.2       10 UNK         0.5000 
     21 O          -0.2653  -23.8929  -45.5521 O.2       10 UNK        -0.5000 
     22 CA          0.8190  -22.7266  -43.7664 C.3       10 UNK         0.1400 
     23 CB          2.2639  -23.1706  -43.4941 C.3       10 UNK        -0.1800 
     24 N           0.6248  -21.3462  -43.3224 N.am      10 UNK        -0.5000 
     25 C          -0.5669  -20.7330  -43.2660 C.2       9 UNK         0.5000 
     26 O          -1.6333  -21.2808  -43.5401 O.2       9 UNK        -0.5000 
     27 CA         -0.5657  -19.2448  -42.8800 C.3       9 UNK         0.1400 
     28 CB         -0.4254  -19.0865  -41.3568 C.3       9 UNK        -0.1800 
     29 N           0.4916  -18.4983  -43.5616 N.am      9 UNK        -0.5000 
     30 C           0.5932  -18.3548  -44.8909 C.2       8 UNK         0.5000 
     31 O          -0.2475  -18.7726  -45.6826 O.2       8 UNK        -0.5000 
     32 CA          1.8864  -17.7186  -45.4330 C.3       8 UNK         0.1400 
     33 CB          1.8051  -16.1884  -45.4971 C.3       8 UNK        -0.1800 
     34 N           3.0608  -18.1057  -44.6549 N.am      8 UNK        -0.5000 
     35 C           3.5758  -19.3417  -44.6336 C.2       7 UNK         0.5000 
     36 O           3.1197  -20.2821  -45.2820 O.2       7 UNK        -0.5000 
     37 CA          4.7764  -19.5646  -43.6985 C.3       7 UNK         0.1400 
     38 CB          6.0749  -19.0738  -44.3562 C.3       7 UNK        -0.1800 
     39 N           4.5975  -18.8975  -42.4072 N.am      7 UNK        -0.5000 
     40 C           3.6895  -19.2702  -41.4947 C.2       6 UNK         0.5000 
     41 O           2.9417  -20.2385  -41.6342 O.2       6 UNK        -0.5000 
     42 CA          3.5689  -18.3885  -40.2361 C.3       6 UNK         0.1400 
     43 CB          4.6092  -18.8033  -39.1850 C.3       6 UNK        -0.1800 
     44 N           3.6901  -16.9492  -40.5011 N.am      6 UNK        -0.5000 
     45 C           2.8582  -16.2517  -41.2848 C.2       5 UNK         0.5000 
     46 O           1.9401  -16.7647  -41.9286 O.2       5 UNK        -0.5000 
     47 CA          3.0929  -14.7391  -41.3934 C.3       5 UNK         0.1400 
     48 CB          4.2674  -14.4282  -42.3368 C.3       5 UNK        -0.1800 
     49 N           1.8709  -14.1457  -41.9214 N.am      5 UNK        -0.5000 
     50 C           1.4168  -12.9062  -41.7122 C.2       4 UNK         0.5000 
     51 O           2.0266  -12.0552  -41.0635 O.2       4 UNK        -0.5000 
     52 CA          0.0469  -12.5581  -42.3319 C.3       4 UNK         0.1400 
     53 CB          0.2340  -11.7436  -43.6213 C.3       4 UNK        -0.1800 
     54 N          -0.7456  -13.7489  -42.6461 N.am      4 UNK        -0.5000 
     55 C          -1.4559  -14.4687  -41.7715 C.2       3 UNK         0.5000 
     56 O          -1.6120  -14.1352  -40.5958 O.2       3 UNK        -0.5000 
     57 CA         -2.0676  -15.7901  -42.2979 C.3       3 UNK         0.1400 
     58 CB         -2.9504  -16.4968  -41.2533 C.3       3 UNK        -0.1800 
     59 N          -2.8278  -15.6740  -43.5482 N.am      3 UNK        -0.5000 
     60 C          -2.3116  -15.4527  -44.7625 C.2       2 UNK         0.5000 
     61 O          -1.1168  -15.2169  -44.9582 O.2       2 UNK        -0.5000 
     62 CA         -3.2818  -15.4763  -45.9525 C.3       2 UNK         0.1400 
     63 CB         -4.2336  -14.2673  -45.9267 C.3       2 UNK        -0.1800 
     64 N          -2.4809  -15.4431  -47.1698 N.am      2 UNK        -0.5000 
     65 C          -2.8183  -15.9170  -48.3727 C.2       1 UNK         0.5000 
     66 O          -3.9048  -16.4523  -48.6047 O.2       1 UNK        -0.5000 
     67 C          -1.0601  -21.8059  -47.7075 C.2       11 UNK         0.5000 
     68 O          -1.6531  -22.5728  -48.4651 O.2       11 UNK        -0.5000 
     69 N          -1.6731  -20.8628  -46.9798 N.am      12 UNK        -0.5000 
     70 CA         -3.1143  -20.6177  -46.9934 C.3       12 UNK         0.1400 
     71 CB         -3.4320  -19.3582  -46.1769 C.3       12 UNK        -0.1800 
     72 C          -3.9293  -21.8207  -46.4884 C.2       12 UNK         0.5000 
     73 O          -4.9510  -22.1491  -47.0906 O.2       12 UNK        -0.5000 
     74 N          -3.4516  -22.4783  -45.4225 N.am      13 UNK        -0.5000 
     75 CA         -4.0366  -23.7002  -44.8715 C.3       13 UNK         0.1400 
     76 CB         -3.3614  -24.0486  -43.5365 C.3       13 UNK        -0.1800 
     77 C          -3.9583  -24.8833  -45.8516 C.2       13 UNK         0.5000 
     78 O          -4.9652  -25.5611  -46.0577 O.2       13 UNK        -0.5000 
     79 N          -2.7852  -25.0837  -46.4703 N.am      14 UNK        -0.5000 
     80 CA         -2.5449  -26.1133  -47.4855 C.3       14 UNK         0.1400 
     81 CB         -1.0462  -26.1656  -47.8182 C.3       14 UNK        -0.1800 
     82 C          -3.3784  -25.9034  -48.7639 C.2       14 UNK         0.5000 
     83 O          -3.8665  -26.8754  -49.3413 O.2       14 UNK        -0.5000 
     84 N          -3.5520  -24.6366  -49.1604 N.am      15 UNK        -0.5000 
     85 CA         -4.3792  -24.2116  -50.2887 C.3       15 UNK         0.1400 
     86 CB         -3.9577  -22.7907  -50.6910 C.3       15 UNK        -0.1800 
     87 C          -5.8924  -24.2463  -49.9981 C.2       15 UNK         0.5000 
     88 O          -6.6765  -24.0799  -50.9309 O.2       15 UNK        -0.5000 
     89 N          -6.2820  -24.4146  -48.7252 N.am      16 UNK        -0.5000 
     90 CA         -7.6514  -24.3370  -48.2035 C.3       16 UNK         0.1400 
     91 CB         -8.5060  -25.5137  -48.7186 C.3       16 UNK        -0.1800 
     92 C          -8.2913  -22.9545  -48.4602 C.2       16 UNK         0.5000 
     93 O          -9.4402  -22.8661  -48.8961 O.2       16 UNK        -0.5000 
     94 N          -7.5016  -21.9026  -48.2010 N.am      17 UNK        -0.5000 
     95 CA         -7.7934  -20.4752  -48.3679 C.3       17 UNK         0.1400 
     96 CB         -9.0027  -20.0466  -47.5106 C.3       17 UNK        -0.1800 
     97 C          -7.9080  -20.0030  -49.8342 C.2       17 UNK         0.5000 
     98 O          -8.3240  -18.8661  -50.0659 O.2       17 UNK        -0.5000 
     99 N          -7.5163  -20.8458  -50.8004 N.am      18 UNK        -0.5000 
    100 CA        -7.3918  -20.4749  -52.2107 C.3       18 UNK         0.1400 
    101 CB        -7.4051  -21.7471  -53.0727 C.3       18 UNK        -0.1800 
    102 C         -6.1077  -19.6621  -52.4678 C.2       18 UNK         0.5000 
    103 O         -5.1832  -19.6787  -51.6519 O.2       18 UNK        -0.5000 
    104 N         -6.0621  -18.9896  -53.6252 N.am      19 UNK        -0.5000 
    105 CA        -4.9246  -18.1786  -54.0707 C.3       19 UNK         0.1400 
    106 CB        -5.3761  -17.2843  -55.2357 C.3       19 UNK        -0.1800 
    107 C         -3.6885  -19.0036  -54.4813 C.2       19 UNK         0.5000 
    108 O         -2.5951  -18.4434  -54.5471 O.2       19 UNK        -0.5000 
    109 N         -3.8835  -20.2985  -54.7826 N.am      20 UNK        -0.5000 
    110 CA        -2.8621  -21.3052  -55.1172 C.3       20 UNK         0.1400 
    111 CB        -1.9823  -21.5916  -53.8842 C.3       20 UNK        -0.1800 
    112 C         -2.0094  -20.9711  -56.3626 C.2       20 UNK         0.5000 
    113 O         -0.9087  -21.5040  -56.5102 O.2       20 UNK        -0.5000 
    114 N         -2.5297  -20.0834  -57.2237 N.am      21 UNK        -0.5000 
    115 CA        -1.8677  -19.4630  -58.3771 C.3       21 UNK         0.1400 
    116 CB        -1.5191  -20.5129  -59.4535 C.3       21 UNK        -0.1800 
    117 C         -0.6632  -18.5692  -57.9969 C.2       21 UNK         0.5000 
    118 O          0.1781  -18.2903  -58.8534 O.2       21 UNK        -0.5000 
    119 N         -0.6065  -18.1113  -56.7375 N.am      22 UNK        -0.5000 
    120 CA         0.4302  -17.2013  -56.2224 C.3       22 UNK         0.1400 
    121 C          0.2385  -15.7132  -56.6431 C.2       22 UNK         0.5000 
    122 N         -0.8960  -15.3157  -57.2072 N.am      22 UNK        -0.7600 
    123 O          1.1439  -14.9034  -56.4633 O.2       22 UNK        -0.5000 
    124 C124        0.5897  -17.3166  -54.6845 C.3       23 UNK        -0.0398 
    125 S125        1.1213  -18.9791  -54.1403 S.3       23 UNK        -0.2404 
    126 C126        2.8129  -18.6670  -53.5354 C.3       23 UNK        -0.0205 
    127 H127       -1.8111  -18.9214  -51.9424 H         1 UNK         0.0600 
    128 H128       -1.8125  -20.0970  -50.6262 H         1 UNK         0.0600 
    129 H129       -0.2813  -19.5330  -51.3091 H         1 UNK         0.0600 
    130 H130       -2.1076  -16.8126  -51.3021 H         1 UNK         0.3000 
    131 H131       -2.2653  -14.9549  -50.1595 H         1 UNK         0.0600 
    132 H132        0.1377  -15.9115  -48.5225 H         1 UNK         0.0800 
    133 H133       -0.5286  -14.2971  -48.4324 H         1 UNK         0.0800 
    134 H134        2.9748  -14.4443  -50.5150 H         1 UNK         0.0800 
    135 H135        2.3941  -14.9085  -48.9370 H         1 UNK         0.0800 
    136 H136        2.2758  -16.2038  -52.4597 H         1 UNK         0.1150 
    137 H137        3.4827  -20.1675  -51.3519 H         1 UNK         0.1150 
    138 H138        2.9891  -17.1386  -48.3559 H         1 UNK         0.1150 
    139 H139        4.8458  -19.8884  -48.8184 H         1 UNK         0.0800 
    140 H140        3.6835  -19.2850  -47.6718 H         1 UNK         0.0800 
    141 H141        0.7519  -20.7210  -49.3171 H         1 UNK         0.0800 
    142 H142        1.1794  -19.9188  -47.8280 H         1 UNK         0.0800 
    143 H143        0.7191  -22.9330  -47.9566 H         1 UNK         0.0600 
    144 H144        1.4747  -21.2655  -45.7939 H         1 UNK         0.3000 
    145 H145        0.1595  -23.3582  -43.1675 H         1 UNK         0.0600 
    146 H146        2.4065  -24.2164  -43.7686 H         1 UNK         0.0600 
    147 H147        2.9854  -22.5835  -44.0610 H         1 UNK         0.0600 
    148 H148        2.5128  -23.0741  -42.4371 H         1 UNK         0.0600 
    149 H149        1.4538  -20.8327  -43.0458 H         1 UNK         0.3000 
    150 H150       -1.5223  -18.8164  -43.1857 H         1 UNK         0.0600 
    151 H151       -0.3674  -18.0409  -41.0588 H         1 UNK         0.0600 
    152 H152        0.4679  -19.5822  -40.9784 H         1 UNK         0.0600 
    153 H153       -1.2817  -19.5247  -40.8431 H         1 UNK         0.0600 
    154 H154        1.1953  -18.0621  -42.9708 H         1 UNK         0.3000 
    155 H155        2.0216  -18.0857  -46.4507 H         1 UNK         0.0600 
    156 H156        1.0323  -15.8767  -46.1988 H         1 UNK         0.0600 
    157 H157        2.7431  -15.7545  -45.8437 H         1 UNK         0.0600 
    158 H158        1.5711  -15.7531  -44.5255 H         1 UNK         0.0600 
    159 H159        3.4605  -17.4029  -44.0524 H         1 UNK         0.3000 
    160 H160        4.8676  -20.6386  -43.5222 H         1 UNK         0.0600 
    161 H161        6.2337  -19.5645  -45.3175 H         1 UNK         0.0600 
    162 H162        6.9406  -19.2960  -43.7321 H         1 UNK         0.0600 
    163 H163        6.0573  -17.9981  -44.5356 H         1 UNK         0.0600 
    164 H164        5.1758  -18.0926  -42.2168 H         1 UNK         0.3000 
    165 H165        2.5764  -18.5614  -39.8147 H         1 UNK         0.0600 
    166 H166        4.4652  -18.2592  -38.2513 H         1 UNK         0.0600 
    167 H167        4.5294  -19.8667  -38.9549 H         1 UNK         0.0600 
    168 H168        5.6272  -18.6172  -39.5292 H         1 UNK         0.0600 
    169 H169        4.4283  -16.4627  -40.0128 H         1 UNK         0.3000 
    170 H170        3.2954  -14.3438  -40.3960 H         1 UNK         0.0600 
    171 H171        4.4297  -13.3536  -42.4218 H         1 UNK         0.0600 
    172 H172        5.1957  -14.8670  -41.9695 H         1 UNK         0.0600 
    173 H173        4.0911  -14.8185  -43.3401 H         1 UNK         0.0600 
    174 H174        1.2801  -14.8066  -42.4091 H         1 UNK         0.3000 
    175 H175       -0.5000  -11.9452  -41.6124 H         1 UNK         0.0600 
    176 H176        0.7701  -12.3131  -44.3818 H         1 UNK         0.0600 
    177 H177       -0.7266  -11.4450  -44.0414 H         1 UNK         0.0600 
    178 H178        0.8025  -10.8324  -43.4301 H         1 UNK         0.0600 
    179 H179       -0.6903  -14.1042  -43.5987 H         1 UNK         0.3000 
    180 H180       -1.2152  -16.4383  -42.5009 H         1 UNK         0.0600 
    181 H181       -3.2844  -17.4705  -41.6122 H         1 UNK         0.0600 
    182 H182       -3.8344  -15.9061  -41.0103 H         1 UNK         0.0600 
    183 H183       -2.4042  -16.6689  -40.3250 H         1 UNK         0.0600 
    184 H184       -3.8253  -15.8074  -43.4662 H         1 UNK         0.3000 
    185 H185       -3.8577  -16.4022  -45.9116 H         1 UNK         0.0600 
    186 H186       -3.6850  -13.3247  -45.9427 H         1 UNK         0.0600 
    187 H187       -4.9063  -14.2764  -46.7845 H         1 UNK         0.0600 
    188 H188       -4.8553  -14.2716  -45.0309 H         1 UNK         0.0600 
    189 H189       -1.5455  -15.0922  -47.0075 H         1 UNK         0.3000 
    190 H190       -1.1113  -20.2205  -46.4239 H         1 UNK         0.3000 
    191 H191       -3.4048  -20.4298  -48.0292 H         1 UNK         0.0600 
    192 H192       -3.1496  -19.4725  -45.1299 H         1 UNK         0.0600 
    193 H193       -4.4967  -19.1248  -46.2125 H         1 UNK         0.0600 
    194 H194       -2.8941  -18.4985  -46.5757 H         1 UNK         0.0600 
    195 H195       -2.6337  -22.1102  -44.9436 H         1 UNK         0.3000 
    196 H196       -5.0923  -23.5030  -44.6736 H         1 UNK         0.0600 
    197 H197       -3.7855  -24.9578  -43.1087 H         1 UNK         0.0600 
    198 H198       -3.4997  -23.2509  -42.8066 H         1 UNK         0.0600 
    199 H199       -2.2896  -24.2093  -43.6559 H         1 UNK         0.0600 
    200 H200       -1.9923  -24.4961  -46.2256 H         1 UNK         0.3000 
    201 H201       -2.8322  -27.0760  -47.0579 H         1 UNK         0.0600 
    202 H202       -0.4546  -26.4001  -46.9332 H         1 UNK         0.0600 
    203 H203       -0.6894  -25.2149  -48.2159 H         1 UNK         0.0600 
    204 H204       -0.8366  -26.9342  -48.5631 H         1 UNK         0.0600 
    205 H205       -3.0477  -23.9008  -48.6723 H         1 UNK         0.3000 
    206 H206       -4.1880  -24.8788  -51.1315 H         1 UNK         0.0600 
    207 H207       -4.4834  -22.4623  -51.5874 H         1 UNK         0.0600 
    208 H208       -4.1720  -22.0677  -49.9029 H         1 UNK         0.0600 
    209 H209       -2.8900  -22.7437  -50.9031 H         1 UNK         0.0600 
    210 H210       -5.5594  -24.5277  -48.0257 H         1 UNK         0.3000 
    211 H211       -7.5699  -24.4392  -47.1204 H         1 UNK         0.0600 
    212 H212       -8.6774  -25.4537  -49.7937 H         1 UNK         0.0600 
    213 H213       -9.4824  -25.5272  -48.2331 H         1 UNK         0.0600 
    214 H214       -8.0259  -26.4693  -48.5082 H         1 UNK         0.0600 
    215 H215       -6.5646  -22.0981  -47.8470 H         1 UNK         0.3000 
    216 H216       -6.9192  -19.9591  -47.9684 H         1 UNK         0.0600 
    217 H217       -9.1045  -18.9610  -47.4927 H         1 UNK         0.0600 
    218 H218       -8.8911  -20.3764  -46.4778 H         1 UNK         0.0600 
    219 H219       -9.9383  -20.4530  -47.8952 H         1 UNK         0.0600 
    220 H220       -7.1813  -21.7637  -50.5424 H         1 UNK         0.3000 
    221 H221       -8.2524  -19.8627  -52.4887 H         1 UNK         0.0600 
    222 H222       -6.5038  -22.3430  -52.9292 H         1 UNK         0.0600 
    223 H223       -8.2635  -22.3767  -52.8369 H         1 UNK         0.0600 
    224 H224       -7.4666  -21.5021  -54.1334 H         1 UNK         0.0600 
    225 H225       -6.8589  -19.0238  -54.2451 H         1 UNK         0.3000 
    226 H226       -4.6209  -17.5333  -53.2436 H         1 UNK         0.0600 
    227 H227       -6.1969  -16.6319  -54.9369 H         1 UNK         0.0600 
    228 H228       -4.5620  -16.6424  -55.5755 H         1 UNK         0.0600 
    229 H229       -5.7089  -17.8732  -56.0914 H         1 UNK         0.0600 
    230 H230       -4.8305  -20.6442  -54.7303 H         1 UNK         0.3000 
    231 H231       -3.4045  -22.2206  -55.3575 H         1 UNK         0.0600 
    232 H232       -1.3223  -20.7541  -53.6588 H         1 UNK         0.0600 
    233 H233       -2.5917  -21.7789  -53.0031 H         1 UNK         0.0600 
    234 H234       -1.3549  -22.4697  -54.0406 H         1 UNK         0.0600 
    235 H235       -3.4443  -19.7174  -57.0019 H         1 UNK         0.3000 
    236 H236       -2.6060  -18.7885  -58.8126 H         1 UNK         0.0600 
    237 H237       -0.7132  -21.1732  -59.1326 H         1 UNK         0.0600 
    238 H238       -2.3834  -21.1307  -59.6972 H         1 UNK         0.0600 
    239 H239       -1.1956  -20.0326  -60.3776 H         1 UNK         0.0600 
    240 H240       -1.3250  -18.3791  -56.0717 H         1 UNK         0.3000 
    241 H241        1.3814  -17.5056  -56.6635 H         1 UNK         0.0600 
    242 H242       -1.0038  -14.3513  -57.4800 H         1 UNK         0.3800 
    243 H243       -1.6487  -15.9672  -57.3582 H         1 UNK         0.3800 
    244 H244        1.3138  -16.5819  -54.3381 H         1 UNK         0.0800 
    245 H245       -0.3465  -17.0714  -54.1814 H         1 UNK         0.0800 
    246 H246        3.3007  -17.9117  -54.1531 H         1 UNK         0.0800 
    247 H247        3.3950  -19.5801  -53.6676 H         1 UNK         0.0800 
@<TRIPOS>BOND
     1    1    2 1    
     2    1  127 1    
     3    1  128 1    
     4    1  129 1    
     5    2    3 2    
     6    2    4 am   BACKBONE|DICT|INTERRES
     7    4    5 1    
     8    4  130 1    
     9    5    6 1    
    10    5   65 1    
    11    5  131 1    
    12    6    7 1    
    13    6  132 1    
    14    6  133 1    
    15    7    8 1    
    16    8    9 1    
    17    8  134 1    
    18    8  135 1    
    19    9   10 ar   
    20    9   14 ar   
    21   10   11 ar   
    22   10  136 1    
    23   11   12 ar   
    24   11  126 1    
    25   12   13 ar   
    26   12  137 1    
    27   13   14 ar   
    28   13   15 1    
    29   14  138 1    
    30   15   16 1    
    31   15  139 1    
    32   15  140 1    
    33   16   17 1    
    34   17   18 1    
    35   17  141 1    
    36   17  142 1    
    37   18   19 1    
    38   18   67 1    
    39   18  143 1    
    40   19   20 am   BACKBONE|DICT|INTERRES
    41   19  144 1    
    42   20   21 2    
    43   20   22 1    
    44   22   23 1    
    45   22   24 1    
    46   22  145 1    
    47   23  146 1    
    48   23  147 1    
    49   23  148 1    
    50   24   25 am   BACKBONE|DICT|INTERRES
    51   24  149 1    
    52   25   26 2    
    53   25   27 1    
    54   27   28 1    
    55   27   29 1    
    56   27  150 1    
    57   28  151 1    
    58   28  152 1    
    59   28  153 1    
    60   29   30 am   BACKBONE|DICT|INTERRES
    61   29  154 1    
    62   30   31 2    
    63   30   32 1    
    64   32   33 1    
    65   32   34 1    
    66   32  155 1    
    67   33  156 1    
    68   33  157 1    
    69   33  158 1    
    70   34   35 am   BACKBONE|DICT|INTERRES
    71   34  159 1    
    72   35   36 2    
    73   35   37 1    
    74   37   38 1    
    75   37   39 1    
    76   37  160 1    
    77   38  161 1    
    78   38  162 1    
    79   38  163 1    
    80   39   40 am   BACKBONE|DICT|INTERRES
    81   39  164 1    
    82   40   41 2    
    83   40   42 1    
    84   42   43 1    
    85   42   44 1    
    86   42  165 1    
    87   43  166 1    
    88   43  167 1    
    89   43  168 1    
    90   44   45 am   BACKBONE|DICT|INTERRES
    91   44  169 1    
    92   45   46 2    
    93   45   47 1    
    94   47   48 1    
    95   47   49 1    
    96   47  170 1    
    97   48  171 1    
    98   48  172 1    
    99   48  173 1    
   100   49   50 am   BACKBONE|DICT|INTERRES
   101   49  174 1    
   102   50   51 2    
   103   50   52 1    
   104   52   53 1    
   105   52   54 1    
   106   52  175 1    
   107   53  176 1    
   108   53  177 1    
   109   53  178 1    
   110   54   55 am   BACKBONE|DICT|INTERRES
   111   54  179 1    
   112   55   56 2    
   113   55   57 1    
   114   57   58 1    
   115   57   59 1    
   116   57  180 1    
   117   58  181 1    
   118   58  182 1    
   119   58  183 1    
   120   59   60 am   BACKBONE|DICT|INTERRES
   121   59  184 1    
   122   60   61 2    
   123   60   62 1    
   124   62   63 1    
   125   62   64 1    
   126   62  185 1    
   127   63  186 1    
   128   63  187 1    
   129   63  188 1    
   130   64   65 am   BACKBONE|DICT|INTERRES
   131   64  189 1    
   132   65   66 2    
   133   67   68 2    
   134   67   69 am   BACKBONE|DICT|INTERRES
   135   69   70 1    
   136   69  190 1    
   137   70   71 1    
   138   70   72 1    
   139   70  191 1    
   140   71  192 1    
   141   71  193 1    
   142   71  194 1    
   143   72   73 2    
   144   72   74 am   BACKBONE|DICT|INTERRES
   145   74   75 1    
   146   74  195 1    
   147   75   76 1    
   148   75   77 1    
   149   75  196 1    
   150   76  197 1    
   151   76  198 1    
   152   76  199 1    
   153   77   78 2    
   154   77   79 am   BACKBONE|DICT|INTERRES
   155   79   80 1    
   156   79  200 1    
   157   80   81 1    
   158   80   82 1    
   159   80  201 1    
   160   81  202 1    
   161   81  203 1    
   162   81  204 1    
   163   82   83 2    
   164   82   84 am   BACKBONE|DICT|INTERRES
   165   84   85 1    
   166   84  205 1    
   167   85   86 1    
   168   85   87 1    
   169   85  206 1    
   170   86  207 1    
   171   86  208 1    
   172   86  209 1    
   173   87   88 2    
   174   87   89 am   BACKBONE|DICT|INTERRES
   175   89   90 1    
   176   89  210 1    
   177   90   91 1    
   178   90   92 1    
   179   90  211 1    
   180   91  212 1    
   181   91  213 1    
   182   91  214 1    
   183   92   93 2    
   184   92   94 am   BACKBONE|DICT|INTERRES
   185   94   95 1    
   186   94  215 1    
   187   95   96 1    
   188   95   97 1    
   189   95  216 1    
   190   96  217 1    
   191   96  218 1    
   192   96  219 1    
   193   97   98 2    
   194   97   99 am   BACKBONE|DICT|INTERRES
   195   99  100 1    
   196   99  220 1    
   197  100  101 1    
   198  100  102 1    
   199  100  221 1    
   200  101  222 1    
   201  101  223 1    
   202  101  224 1    
   203  102  103 2    
   204  102  104 am   BACKBONE|DICT|INTERRES
   205  104  105 1    
   206  104  225 1    
   207  105  106 1    
   208  105  107 1    
   209  105  226 1    
   210  106  227 1    
   211  106  228 1    
   212  106  229 1    
   213  107  108 2    
   214  107  109 am   BACKBONE|DICT|INTERRES
   215  109  110 1    
   216  109  230 1    
   217  110  111 1    
   218  110  112 1    
   219  110  231 1    
   220  111  232 1    
   221  111  233 1    
   222  111  234 1    
   223  112  113 2    
   224  112  114 am   BACKBONE|DICT|INTERRES
   225  114  115 1    
   226  114  235 1    
   227  115  116 1    
   228  115  117 1    
   229  115  236 1    
   230  116  237 1    
   231  116  238 1    
   232  116  239 1    
   233  117  118 2    
   234  117  119 am   BACKBONE|DICT|INTERRES
   235  119  120 1    
   236  119  240 1    
   237  120  121 1    
   238  120  124 1    
   239  120  241 1    
   240  121  122 am   BACKBONE|DICT|INTERRES
   241  121  123 2    
   242  122  242 1    
   243  122  243 1    
   244  124  125 1    
   245  124  244 1    
   246  124  245 1    
   247  125  126 1    
   248  126  246 1    
   249  126  247 1    
@<TRIPOS>SUBSTRUCTURE
     1 UNK         1 GROUP             0       ****    0 ROOT    
