@<TRIPOS>MOLECULE
3R540
247   249    1
SMALL
USER_CHARGES


@<TRIPOS>ATOM
      1 CA          1.4927  -14.1137  -51.8820 C.3       0 UNK        -0.1800 
      2 C           0.9168  -13.4639  -50.6312 C.2       0 UNK         0.5000 
      3 O           0.6225  -12.2692  -50.6465 O.2       0 UNK        -0.5000 
      4 N           0.7557  -14.2580  -49.5650 N.am      1 UNK        -0.5000 
      5 CA          0.2022  -13.8941  -48.2545 C.3       1 UNK         0.1400 
      6 C6         -1.2864  -13.4522  -48.2873 C.3       23 UNK        -0.0398 
      7 S7         -2.4257  -14.5921  -49.1536 S.3       23 UNK        -0.2404 
      8 C8         -2.2123  -16.1851  -48.2924 C.3       23 UNK        -0.0205 
      9 C9         -1.5247  -17.2034  -49.1912 C.ar      23 UNK        -0.0193 
     10 C10        -2.2710  -17.8965  -50.1473 C.ar      23 UNK        -0.1150 
     11 C11        -1.6582  -18.8141  -51.0052 C.ar      23 UNK        -0.0193 
     12 C12        -0.2808  -19.0320  -50.9048 C.ar      23 UNK        -0.1150 
     13 C13         0.4764  -18.3579  -49.9413 C.ar      23 UNK        -0.0193 
     14 C14        -0.1548  -17.4570  -49.0778 C.ar      23 UNK        -0.1150 
     15 C15         1.9818  -18.5743  -49.8554 C.3       23 UNK        -0.0205 
     16 S16         2.4357  -20.2278  -49.2413 S.3       23 UNK        -0.2404 
     17 C17         1.8439  -20.1763  -47.5144 C.3       23 UNK        -0.0398 
     18 CA          1.0753  -21.4551  -47.1048 C.3       11 UNK         0.1400 
     19 N           0.8803  -21.5383  -45.6577 N.am      11 UNK        -0.5000 
     20 C           0.3814  -22.5980  -45.0053 C.2       10 UNK         0.5000 
     21 O           0.0876  -23.6646  -45.5467 O.2       10 UNK        -0.5000 
     22 CA          0.1166  -22.4131  -43.5002 C.3       10 UNK         0.1400 
     23 CB          1.4117  -22.5748  -42.6909 C.3       10 UNK        -0.1800 
     24 N          -0.5002  -21.1198  -43.1972 N.am      10 UNK        -0.5000 
     25 C          -1.7112  -20.7428  -43.6341 C.2       9 UNK         0.5000 
     26 O          -2.4555  -21.4684  -44.2937 O.2       9 UNK        -0.5000 
     27 CA         -2.1515  -19.3031  -43.3176 C.3       9 UNK         0.1400 
     28 CB         -2.6722  -19.1982  -41.8766 C.3       9 UNK        -0.1800 
     29 N          -1.0850  -18.3243  -43.5314 N.am      9 UNK        -0.5000 
     30 C          -0.5300  -18.0515  -44.7209 C.2       8 UNK         0.5000 
     31 O          -0.8825  -18.5730  -45.7774 O.2       8 UNK        -0.5000 
     32 CA          0.6552  -17.0701  -44.7289 C.3       8 UNK         0.1400 
     33 CB          0.1709  -15.6184  -44.6200 C.3       8 UNK        -0.1800 
     34 N           1.6179  -17.3439  -43.6635 N.am      8 UNK        -0.5000 
     35 C           2.3117  -18.4834  -43.5349 C.2       7 UNK         0.5000 
     36 O           2.2547  -19.4145  -44.3362 O.2       7 UNK        -0.5000 
     37 CA          3.1735  -18.6272  -42.2711 C.3       7 UNK         0.1400 
     38 CB          4.5230  -17.9144  -42.4422 C.3       7 UNK        -0.1800 
     39 N           2.4847  -18.1131  -41.0879 N.am      7 UNK        -0.5000 
     40 C           1.4206  -18.6998  -40.5215 C.2       6 UNK         0.5000 
     41 O           0.9276  -19.7555  -40.9198 O.2       6 UNK        -0.5000 
     42 CA          0.7765  -17.9577  -39.3364 C.3       6 UNK         0.1400 
     43 CB          1.5506  -18.2303  -38.0382 C.3       6 UNK        -0.1800 
     44 N           0.6908  -16.5131  -39.5585 N.am      6 UNK        -0.5000 
     45 C          -0.0817  -15.9407  -40.4921 C.2       5 UNK         0.5000 
     46 O          -0.8221  -16.5715  -41.2450 O.2       5 UNK        -0.5000 
     47 CA          0.0163  -14.4114  -40.6384 C.3       5 UNK         0.1400 
     48 CB         -0.9479  -13.7153  -39.6666 C.3       5 UNK        -0.1800 
     49 N           1.3650  -13.8694  -40.4523 N.am      5 UNK        -0.5000 
     50 C           2.4458  -14.2182  -41.1621 C.2       4 UNK         0.5000 
     51 O           2.4540  -15.1165  -42.0057 O.2       4 UNK        -0.5000 
     52 CA          3.7176  -13.3870  -40.9185 C.3       4 UNK         0.1400 
     53 CB          4.9933  -14.2361  -41.0508 C.3       4 UNK        -0.1800 
     54 N           3.7707  -12.2988  -41.8892 N.am      4 UNK        -0.5000 
     55 C           3.0175  -11.1910  -41.8497 C.2       3 UNK         0.5000 
     56 O           2.3135  -10.8779  -40.8884 O.2       3 UNK        -0.5000 
     57 CA          3.0356  -10.2937  -43.1048 C.3       3 UNK         0.1400 
     58 CB          4.0312   -9.1374  -42.9255 C.3       3 UNK        -0.1800 
     59 N           3.3598  -11.0188  -44.3391 N.am      3 UNK        -0.5000 
     60 C           2.5922  -11.9683  -44.8929 C.2       2 UNK         0.5000 
     61 O           1.5060  -12.3226  -44.4296 O.2       2 UNK        -0.5000 
     62 CA          3.1799  -12.6642  -46.1397 C.3       2 UNK         0.1400 
     63 CB          4.2791  -13.6540  -45.7154 C.3       2 UNK        -0.1800 
     64 N           2.1927  -13.3990  -46.9344 N.am      2 UNK        -0.5000 
     65 C           1.1080  -12.8786  -47.5248 C.2       1 UNK         0.5000 
     66 O           0.8352  -11.6763  -47.5267 O.2       1 UNK        -0.5000 
     67 C          -0.2586  -21.6108  -47.8604 C.2       11 UNK         0.5000 
     68 O          -0.3370  -22.4483  -48.7561 O.2       11 UNK        -0.5000 
     69 N          -1.2919  -20.8617  -47.4484 N.am      12 UNK        -0.5000 
     70 CA         -2.6403  -20.9280  -48.0124 C.3       12 UNK         0.1400 
     71 CB         -3.5346  -19.8707  -47.3496 C.3       12 UNK        -0.1800 
     72 C          -3.2765  -22.3222  -47.8938 C.2       12 UNK         0.5000 
     73 O          -3.8373  -22.8139  -48.8726 O.2       12 UNK        -0.5000 
     74 N          -3.1497  -22.9435  -46.7128 N.am      13 UNK        -0.5000 
     75 CA         -3.6180  -24.3000  -46.4323 C.3       13 UNK         0.1400 
     76 CB         -3.4120  -24.6219  -44.9445 C.3       13 UNK        -0.1800 
     77 C          -2.9442  -25.3578  -47.3247 C.2       13 UNK         0.5000 
     78 O          -3.6396  -26.2049  -47.8872 O.2       13 UNK        -0.5000 
     79 N          -1.6137  -25.2673  -47.4622 N.am      14 UNK        -0.5000 
     80 CA         -0.8096  -26.1337  -48.3239 C.3       14 UNK         0.1400 
     81 CB          0.6811  -25.9056  -48.0302 C.3       14 UNK        -0.1800 
     82 C          -1.1107  -25.9287  -49.8200 C.2       14 UNK         0.5000 
     83 O          -1.2679  -26.9072  -50.5523 O.2       14 UNK        -0.5000 
     84 N          -1.2126  -24.6641  -50.2455 N.am      15 UNK        -0.5000 
     85 CA         -1.4959  -24.2409  -51.6146 C.3       15 UNK         0.1400 
     86 CB         -0.9323  -22.8282  -51.8240 C.3       15 UNK        -0.1800 
     87 C          -2.9958  -24.3418  -51.9568 C.2       15 UNK         0.5000 
     88 O          -3.6359  -23.3367  -52.2742 O.2       15 UNK        -0.5000 
     89 N          -3.5093  -25.5784  -51.9124 N.am      16 UNK        -0.5000 
     90 CA         -4.8354  -26.0118  -52.3618 C.3       16 UNK         0.1400 
     91 CB         -4.9414  -25.8791  -53.8960 C.3       16 UNK        -0.1800 
     92 C          -6.0146  -25.3555  -51.6106 C.2       16 UNK         0.5000 
     93 O          -7.0846  -25.1780  -52.1946 O.2       16 UNK        -0.5000 
     94 N          -5.8062  -25.0463  -50.3214 N.am      17 UNK        -0.5000 
     95 CA         -6.7701  -24.4463  -49.3910 C.3       17 UNK         0.1400 
     96 CB         -7.9219  -25.4270  -49.0855 C.3       17 UNK        -0.1800 
     97 C          -7.2541  -23.0503  -49.8412 C.2       17 UNK         0.5000 
     98 O          -8.4556  -22.7739  -49.8275 O.2       17 UNK        -0.5000 
     99 N          -6.2793  -22.2036  -50.1983 N.am      18 UNK        -0.5000 
    100 CA        -6.3707  -20.8172  -50.6614 C.3       18 UNK         0.1400 
    101 CB        -7.1267  -19.9330  -49.6494 C.3       18 UNK        -0.1800 
    102 C         -6.9517  -20.6624  -52.0805 C.2       18 UNK         0.5000 
    103 O         -7.7093  -21.5077  -52.5600 O.2       18 UNK        -0.5000 
    104 N         -6.5725  -19.5496  -52.7237 N.am      19 UNK        -0.5000 
    105 CA        -6.9539  -19.0439  -54.0503 C.3       19 UNK         0.1400 
    106 CB        -8.4638  -18.7464  -54.1129 C.3       19 UNK        -0.1800 
    107 C         -6.5161  -19.9082  -55.2506 C.2       19 UNK         0.5000 
    108 O         -6.0502  -19.3612  -56.2506 O.2       19 UNK        -0.5000 
    109 N         -6.6936  -21.2281  -55.1488 N.am      20 UNK        -0.5000 
    110 CA        -6.5714  -22.1893  -56.2428 C.3       20 UNK         0.1400 
    111 CB        -7.2515  -23.5000  -55.8176 C.3       20 UNK        -0.1800 
    112 C         -5.1371  -22.4459  -56.7443 C.2       20 UNK         0.5000 
    113 O         -4.9881  -22.9068  -57.8774 O.2       20 UNK        -0.5000 
    114 N         -4.1147  -22.1648  -55.9243 N.am      21 UNK        -0.5000 
    115 CA        -2.7127  -22.4406  -56.2550 C.3       21 UNK         0.1400 
    116 CB        -2.3478  -23.8751  -55.8250 C.3       21 UNK        -0.1800 
    117 C         -1.7455  -21.3818  -55.6944 C.2       21 UNK         0.5000 
    118 O         -0.5839  -21.7001  -55.4361 O.2       21 UNK        -0.5000 
    119 N         -2.2182  -20.1397  -55.5226 N.am      22 UNK        -0.5000 
    120 CA        -1.3987  -19.0134  -55.0282 C.3       22 UNK         0.1400 
    121 C         -0.4709  -18.3655  -56.0988 C.2       22 UNK         0.5000 
    122 N         -0.5748  -18.7164  -57.3749 N.am      22 UNK        -0.7600 
    123 O          0.3658  -17.5316  -55.7639 O.2       22 UNK        -0.5000 
    124 C124       -2.2401  -17.9265  -54.3059 C.3       23 UNK        -0.0398 
    125 S125       -3.4735  -18.5533  -53.1158 S.3       23 UNK        -0.2404 
    126 C126       -2.4937  -19.6060  -52.0003 C.3       23 UNK        -0.0205 
    127 H127        0.8012  -13.9977  -52.7166 H         1 UNK         0.0600 
    128 H128        1.6746  -15.1795  -51.7401 H         1 UNK         0.0600 
    129 H129        2.4367  -13.6398  -52.1512 H         1 UNK         0.0600 
    130 H130        1.0154  -15.2282  -49.6612 H         1 UNK         0.3000 
    131 H131        0.2442  -14.8017  -47.6556 H         1 UNK         0.0600 
    132 H132       -1.6576  -13.3163  -47.2700 H         1 UNK         0.0800 
    133 H133       -1.3813  -12.4787  -48.7711 H         1 UNK         0.0800 
    134 H134       -1.6706  -16.0618  -47.3558 H         1 UNK         0.0800 
    135 H135       -3.1992  -16.5568  -48.0144 H         1 UNK         0.0800 
    136 H136       -3.3343  -17.7190  -50.2249 H         1 UNK         0.1150 
    137 H137        0.2039  -19.7394  -51.5631 H         1 UNK         0.1150 
    138 H138        0.4242  -16.9500  -48.3217 H         1 UNK         0.1150 
    139 H139        2.4124  -18.4424  -50.8490 H         1 UNK         0.0800 
    140 H140        2.4493  -17.8194  -49.2214 H         1 UNK         0.0800 
    141 H141        1.2359  -19.2883  -47.3417 H         1 UNK         0.0800 
    142 H142        2.7259  -20.0606  -46.8837 H         1 UNK         0.0800 
    143 H143        1.6973  -22.3112  -47.3757 H         1 UNK         0.0600 
    144 H144        1.1436  -20.7154  -45.1216 H         1 UNK         0.3000 
    145 H145       -0.5783  -23.1952  -43.1875 H         1 UNK         0.0600 
    146 H146        1.2155  -22.5217  -41.6199 H         1 UNK         0.0600 
    147 H147        1.8778  -23.5407  -42.8891 H         1 UNK         0.0600 
    148 H148        2.1401  -21.8015  -42.9354 H         1 UNK         0.0600 
    149 H149        0.0371  -20.4813  -42.6200 H         1 UNK         0.3000 
    150 H150       -2.9721  -19.0527  -43.9931 H         1 UNK         0.0600 
    151 H151       -3.4694  -19.9201  -41.6948 H         1 UNK         0.0600 
    152 H152       -3.0798  -18.2070  -41.6773 H         1 UNK         0.0600 
    153 H153       -1.8831  -19.3873  -41.1481 H         1 UNK         0.0600 
    154 H154       -0.7730  -17.8095  -42.7125 H         1 UNK         0.3000 
    155 H155        1.1749  -17.1847  -45.6822 H         1 UNK         0.0600 
    156 H156       -0.3432  -15.4352  -43.6775 H         1 UNK         0.0600 
    157 H157       -0.5245  -15.3692  -45.4201 H         1 UNK         0.0600 
    158 H158        1.0073  -14.9235  -44.6812 H         1 UNK         0.0600 
    159 H159        1.7664  -16.6076  -42.9780 H         1 UNK         0.3000 
    160 H160        3.3696  -19.6903  -42.1163 H         1 UNK         0.0600 
    161 H161        4.3967  -16.8507  -42.6420 H         1 UNK         0.0600 
    162 H162        5.0810  -18.3380  -43.2781 H         1 UNK         0.0600 
    163 H163        5.1422  -18.0186  -41.5512 H         1 UNK         0.0600 
    164 H164        2.7815  -17.2105  -40.7470 H         1 UNK         0.3000 
    165 H165       -0.2382  -18.3432  -39.2154 H         1 UNK         0.0600 
    166 H166        1.0554  -17.7738  -37.1810 H         1 UNK         0.0600 
    167 H167        1.6166  -19.3013  -37.8415 H         1 UNK         0.0600 
    168 H168        2.5687  -17.8417  -38.0845 H         1 UNK         0.0600 
    169 H169        1.2722  -15.9216  -38.9832 H         1 UNK         0.3000 
    170 H170       -0.2920  -14.1607  -41.6549 H         1 UNK         0.0600 
    171 H171       -1.9672  -14.0816  -39.7976 H         1 UNK         0.0600 
    172 H172       -0.6672  -13.8887  -38.6270 H         1 UNK         0.0600 
    173 H173       -0.9677  -12.6382  -39.8345 H         1 UNK         0.0600 
    174 H174        1.4451  -13.0843  -39.8210 H         1 UNK         0.3000 
    175 H175        3.6860  -12.9752  -39.9076 H         1 UNK         0.0600 
    176 H176        5.1284  -14.6106  -42.0661 H         1 UNK         0.0600 
    177 H177        5.8786  -13.6554  -40.7911 H         1 UNK         0.0600 
    178 H178        4.9618  -15.0976  -40.3826 H         1 UNK         0.0600 
    179 H179        4.2961  -12.4792  -42.7310 H         1 UNK         0.3000 
    180 H180        2.0355   -9.8698  -43.2170 H         1 UNK         0.0600 
    181 H181        5.0557   -9.4992  -42.8290 H         1 UNK         0.0600 
    182 H182        3.8015   -8.5597  -42.0291 H         1 UNK         0.0600 
    183 H183        3.9948   -8.4500  -43.7708 H         1 UNK         0.0600 
    184 H184        4.2395  -10.7838  -44.7762 H         1 UNK         0.3000 
    185 H185        3.6191  -11.8986  -46.7824 H         1 UNK         0.0600 
    186 H186        5.0809  -13.1502  -45.1744 H         1 UNK         0.0600 
    187 H187        3.8851  -14.4353  -45.0630 H         1 UNK         0.0600 
    188 H188        4.7330  -14.1368  -46.5811 H         1 UNK         0.0600 
    189 H189        2.3445  -14.3937  -46.9994 H         1 UNK         0.3000 
    190 H190       -1.1400  -20.1652  -46.7226 H         1 UNK         0.3000 
    191 H191       -2.5591  -20.6932  -49.0739 H         1 UNK         0.0600 
    192 H192       -3.0975  -18.8777  -47.4303 H         1 UNK         0.0600 
    193 H193       -4.5140  -19.8358  -47.8257 H         1 UNK         0.0600 
    194 H194       -3.6890  -20.0766  -46.2905 H         1 UNK         0.0600 
    195 H195       -2.7072  -22.4461  -45.9444 H         1 UNK         0.3000 
    196 H196       -4.6898  -24.3272  -46.6349 H         1 UNK         0.0600 
    197 H197       -3.7667  -25.6260  -44.7088 H         1 UNK         0.0600 
    198 H198       -3.9623  -23.9254  -44.3118 H         1 UNK         0.0600 
    199 H199       -2.3605  -24.5691  -44.6614 H         1 UNK         0.0600 
    200 H200       -1.1152  -24.5465  -46.9494 H         1 UNK         0.3000 
    201 H201       -1.0488  -27.1698  -48.0757 H         1 UNK         0.0600 
    202 H202        0.9153  -26.1286  -46.9892 H         1 UNK         0.0600 
    203 H203        0.9770  -24.8738  -48.2237 H         1 UNK         0.0600 
    204 H204        1.3056  -26.5497  -48.6505 H         1 UNK         0.0600 
    205 H205       -1.0505  -23.9105  -49.5793 H         1 UNK         0.3000 
    206 H206       -0.9658  -24.9038  -52.3016 H         1 UNK         0.0600 
    207 H207        0.1393  -22.7947  -51.6270 H         1 UNK         0.0600 
    208 H208       -1.0847  -22.4962  -52.8504 H         1 UNK         0.0600 
    209 H209       -1.4150  -22.1109  -51.1608 H         1 UNK         0.0600 
    210 H210       -2.8922  -26.3144  -51.5825 H         1 UNK         0.3000 
    211 H211       -4.8978  -27.0748  -52.1251 H         1 UNK         0.0600 
    212 H212       -4.8686  -24.8396  -54.2147 H         1 UNK         0.0600 
    213 H213       -5.8879  -26.2740  -54.2668 H         1 UNK         0.0600 
    214 H214       -4.1458  -26.4335  -54.3935 H         1 UNK         0.0600 
    215 H215       -4.8815  -25.2066  -49.9435 H         1 UNK         0.3000 
    216 H216       -6.2287  -24.2880  -48.4583 H         1 UNK         0.0600 
    217 H217       -8.5698  -25.0343  -48.3010 H         1 UNK         0.0600 
    218 H218       -7.5397  -26.3871  -48.7389 H         1 UNK         0.0600 
    219 H219       -8.5447  -25.6094  -49.9616 H         1 UNK         0.0600 
    220 H220       -5.3302  -22.5611  -50.1286 H         1 UNK         0.3000 
    221 H221       -5.3391  -20.4677  -50.6930 H         1 UNK         0.0600 
    222 H222       -8.1965  -20.1437  -49.6457 H         1 UNK         0.0600 
    223 H223       -6.7547  -20.0791  -48.6358 H         1 UNK         0.0600 
    224 H224       -7.0079  -18.8761  -49.8902 H         1 UNK         0.0600 
    225 H225       -5.9031  -18.9567  -52.2522 H         1 UNK         0.3000 
    226 H226       -6.4340  -18.0904  -54.1563 H         1 UNK         0.0600 
    227 H227       -8.7631  -18.0599  -53.3210 H         1 UNK         0.0600 
    228 H228       -8.7300  -18.2820  -55.0633 H         1 UNK         0.0600 
    229 H229       -9.0624  -19.6525  -54.0150 H         1 UNK         0.0600 
    230 H230       -7.0846  -21.5732  -54.2742 H         1 UNK         0.3000 
    231 H231       -7.1278  -21.7909  -57.0939 H         1 UNK         0.0600 
    232 H232       -6.8569  -23.8680  -54.8711 H         1 UNK         0.0600 
    233 H233       -7.1141  -24.2837  -56.5638 H         1 UNK         0.0600 
    234 H234       -8.3250  -23.3585  -55.6910 H         1 UNK         0.0600 
    235 H235       -4.3062  -21.8011  -55.0007 H         1 UNK         0.3000 
    236 H236       -2.5827  -22.3803  -57.3374 H         1 UNK         0.0600 
    237 H237       -3.0181  -24.6075  -56.2748 H         1 UNK         0.0600 
    238 H238       -1.3349  -24.1364  -56.1333 H         1 UNK         0.0600 
    239 H239       -2.4025  -23.9911  -54.7444 H         1 UNK         0.0600 
    240 H240       -3.1735  -19.9299  -55.7744 H         1 UNK         0.3000 
    241 H241       -0.7058  -19.4129  -54.2862 H         1 UNK         0.0600 
    242 H242       -1.2563  -19.3976  -57.6676 H         1 UNK         0.3800 
    243 H243        0.0348  -18.2924  -58.0570 H         1 UNK         0.3800 
    244 H244       -1.5846  -17.2346  -53.7736 H         1 UNK         0.0800 
    245 H245       -2.7818  -17.3257  -55.0384 H         1 UNK         0.0800 
    246 H246       -1.8742  -20.2788  -52.5886 H         1 UNK         0.0800 
    247 H247       -3.1724  -20.2503  -51.4430 H         1 UNK         0.0800 
@<TRIPOS>BOND
     1    1    2 1    
     2    1  127 1    
     3    1  128 1    
     4    1  129 1    
     5    2    3 2    
     6    2    4 am   BACKBONE|DICT|INTERRES
     7    4    5 1    
     8    4  130 1    
     9    5    6 1    
    10    5   65 1    
    11    5  131 1    
    12    6    7 1    
    13    6  132 1    
    14    6  133 1    
    15    7    8 1    
    16    8    9 1    
    17    8  134 1    
    18    8  135 1    
    19    9   10 ar   
    20    9   14 ar   
    21   10   11 ar   
    22   10  136 1    
    23   11   12 ar   
    24   11  126 1    
    25   12   13 ar   
    26   12  137 1    
    27   13   14 ar   
    28   13   15 1    
    29   14  138 1    
    30   15   16 1    
    31   15  139 1    
    32   15  140 1    
    33   16   17 1    
    34   17   18 1    
    35   17  141 1    
    36   17  142 1    
    37   18   19 1    
    38   18   67 1    
    39   18  143 1    
    40   19   20 am   BACKBONE|DICT|INTERRES
    41   19  144 1    
    42   20   21 2    
    43   20   22 1    
    44   22   23 1    
    45   22   24 1    
    46   22  145 1    
    47   23  146 1    
    48   23  147 1    
    49   23  148 1    
    50   24   25 am   BACKBONE|DICT|INTERRES
    51   24  149 1    
    52   25   26 2    
    53   25   27 1    
    54   27   28 1    
    55   27   29 1    
    56   27  150 1    
    57   28  151 1    
    58   28  152 1    
    59   28  153 1    
    60   29   30 am   BACKBONE|DICT|INTERRES
    61   29  154 1    
    62   30   31 2    
    63   30   32 1    
    64   32   33 1    
    65   32   34 1    
    66   32  155 1    
    67   33  156 1    
    68   33  157 1    
    69   33  158 1    
    70   34   35 am   BACKBONE|DICT|INTERRES
    71   34  159 1    
    72   35   36 2    
    73   35   37 1    
    74   37   38 1    
    75   37   39 1    
    76   37  160 1    
    77   38  161 1    
    78   38  162 1    
    79   38  163 1    
    80   39   40 am   BACKBONE|DICT|INTERRES
    81   39  164 1    
    82   40   41 2    
    83   40   42 1    
    84   42   43 1    
    85   42   44 1    
    86   42  165 1    
    87   43  166 1    
    88   43  167 1    
    89   43  168 1    
    90   44   45 am   BACKBONE|DICT|INTERRES
    91   44  169 1    
    92   45   46 2    
    93   45   47 1    
    94   47   48 1    
    95   47   49 1    
    96   47  170 1    
    97   48  171 1    
    98   48  172 1    
    99   48  173 1    
   100   49   50 am   BACKBONE|DICT|INTERRES
   101   49  174 1    
   102   50   51 2    
   103   50   52 1    
   104   52   53 1    
   105   52   54 1    
   106   52  175 1    
   107   53  176 1    
   108   53  177 1    
   109   53  178 1    
   110   54   55 am   BACKBONE|DICT|INTERRES
   111   54  179 1    
   112   55   56 2    
   113   55   57 1    
   114   57   58 1    
   115   57   59 1    
   116   57  180 1    
   117   58  181 1    
   118   58  182 1    
   119   58  183 1    
   120   59   60 am   BACKBONE|DICT|INTERRES
   121   59  184 1    
   122   60   61 2    
   123   60   62 1    
   124   62   63 1    
   125   62   64 1    
   126   62  185 1    
   127   63  186 1    
   128   63  187 1    
   129   63  188 1    
   130   64   65 am   BACKBONE|DICT|INTERRES
   131   64  189 1    
   132   65   66 2    
   133   67   68 2    
   134   67   69 am   BACKBONE|DICT|INTERRES
   135   69   70 1    
   136   69  190 1    
   137   70   71 1    
   138   70   72 1    
   139   70  191 1    
   140   71  192 1    
   141   71  193 1    
   142   71  194 1    
   143   72   73 2    
   144   72   74 am   BACKBONE|DICT|INTERRES
   145   74   75 1    
   146   74  195 1    
   147   75   76 1    
   148   75   77 1    
   149   75  196 1    
   150   76  197 1    
   151   76  198 1    
   152   76  199 1    
   153   77   78 2    
   154   77   79 am   BACKBONE|DICT|INTERRES
   155   79   80 1    
   156   79  200 1    
   157   80   81 1    
   158   80   82 1    
   159   80  201 1    
   160   81  202 1    
   161   81  203 1    
   162   81  204 1    
   163   82   83 2    
   164   82   84 am   BACKBONE|DICT|INTERRES
   165   84   85 1    
   166   84  205 1    
   167   85   86 1    
   168   85   87 1    
   169   85  206 1    
   170   86  207 1    
   171   86  208 1    
   172   86  209 1    
   173   87   88 2    
   174   87   89 am   BACKBONE|DICT|INTERRES
   175   89   90 1    
   176   89  210 1    
   177   90   91 1    
   178   90   92 1    
   179   90  211 1    
   180   91  212 1    
   181   91  213 1    
   182   91  214 1    
   183   92   93 2    
   184   92   94 am   BACKBONE|DICT|INTERRES
   185   94   95 1    
   186   94  215 1    
   187   95   96 1    
   188   95   97 1    
   189   95  216 1    
   190   96  217 1    
   191   96  218 1    
   192   96  219 1    
   193   97   98 2    
   194   97   99 am   BACKBONE|DICT|INTERRES
   195   99  100 1    
   196   99  220 1    
   197  100  101 1    
   198  100  102 1    
   199  100  221 1    
   200  101  222 1    
   201  101  223 1    
   202  101  224 1    
   203  102  103 2    
   204  102  104 am   BACKBONE|DICT|INTERRES
   205  104  105 1    
   206  104  225 1    
   207  105  106 1    
   208  105  107 1    
   209  105  226 1    
   210  106  227 1    
   211  106  228 1    
   212  106  229 1    
   213  107  108 2    
   214  107  109 am   BACKBONE|DICT|INTERRES
   215  109  110 1    
   216  109  230 1    
   217  110  111 1    
   218  110  112 1    
   219  110  231 1    
   220  111  232 1    
   221  111  233 1    
   222  111  234 1    
   223  112  113 2    
   224  112  114 am   BACKBONE|DICT|INTERRES
   225  114  115 1    
   226  114  235 1    
   227  115  116 1    
   228  115  117 1    
   229  115  236 1    
   230  116  237 1    
   231  116  238 1    
   232  116  239 1    
   233  117  118 2    
   234  117  119 am   BACKBONE|DICT|INTERRES
   235  119  120 1    
   236  119  240 1    
   237  120  121 1    
   238  120  124 1    
   239  120  241 1    
   240  121  122 am   BACKBONE|DICT|INTERRES
   241  121  123 2    
   242  122  242 1    
   243  122  243 1    
   244  124  125 1    
   245  124  244 1    
   246  124  245 1    
   247  125  126 1    
   248  126  246 1    
   249  126  247 1    
@<TRIPOS>SUBSTRUCTURE
     1 UNK         1 GROUP             0       ****    0 ROOT    
