@<TRIPOS>MOLECULE
3R540
247   249    1
SMALL
USER_CHARGES


@<TRIPOS>ATOM
      1 CA          2.0540  -13.8977  -45.8159 C.3       0 UNK        -0.1800 
      2 C           1.4125  -15.2706  -45.6855 C.2       0 UNK         0.5000 
      3 O           0.9299  -15.6332  -44.6131 O.2       0 UNK        -0.5000 
      4 N           1.4063  -16.0340  -46.7848 N.am      1 UNK        -0.5000 
      5 CA          0.8388  -17.3859  -46.8561 C.3       1 UNK         0.1400 
      6 C6          1.2103  -18.1122  -48.1686 C.3       23 UNK        -0.0398 
      7 S7          3.0071  -18.3165  -48.3750 S.3       23 UNK        -0.2404 
      8 C8          3.1381  -18.5215  -50.1833 C.3       23 UNK        -0.0205 
      9 C9          2.2895  -19.6573  -50.7520 C.ar      23 UNK        -0.0193 
     10 C10         1.6660  -19.4915  -51.9911 C.ar      23 UNK        -0.1150 
     11 C11         0.8988  -20.5186  -52.5447 C.ar      23 UNK        -0.0193 
     12 C12         0.7428  -21.7177  -51.8424 C.ar      23 UNK        -0.1150 
     13 C13         1.3721  -21.9114  -50.6080 C.ar      23 UNK        -0.0193 
     14 C14         2.1454  -20.8735  -50.0739 C.ar      23 UNK        -0.1150 
     15 C15         1.1822  -23.2391  -49.8724 C.3       23 UNK        -0.0205 
     16 S16         2.6633  -23.8490  -48.9968 S.3       23 UNK        -0.2404 
     17 C17         2.4444  -23.0850  -47.3520 C.3       23 UNK        -0.0398 
     18 CA          2.1813  -24.1031  -46.2139 C.3       11 UNK         0.1400 
     19 N           2.4774  -23.4876  -44.9147 N.am      11 UNK        -0.5000 
     20 C           2.4505  -24.0949  -43.7171 C.2       10 UNK         0.5000 
     21 O           2.3685  -25.3150  -43.5754 O.2       10 UNK        -0.5000 
     22 CA          2.4602  -23.1864  -42.4642 C.3       10 UNK         0.1400 
     23 CB          3.8283  -23.2454  -41.7689 C.3       10 UNK        -0.1800 
     24 N           2.1261  -21.7825  -42.7365 N.am      10 UNK        -0.5000 
     25 C           0.9935  -21.3398  -43.3075 C.2       9 UNK         0.5000 
     26 O           0.0222  -22.0638  -43.5258 O.2       9 UNK        -0.5000 
     27 CA          0.9569  -19.8809  -43.8070 C.3       9 UNK         0.1400 
     28 CB         -0.0466  -19.0535  -43.0016 C.3       9 UNK        -0.1800 
     29 N           2.2523  -19.1978  -43.7970 N.am      9 UNK        -0.5000 
     30 C           3.3278  -19.5499  -44.5190 C.2       8 UNK         0.5000 
     31 O           3.3156  -20.4685  -45.3395 O.2       8 UNK        -0.5000 
     32 CA          4.6493  -18.8049  -44.2275 C.3       8 UNK         0.1400 
     33 CB          4.9327  -17.7562  -45.3116 C.3       8 UNK        -0.1800 
     34 N           4.6828  -18.1434  -42.9201 N.am      8 UNK        -0.5000 
     35 C           4.5523  -18.7437  -41.7276 C.2       7 UNK         0.5000 
     36 O           4.4550  -19.9633  -41.5893 O.2       7 UNK        -0.5000 
     37 CA          4.4624  -17.8279  -40.4884 C.3       7 UNK         0.1400 
     38 CB          5.7942  -17.8314  -39.7230 C.3       7 UNK        -0.1800 
     39 N           4.0872  -16.4388  -40.7854 N.am      7 UNK        -0.5000 
     40 C           2.9309  -16.0452  -41.3377 C.2       6 UNK         0.5000 
     41 O           2.0370  -16.8257  -41.6773 O.2       6 UNK        -0.5000 
     42 CA          2.7810  -14.5356  -41.5855 C.3       6 UNK         0.1400 
     43 CB          3.7966  -14.0393  -42.6309 C.3       6 UNK        -0.1800 
     44 N           1.4266  -14.2571  -42.0474 N.am      6 UNK        -0.5000 
     45 C           0.7290  -13.1397  -41.8177 C.2       5 UNK         0.5000 
     46 O           1.1926  -12.1510  -41.2474 O.2       5 UNK        -0.5000 
     47 CA         -0.7462  -13.1285  -42.2724 C.3       5 UNK         0.1400 
     48 CB         -0.8925  -12.5044  -43.6681 C.3       5 UNK        -0.1800 
     49 N          -1.3673  -14.4558  -42.2671 N.am      5 UNK        -0.5000 
     50 C          -1.6083  -15.1722  -41.1588 C.2       4 UNK         0.5000 
     51 O          -1.3842  -14.7541  -40.0211 O.2       4 UNK        -0.5000 
     52 CA         -2.1732  -16.5946  -41.3572 C.3       4 UNK         0.1400 
     53 CB         -2.8105  -17.1819  -40.0798 C.3       4 UNK        -0.1800 
     54 N          -3.0826  -16.7193  -42.5034 N.am      4 UNK        -0.5000 
     55 C          -4.2595  -16.0953  -42.6606 C.2       3 UNK         0.5000 
     56 O          -4.7368  -15.3165  -41.8332 O.2       3 UNK        -0.5000 
     57 CA         -5.0371  -16.4086  -43.9584 C.3       3 UNK         0.1400 
     58 CB         -6.0971  -15.3368  -44.2874 C.3       3 UNK        -0.1800 
     59 N          -4.2017  -16.6521  -45.1407 N.am      3 UNK        -0.5000 
     60 C          -3.2857  -15.8307  -45.6699 C.2       2 UNK         0.5000 
     61 O          -2.8562  -14.8168  -45.1165 O.2       2 UNK        -0.5000 
     62 CA         -2.8020  -16.1807  -47.0858 C.3       2 UNK         0.1400 
     63 CB         -3.2200  -15.0907  -48.0855 C.3       2 UNK        -0.1800 
     64 N          -1.3554  -16.3299  -47.1300 N.am      2 UNK        -0.5000 
     65 C          -0.6920  -17.4016  -46.6811 C.2       1 UNK         0.5000 
     66 O          -1.2346  -18.3827  -46.1741 O.2       1 UNK        -0.5000 
     67 C           0.7511  -24.7099  -46.2820 C.2       11 UNK         0.5000 
     68 O           0.5381  -25.6649  -47.0294 O.2       11 UNK        -0.5000 
     69 N          -0.1796  -24.1876  -45.4629 N.am      12 UNK        -0.5000 
     70 CA         -1.5069  -24.7323  -45.1541 C.3       12 UNK         0.1400 
     71 CB         -1.3762  -26.0753  -44.4049 C.3       12 UNK        -0.1800 
     72 C          -2.4609  -24.8033  -46.3638 C.2       12 UNK         0.5000 
     73 O          -3.1837  -25.7881  -46.5264 O.2       12 UNK        -0.5000 
     74 N          -2.4636  -23.7394  -47.1764 N.am      13 UNK        -0.5000 
     75 CA         -3.3170  -23.5907  -48.3601 C.3       13 UNK         0.1400 
     76 CB         -2.4324  -23.2579  -49.5715 C.3       13 UNK        -0.1800 
     77 C          -4.4358  -22.5485  -48.1529 C.2       13 UNK         0.5000 
     78 O          -4.9831  -22.0458  -49.1354 O.2       13 UNK        -0.5000 
     79 N          -4.7589  -22.2344  -46.8886 N.am      14 UNK        -0.5000 
     80 CA         -5.7838  -21.2838  -46.4411 C.3       14 UNK         0.1400 
     81 CB         -7.1996  -21.7975  -46.7874 C.3       14 UNK        -0.1800 
     82 C          -5.5005  -19.8557  -46.9481 C.2       14 UNK         0.5000 
     83 O          -4.6523  -19.1732  -46.3739 O.2       14 UNK        -0.5000 
     84 N          -6.1941  -19.4290  -48.0116 N.am      15 UNK        -0.5000 
     85 CA         -5.9716  -18.1477  -48.6851 C.3       15 UNK         0.1400 
     86 CB         -7.2939  -17.6595  -49.2970 C.3       15 UNK        -0.1800 
     87 C          -4.8256  -18.2020  -49.7216 C.2       15 UNK         0.5000 
     88 O          -4.4673  -17.1592  -50.2673 O.2       15 UNK        -0.5000 
     89 N          -4.2513  -19.3922  -49.9600 N.am      16 UNK        -0.5000 
     90 CA         -3.0354  -19.6646  -50.7317 C.3       16 UNK         0.1400 
     91 CB         -1.7992  -19.1429  -49.9667 C.3       16 UNK        -0.1800 
     92 C          -3.1290  -19.1713  -52.1863 C.2       16 UNK         0.5000 
     93 O          -3.8307  -19.7883  -52.9894 O.2       16 UNK        -0.5000 
     94 N          -2.4552  -18.0596  -52.5049 N.am      17 UNK        -0.5000 
     95 CA         -2.5172  -17.3988  -53.8088 C.3       17 UNK         0.1400 
     96 CB         -1.4977  -16.2515  -53.8418 C.3       17 UNK        -0.1800 
     97 C          -3.9302  -16.8905  -54.1581 C.2       17 UNK         0.5000 
     98 O          -4.3221  -16.9538  -55.3229 O.2       17 UNK        -0.5000 
     99 N          -4.6907  -16.4559  -53.1426 N.am      18 UNK        -0.5000 
    100 CA        -6.0862  -16.0334  -53.2785 C.3       18 UNK         0.1400 
    101 CB        -6.4180  -15.0105  -52.1817 C.3       18 UNK        -0.1800 
    102 C         -7.0759  -17.2176  -53.2797 C.2       18 UNK         0.5000 
    103 O         -8.2126  -17.0440  -53.7191 O.2       18 UNK        -0.5000 
    104 N         -6.6289  -18.4058  -52.8413 N.am      19 UNK        -0.5000 
    105 CA        -7.3484  -19.6748  -53.0126 C.3       19 UNK         0.1400 
    106 CB        -6.9380  -20.6656  -51.9062 C.3       19 UNK        -0.1800 
    107 C         -7.0907  -20.3017  -54.3989 C.2       19 UNK         0.5000 
    108 O         -7.7395  -21.2908  -54.7406 O.2       19 UNK        -0.5000 
    109 N         -6.1341  -19.7344  -55.1514 N.am      20 UNK        -0.5000 
    110 CA        -5.5973  -20.2019  -56.4307 C.3       20 UNK         0.1400 
    111 CB        -6.6797  -20.2015  -57.5300 C.3       20 UNK        -0.1800 
    112 C         -4.8539  -21.5483  -56.3092 C.2       20 UNK         0.5000 
    113 O         -4.7927  -22.3051  -57.2799 O.2       20 UNK        -0.5000 
    114 N         -4.2602  -21.8129  -55.1338 N.am      21 UNK        -0.5000 
    115 CA        -3.5129  -23.0390  -54.8280 C.3       21 UNK         0.1400 
    116 CB        -3.1784  -23.0607  -53.3289 C.3       21 UNK        -0.1800 
    117 C         -2.2332  -23.2051  -55.6726 C.2       21 UNK         0.5000 
    118 O         -1.7866  -24.3315  -55.8917 O.2       21 UNK        -0.5000 
    119 N         -1.6939  -22.0772  -56.1463 N.am      22 UNK        -0.5000 
    120 CA        -0.5694  -21.9857  -57.0872 C.3       22 UNK         0.1400 
    121 C         -1.0165  -21.9300  -58.5800 C.2       22 UNK         0.5000 
    122 N         -2.2984  -22.0447  -58.9108 N.am      22 UNK        -0.7600 
    123 O         -0.1787  -21.7963  -59.4677 O.2       22 UNK        -0.5000 
    124 C124        0.3594  -20.7999  -56.7154 C.3       23 UNK        -0.0398 
    125 S125        1.3015  -21.1250  -55.1880 S.3       23 UNK        -0.2404 
    126 C126        0.2645  -20.3438  -53.9142 C.3       23 UNK        -0.0205 
    127 H127        1.5979  -13.3369  -46.6316 H         1 UNK         0.0600 
    128 H128        3.1213  -13.9946  -46.0140 H         1 UNK         0.0600 
    129 H129        1.9298  -13.3217  -44.8993 H         1 UNK         0.0600 
    130 H130        1.8435  -15.6943  -47.6296 H         1 UNK         0.3000 
    131 H131        1.2591  -17.9540  -46.0273 H         1 UNK         0.0600 
    132 H132        0.8109  -17.5750  -49.0309 H         1 UNK         0.0800 
    133 H133        0.7654  -19.1090  -48.1912 H         1 UNK         0.0800 
    134 H134        4.1819  -18.7084  -50.4381 H         1 UNK         0.0800 
    135 H135        2.8701  -17.5746  -50.6545 H         1 UNK         0.0800 
    136 H136        1.7898  -18.5656  -52.5354 H         1 UNK         0.1150 
    137 H137        0.1466  -22.5101  -52.2731 H         1 UNK         0.1150 
    138 H138        2.6426  -21.0056  -49.1256 H         1 UNK         0.1150 
    139 H139        0.3632  -23.1393  -49.1622 H         1 UNK         0.0800 
    140 H140        0.8800  -24.0122  -50.5805 H         1 UNK         0.0800 
    141 H141        3.3714  -22.5457  -47.1505 H         1 UNK         0.0800 
    142 H142        1.6655  -22.3209  -47.3759 H         1 UNK         0.0800 
    143 H143        2.8838  -24.9312  -46.3280 H         1 UNK         0.0600 
    144 H144        2.6160  -22.4838  -44.9283 H         1 UNK         0.3000 
    145 H145        1.7068  -23.5768  -41.7775 H         1 UNK         0.0600 
    146 H146        3.8200  -22.6843  -40.8343 H         1 UNK         0.0600 
    147 H147        4.6163  -22.8324  -42.4001 H         1 UNK         0.0600 
    148 H148        4.1034  -24.2730  -41.5274 H         1 UNK         0.0600 
    149 H149        2.8664  -21.1127  -42.5618 H         1 UNK         0.3000 
    150 H150        0.6122  -19.9195  -44.8415 H         1 UNK         0.0600 
    151 H151       -1.0436  -19.4943  -43.0404 H         1 UNK         0.0600 
    152 H152       -0.1208  -18.0431  -43.4048 H         1 UNK         0.0600 
    153 H153        0.2474  -18.9830  -41.9537 H         1 UNK         0.0600 
    154 H154        2.3403  -18.4289  -43.1419 H         1 UNK         0.3000 
    155 H155        5.4521  -19.5446  -44.2433 H         1 UNK         0.0600 
    156 H156        5.0495  -18.2320  -46.2851 H         1 UNK         0.0600 
    157 H157        5.8562  -17.2134  -45.1095 H         1 UNK         0.0600 
    158 H158        4.1235  -17.0289  -45.3919 H         1 UNK         0.0600 
    159 H159        4.7541  -17.1373  -42.9299 H         1 UNK         0.3000 
    160 H160        3.6920  -18.2461  -39.8373 H         1 UNK         0.0600 
    161 H161        6.6003  -17.3985  -40.3168 H         1 UNK         0.0600 
    162 H162        6.0909  -18.8472  -39.4579 H         1 UNK         0.0600 
    163 H163        5.7180  -17.2652  -38.7945 H         1 UNK         0.0600 
    164 H164        4.7706  -15.7362  -40.5416 H         1 UNK         0.3000 
    165 H165        2.9522  -14.0236  -40.6364 H         1 UNK         0.0600 
    166 H166        3.6372  -12.9882  -42.8719 H         1 UNK         0.0600 
    167 H167        4.8193  -14.1320  -42.2646 H         1 UNK         0.0600 
    168 H168        3.7281  -14.6103  -43.5570 H         1 UNK         0.0600 
    169 H169        0.9866  -15.0254  -42.5452 H         1 UNK         0.3000 
    170 H170       -1.2944  -12.5001  -41.5673 H         1 UNK         0.0600 
    171 H171       -0.3919  -11.5370  -43.7236 H         1 UNK         0.0600 
    172 H172       -0.4675  -13.1436  -44.4412 H         1 UNK         0.0600 
    173 H173       -1.9419  -12.3428  -43.9152 H         1 UNK         0.0600 
    174 H174       -1.6108  -14.8443  -43.1703 H         1 UNK         0.3000 
    175 H175       -1.3053  -17.2077  -41.5823 H         1 UNK         0.0600 
    176 H176       -3.6486  -16.5796  -39.7286 H         1 UNK         0.0600 
    177 H177       -3.1729  -18.1956  -40.2506 H         1 UNK         0.0600 
    178 H178       -2.0836  -17.2327  -39.2683 H         1 UNK         0.0600 
    179 H179       -2.7700  -17.3181  -43.2549 H         1 UNK         0.3000 
    180 H180       -5.5658  -17.3436  -43.7683 H         1 UNK         0.0600 
    181 H181       -6.6569  -15.5985  -45.1854 H         1 UNK         0.0600 
    182 H182       -5.6422  -14.3588  -44.4488 H         1 UNK         0.0600 
    183 H183       -6.8197  -15.2337  -43.4771 H         1 UNK         0.0600 
    184 H184       -4.3985  -17.5233  -45.6321 H         1 UNK         0.3000 
    185 H185       -3.2518  -17.1226  -47.4028 H         1 UNK         0.0600 
    186 H186       -2.8157  -14.1147  -47.8139 H         1 UNK         0.0600 
    187 H187       -2.8758  -15.3249  -49.0929 H         1 UNK         0.0600 
    188 H188       -4.3059  -14.9975  -48.1274 H         1 UNK         0.0600 
    189 H189       -0.8276  -15.5429  -47.4764 H         1 UNK         0.3000 
    190 H190        0.0846  -23.3988  -44.8786 H         1 UNK         0.3000 
    191 H191       -1.9624  -24.0237  -44.4609 H         1 UNK         0.0600 
    192 H192       -2.3457  -26.4191  -44.0427 H         1 UNK         0.0600 
    193 H193       -0.7228  -25.9793  -43.5375 H         1 UNK         0.0600 
    194 H194       -0.9691  -26.8585  -45.0451 H         1 UNK         0.0600 
    195 H195       -1.8481  -22.9678  -46.9619 H         1 UNK         0.3000 
    196 H196       -3.8263  -24.5301  -48.5832 H         1 UNK         0.0600 
    197 H197       -1.8728  -22.3349  -49.4203 H         1 UNK         0.0600 
    198 H198       -3.0286  -23.1448  -50.4761 H         1 UNK         0.0600 
    199 H199       -1.7222  -24.0618  -49.7632 H         1 UNK         0.0600 
    200 H200       -4.2310  -22.6799  -46.1528 H         1 UNK         0.3000 
    201 H201       -5.7115  -21.2394  -45.3533 H         1 UNK         0.0600 
    202 H202       -7.3451  -21.9417  -47.8582 H         1 UNK         0.0600 
    203 H203       -7.9643  -21.1014  -46.4401 H         1 UNK         0.0600 
    204 H204       -7.3928  -22.7536  -46.3009 H         1 UNK         0.0600 
    205 H205       -6.8545  -20.0624  -48.4390 H         1 UNK         0.3000 
    206 H206       -5.6803  -17.4081  -47.9368 H         1 UNK         0.0600 
    207 H207       -8.0977  -17.6797  -48.5609 H         1 UNK         0.0600 
    208 H208       -7.2068  -16.6289  -49.6362 H         1 UNK         0.0600 
    209 H209       -7.6091  -18.2579  -50.1488 H         1 UNK         0.0600 
    210 H210       -4.6633  -20.2151  -49.5277 H         1 UNK         0.3000 
    211 H211       -2.9507  -20.7477  -50.7999 H         1 UNK         0.0600 
    212 H212       -1.7213  -19.6220  -48.9904 H         1 UNK         0.0600 
    213 H213       -1.8381  -18.0663  -49.7978 H         1 UNK         0.0600 
    214 H214       -0.8781  -19.3651  -50.5050 H         1 UNK         0.0600 
    215 H215       -1.9288  -17.5916  -51.7822 H         1 UNK         0.3000 
    216 H216       -2.2336  -18.1303  -54.5685 H         1 UNK         0.0600 
    217 H217       -1.5023  -15.7532  -54.8121 H         1 UNK         0.0600 
    218 H218       -0.4854  -16.6184  -53.6706 H         1 UNK         0.0600 
    219 H219       -1.7152  -15.4978  -53.0839 H         1 UNK         0.0600 
    220 H220       -4.3236  -16.4926  -52.1963 H         1 UNK         0.3000 
    221 H221       -6.2080  -15.5270  -54.2385 H         1 UNK         0.0600 
    222 H222       -7.4745  -14.7398  -52.1972 H         1 UNK         0.0600 
    223 H223       -6.1867  -15.3884  -51.1884 H         1 UNK         0.0600 
    224 H224       -5.8470  -14.0927  -52.3227 H         1 UNK         0.0600 
    225 H225       -5.6721  -18.4759  -52.5233 H         1 UNK         0.3000 
    226 H226       -8.4222  -19.4977  -52.9247 H         1 UNK         0.0600 
    227 H227       -7.1384  -20.2767  -50.9111 H         1 UNK         0.0600 
    228 H228       -7.4968  -21.5979  -51.9954 H         1 UNK         0.0600 
    229 H229       -5.8812  -20.9246  -51.9553 H         1 UNK         0.0600 
    230 H230       -5.6613  -18.9307  -54.7631 H         1 UNK         0.3000 
    231 H231       -4.8411  -19.4710  -56.7203 H         1 UNK         0.0600 
    232 H232       -6.2394  -20.3851  -58.5107 H         1 UNK         0.0600 
    233 H233       -7.1900  -19.2397  -57.5802 H         1 UNK         0.0600 
    234 H234       -7.4314  -20.9732  -57.3625 H         1 UNK         0.0600 
    235 H235       -4.3171  -21.1229  -54.3903 H         1 UNK         0.3000 
    236 H236       -4.1634  -23.8884  -55.0462 H         1 UNK         0.0600 
    237 H237       -2.5139  -22.2427  -53.0510 H         1 UNK         0.0600 
    238 H238       -4.0815  -22.9785  -52.7236 H         1 UNK         0.0600 
    239 H239       -2.6836  -23.9925  -53.0520 H         1 UNK         0.0600 
    240 H240       -2.1562  -21.2093  -55.9237 H         1 UNK         0.3000 
    241 H241        0.0231  -22.8995  -57.0127 H         1 UNK         0.0600 
    242 H242       -3.0205  -22.1974  -58.2159 H         1 UNK         0.3800 
    243 H243       -2.5540  -22.0134  -59.8851 H         1 UNK         0.3800 
    244 H244       -0.2048  -19.8707  -56.6217 H         1 UNK         0.0800 
    245 H245        1.0986  -20.6246  -57.4988 H         1 UNK         0.0800 
    246 H246       -0.7312  -20.7862  -53.9159 H         1 UNK         0.0800 
    247 H247        0.1368  -19.2850  -54.1443 H         1 UNK         0.0800 
@<TRIPOS>BOND
     1    1    2 1    
     2    1  127 1    
     3    1  128 1    
     4    1  129 1    
     5    2    3 2    
     6    2    4 am   BACKBONE|DICT|INTERRES
     7    4    5 1    
     8    4  130 1    
     9    5    6 1    
    10    5   65 1    
    11    5  131 1    
    12    6    7 1    
    13    6  132 1    
    14    6  133 1    
    15    7    8 1    
    16    8    9 1    
    17    8  134 1    
    18    8  135 1    
    19    9   10 ar   
    20    9   14 ar   
    21   10   11 ar   
    22   10  136 1    
    23   11   12 ar   
    24   11  126 1    
    25   12   13 ar   
    26   12  137 1    
    27   13   14 ar   
    28   13   15 1    
    29   14  138 1    
    30   15   16 1    
    31   15  139 1    
    32   15  140 1    
    33   16   17 1    
    34   17   18 1    
    35   17  141 1    
    36   17  142 1    
    37   18   19 1    
    38   18   67 1    
    39   18  143 1    
    40   19   20 am   BACKBONE|DICT|INTERRES
    41   19  144 1    
    42   20   21 2    
    43   20   22 1    
    44   22   23 1    
    45   22   24 1    
    46   22  145 1    
    47   23  146 1    
    48   23  147 1    
    49   23  148 1    
    50   24   25 am   BACKBONE|DICT|INTERRES
    51   24  149 1    
    52   25   26 2    
    53   25   27 1    
    54   27   28 1    
    55   27   29 1    
    56   27  150 1    
    57   28  151 1    
    58   28  152 1    
    59   28  153 1    
    60   29   30 am   BACKBONE|DICT|INTERRES
    61   29  154 1    
    62   30   31 2    
    63   30   32 1    
    64   32   33 1    
    65   32   34 1    
    66   32  155 1    
    67   33  156 1    
    68   33  157 1    
    69   33  158 1    
    70   34   35 am   BACKBONE|DICT|INTERRES
    71   34  159 1    
    72   35   36 2    
    73   35   37 1    
    74   37   38 1    
    75   37   39 1    
    76   37  160 1    
    77   38  161 1    
    78   38  162 1    
    79   38  163 1    
    80   39   40 am   BACKBONE|DICT|INTERRES
    81   39  164 1    
    82   40   41 2    
    83   40   42 1    
    84   42   43 1    
    85   42   44 1    
    86   42  165 1    
    87   43  166 1    
    88   43  167 1    
    89   43  168 1    
    90   44   45 am   BACKBONE|DICT|INTERRES
    91   44  169 1    
    92   45   46 2    
    93   45   47 1    
    94   47   48 1    
    95   47   49 1    
    96   47  170 1    
    97   48  171 1    
    98   48  172 1    
    99   48  173 1    
   100   49   50 am   BACKBONE|DICT|INTERRES
   101   49  174 1    
   102   50   51 2    
   103   50   52 1    
   104   52   53 1    
   105   52   54 1    
   106   52  175 1    
   107   53  176 1    
   108   53  177 1    
   109   53  178 1    
   110   54   55 am   BACKBONE|DICT|INTERRES
   111   54  179 1    
   112   55   56 2    
   113   55   57 1    
   114   57   58 1    
   115   57   59 1    
   116   57  180 1    
   117   58  181 1    
   118   58  182 1    
   119   58  183 1    
   120   59   60 am   BACKBONE|DICT|INTERRES
   121   59  184 1    
   122   60   61 2    
   123   60   62 1    
   124   62   63 1    
   125   62   64 1    
   126   62  185 1    
   127   63  186 1    
   128   63  187 1    
   129   63  188 1    
   130   64   65 am   BACKBONE|DICT|INTERRES
   131   64  189 1    
   132   65   66 2    
   133   67   68 2    
   134   67   69 am   BACKBONE|DICT|INTERRES
   135   69   70 1    
   136   69  190 1    
   137   70   71 1    
   138   70   72 1    
   139   70  191 1    
   140   71  192 1    
   141   71  193 1    
   142   71  194 1    
   143   72   73 2    
   144   72   74 am   BACKBONE|DICT|INTERRES
   145   74   75 1    
   146   74  195 1    
   147   75   76 1    
   148   75   77 1    
   149   75  196 1    
   150   76  197 1    
   151   76  198 1    
   152   76  199 1    
   153   77   78 2    
   154   77   79 am   BACKBONE|DICT|INTERRES
   155   79   80 1    
   156   79  200 1    
   157   80   81 1    
   158   80   82 1    
   159   80  201 1    
   160   81  202 1    
   161   81  203 1    
   162   81  204 1    
   163   82   83 2    
   164   82   84 am   BACKBONE|DICT|INTERRES
   165   84   85 1    
   166   84  205 1    
   167   85   86 1    
   168   85   87 1    
   169   85  206 1    
   170   86  207 1    
   171   86  208 1    
   172   86  209 1    
   173   87   88 2    
   174   87   89 am   BACKBONE|DICT|INTERRES
   175   89   90 1    
   176   89  210 1    
   177   90   91 1    
   178   90   92 1    
   179   90  211 1    
   180   91  212 1    
   181   91  213 1    
   182   91  214 1    
   183   92   93 2    
   184   92   94 am   BACKBONE|DICT|INTERRES
   185   94   95 1    
   186   94  215 1    
   187   95   96 1    
   188   95   97 1    
   189   95  216 1    
   190   96  217 1    
   191   96  218 1    
   192   96  219 1    
   193   97   98 2    
   194   97   99 am   BACKBONE|DICT|INTERRES
   195   99  100 1    
   196   99  220 1    
   197  100  101 1    
   198  100  102 1    
   199  100  221 1    
   200  101  222 1    
   201  101  223 1    
   202  101  224 1    
   203  102  103 2    
   204  102  104 am   BACKBONE|DICT|INTERRES
   205  104  105 1    
   206  104  225 1    
   207  105  106 1    
   208  105  107 1    
   209  105  226 1    
   210  106  227 1    
   211  106  228 1    
   212  106  229 1    
   213  107  108 2    
   214  107  109 am   BACKBONE|DICT|INTERRES
   215  109  110 1    
   216  109  230 1    
   217  110  111 1    
   218  110  112 1    
   219  110  231 1    
   220  111  232 1    
   221  111  233 1    
   222  111  234 1    
   223  112  113 2    
   224  112  114 am   BACKBONE|DICT|INTERRES
   225  114  115 1    
   226  114  235 1    
   227  115  116 1    
   228  115  117 1    
   229  115  236 1    
   230  116  237 1    
   231  116  238 1    
   232  116  239 1    
   233  117  118 2    
   234  117  119 am   BACKBONE|DICT|INTERRES
   235  119  120 1    
   236  119  240 1    
   237  120  121 1    
   238  120  124 1    
   239  120  241 1    
   240  121  122 am   BACKBONE|DICT|INTERRES
   241  121  123 2    
   242  122  242 1    
   243  122  243 1    
   244  124  125 1    
   245  124  244 1    
   246  124  245 1    
   247  125  126 1    
   248  126  246 1    
   249  126  247 1    
@<TRIPOS>SUBSTRUCTURE
     1 UNK         1 GROUP             0       ****    0 ROOT    
