@<TRIPOS>MOLECULE
3R540
247   249    1
SMALL
USER_CHARGES


@<TRIPOS>ATOM
      1 CA          3.5304  -10.1155  -52.2087 C.3       0 UNK        -0.1800 
      2 C           3.4397  -10.2816  -50.6985 C.2       0 UNK         0.5000 
      3 O           3.1115   -9.3258  -49.9955 O.2       0 UNK        -0.5000 
      4 N           3.7312  -11.4895  -50.1994 N.am      1 UNK        -0.5000 
      5 CA          3.6713  -11.8575  -48.7784 C.3       1 UNK         0.1400 
      6 C6          4.4841  -13.1443  -48.4783 C.3       23 UNK        -0.0398 
      7 S7          4.1235  -14.5569  -49.5825 S.3       23 UNK        -0.2404 
      8 C8          3.1707  -15.6497  -48.4863 C.3       23 UNK        -0.0205 
      9 C9          2.7341  -16.9117  -49.2113 C.ar      23 UNK        -0.0193 
     10 C10         1.6926  -16.8560  -50.1417 C.ar      23 UNK        -0.1150 
     11 C11         1.2755  -18.0084  -50.8131 C.ar      23 UNK        -0.0193 
     12 C12         1.9079  -19.2255  -50.5452 C.ar      23 UNK        -0.1150 
     13 C13         2.9519  -19.2948  -49.6159 C.ar      23 UNK        -0.0193 
     14 C14         3.3610  -18.1341  -48.9524 C.ar      23 UNK        -0.1150 
     15 C15         3.6444  -20.6225  -49.3367 C.3       23 UNK        -0.0205 
     16 S16         3.1234  -21.3551  -47.7521 S.3       23 UNK        -0.2404 
     17 C17         1.3226  -21.4678  -47.9976 C.3       23 UNK        -0.0398 
     18 CA          0.6524  -22.6078  -47.1999 C.3       11 UNK         0.1400 
     19 N           0.9017  -22.5196  -45.7598 N.am      11 UNK        -0.5000 
     20 C           0.5548  -23.4374  -44.8490 C.2       10 UNK         0.5000 
     21 O           0.0298  -24.5117  -45.1456 O.2       10 UNK        -0.5000 
     22 CA          0.7491  -23.0614  -43.3642 C.3       10 UNK         0.1400 
     23 CB          1.1663  -24.2659  -42.4963 C.3       10 UNK        -0.1800 
     24 N           1.6310  -21.9063  -43.1530 N.am      10 UNK        -0.5000 
     25 C           2.9530  -21.8240  -43.3689 C.2       9 UNK         0.5000 
     26 O           3.6464  -22.7709  -43.7410 O.2       9 UNK        -0.5000 
     27 CA          3.6192  -20.4471  -43.1612 C.3       9 UNK         0.1400 
     28 CB          4.0962  -19.8757  -44.5060 C.3       9 UNK        -0.1800 
     29 N           2.7460  -19.4589  -42.5250 N.am      9 UNK        -0.5000 
     30 C           2.4451  -19.4131  -41.2210 C.2       8 UNK         0.5000 
     31 O           2.9073  -20.1891  -40.3843 O.2       8 UNK        -0.5000 
     32 CA          1.4266  -18.3395  -40.7879 C.3       8 UNK         0.1400 
     33 CB          2.1219  -16.9898  -40.5545 C.3       8 UNK        -0.1800 
     34 N           0.3310  -18.1651  -41.7465 N.am      8 UNK        -0.5000 
     35 C          -0.5746  -19.1084  -42.0445 C.2       7 UNK         0.5000 
     36 O          -0.5856  -20.2311  -41.5400 O.2       7 UNK        -0.5000 
     37 CA         -1.6153  -18.7595  -43.1211 C.3       7 UNK         0.1400 
     38 CB         -2.7361  -17.8810  -42.5471 C.3       7 UNK        -0.1800 
     39 N          -1.0143  -18.1008  -44.2784 N.am      7 UNK        -0.5000 
     40 C          -0.1720  -18.6926  -45.1352 C.2       6 UNK         0.5000 
     41 O           0.1078  -19.8892  -45.0933 O.2       6 UNK        -0.5000 
     42 CA          0.4842  -17.7989  -46.2030 C.3       6 UNK         0.1400 
     43 CB         -0.4442  -17.6552  -47.4155 C.3       6 UNK        -0.1800 
     44 N           0.8379  -16.4756  -45.6864 N.am      6 UNK        -0.5000 
     45 C           1.7192  -16.2649  -44.6974 C.2       5 UNK         0.5000 
     46 O           2.3590  -17.1610  -44.1513 O.2       5 UNK        -0.5000 
     47 CA          1.8822  -14.8221  -44.1979 C.3       5 UNK         0.1400 
     48 CB          2.9285  -14.0787  -45.0314 C.3       5 UNK        -0.1800 
     49 N           0.6160  -14.0940  -44.2280 N.am      5 UNK        -0.5000 
     50 C          -0.3769  -14.2980  -43.3518 C.2       4 UNK         0.5000 
     51 O          -0.3034  -15.0853  -42.4069 O.2       4 UNK        -0.5000 
     52 CA         -1.6856  -13.5283  -43.6082 C.3       4 UNK         0.1400 
     53 CB         -1.5625  -12.0695  -43.1432 C.3       4 UNK        -0.1800 
     54 N          -2.0865  -13.5589  -45.0165 N.am      4 UNK        -0.5000 
     55 C          -2.4347  -14.6719  -45.6771 C.2       3 UNK         0.5000 
     56 O          -2.4842  -15.7840  -45.1548 O.2       3 UNK        -0.5000 
     57 CA         -2.7557  -14.5345  -47.1770 C.3       3 UNK         0.1400 
     58 CB         -4.2644  -14.3369  -47.3848 C.3       3 UNK        -0.1800 
     59 N          -2.0301  -13.4648  -47.8676 N.am      3 UNK        -0.5000 
     60 C          -0.6975  -13.3593  -47.9683 C.2       2 UNK         0.5000 
     61 O           0.0877  -14.1171  -47.3938 O.2       2 UNK        -0.5000 
     62 CA         -0.1948  -12.2281  -48.8907 C.3       2 UNK         0.1400 
     63 CB         -0.6911  -10.8423  -48.4230 C.3       2 UNK        -0.1800 
     64 N           1.2571  -12.2146  -49.1083 N.am      2 UNK        -0.5000 
     65 C           2.2258  -11.9158  -48.2284 C.2       1 UNK         0.5000 
     66 O           2.0237  -11.6373  -47.0458 O.2       1 UNK        -0.5000 
     67 C          -0.8575  -22.6055  -47.4975 C.2       11 UNK         0.5000 
     68 O          -1.3007  -23.3301  -48.3860 O.2       11 UNK        -0.5000 
     69 N          -1.6233  -21.8188  -46.7254 N.am      12 UNK        -0.5000 
     70 CA         -3.0820  -21.7444  -46.8173 C.3       12 UNK         0.1400 
     71 CB         -3.5980  -20.6014  -45.9312 C.3       12 UNK        -0.1800 
     72 C          -3.7744  -23.0682  -46.4497 C.2       12 UNK         0.5000 
     73 O          -4.7884  -23.4065  -47.0586 O.2       12 UNK        -0.5000 
     74 N          -3.1957  -23.8004  -45.4877 N.am      13 UNK        -0.5000 
     75 CA         -3.6410  -25.1316  -45.0813 C.3       13 UNK         0.1400 
     76 CB         -3.0830  -25.4591  -43.6876 C.3       13 UNK        -0.1800 
     77 C          -3.2343  -26.2048  -46.1056 C.2       13 UNK         0.5000 
     78 O          -4.0409  -27.0837  -46.4071 O.2       13 UNK        -0.5000 
     79 N          -2.0092  -26.0983  -46.6423 N.am      14 UNK        -0.5000 
     80 CA         -1.4674  -26.9905  -47.6703 C.3       14 UNK         0.1400 
     81 CB          0.0306  -26.7075  -47.8587 C.3       14 UNK        -0.1800 
     82 C          -2.2182  -26.8840  -49.0113 C.2       14 UNK         0.5000 
     83 O          -2.5344  -27.9101  -49.6145 O.2       14 UNK        -0.5000 
     84 N          -2.5168  -25.6482  -49.4366 N.am      15 UNK        -0.5000 
     85 CA         -3.3296  -25.3460  -50.6174 C.3       15 UNK         0.1400 
     86 CB         -3.1189  -23.8740  -51.0089 C.3       15 UNK        -0.1800 
     87 C          -4.8294  -25.6189  -50.3963 C.2       15 UNK         0.5000 
     88 O          -5.5637  -25.7776  -51.3719 O.2       15 UNK        -0.5000 
     89 N          -5.2577  -25.6269  -49.1258 N.am      16 UNK        -0.5000 
     90 CA         -6.6098  -25.8064  -48.5830 C.3       16 UNK         0.1400 
     91 CB         -7.2048  -27.1682  -48.9856 C.3       16 UNK        -0.1800 
     92 C          -7.5784  -24.6527  -48.9051 C.2       16 UNK         0.5000 
     93 O          -8.3029  -24.2002  -48.0182 O.2       16 UNK        -0.5000 
     94 N          -7.5608  -24.1709  -50.1518 N.am      17 UNK        -0.5000 
     95 CA         -8.3911  -23.0924  -50.6850 C.3       17 UNK         0.1400 
     96 CB         -8.5020  -23.2770  -52.2098 C.3       17 UNK        -0.1800 
     97 C          -7.8764  -21.6889  -50.2974 C.2       17 UNK         0.5000 
     98 O          -7.7854  -20.8143  -51.1573 O.2       17 UNK        -0.5000 
     99 N          -7.5305  -21.4934  -49.0167 N.am      18 UNK        -0.5000 
    100 CA        -7.1488  -20.2218  -48.3839 C.3       18 UNK         0.1400 
    101 CB        -8.3979  -19.3346  -48.2058 C.3       18 UNK        -0.1800 
    102 C         -5.9892  -19.4752  -49.0856 C.2       18 UNK         0.5000 
    103 O         -5.9922  -18.2448  -49.1426 O.2       18 UNK        -0.5000 
    104 N         -5.0261  -20.2455  -49.6134 N.am      19 UNK        -0.5000 
    105 CA        -3.8376  -19.8011  -50.3542 C.3       19 UNK         0.1400 
    106 CB        -2.9437  -18.8829  -49.4946 C.3       19 UNK        -0.1800 
    107 C         -4.1386  -19.1957  -51.7435 C.2       19 UNK         0.5000 
    108 O         -3.2855  -18.4976  -52.2965 O.2       19 UNK        -0.5000 
    109 N         -5.3048  -19.5198  -52.3280 N.am      20 UNK        -0.5000 
    110 CA        -5.7207  -19.0945  -53.6733 C.3       20 UNK         0.1400 
    111 CB        -7.1812  -19.5023  -53.9175 C.3       20 UNK        -0.1800 
    112 C         -4.8244  -19.6100  -54.8196 C.2       20 UNK         0.5000 
    113 O         -4.9120  -19.0888  -55.9318 O.2       20 UNK        -0.5000 
    114 N         -3.9487  -20.5837  -54.5291 N.am      21 UNK        -0.5000 
    115 CA        -2.9009  -21.1000  -55.4143 C.3       21 UNK         0.1400 
    116 CB        -2.1441  -22.2182  -54.6803 C.3       21 UNK        -0.1800 
    117 C         -1.9152  -20.0239  -55.9220 C.2       21 UNK         0.5000 
    118 O         -1.3469  -20.1940  -57.0015 O.2       21 UNK        -0.5000 
    119 N         -1.7560  -18.9301  -55.1630 N.am      22 UNK        -0.5000 
    120 CA        -1.0379  -17.7176  -55.5895 C.3       22 UNK         0.1400 
    121 C         -1.8165  -16.8284  -56.6082 C.2       22 UNK         0.5000 
    122 N         -3.0803  -17.0893  -56.9208 N.am      22 UNK        -0.7600 
    123 O         -1.2519  -15.8780  -57.1432 O.2       22 UNK        -0.5000 
    124 C124       -0.5628  -16.8800  -54.3749 C.3       23 UNK        -0.0398 
    125 S125        0.8380  -17.6557  -53.5014 S.3       23 UNK        -0.2404 
    126 C126        0.1562  -17.9281  -51.8390 C.3       23 UNK        -0.0205 
    127 H127        2.5625   -9.8176  -52.6120 H         1 UNK         0.0600 
    128 H128        4.2576   -9.3429  -52.4583 H         1 UNK         0.0600 
    129 H129        3.8339  -11.0398  -52.7010 H         1 UNK         0.0600 
    130 H130        4.0013  -12.2367  -50.8244 H         1 UNK         0.3000 
    131 H131        4.1591  -11.0511  -48.2260 H         1 UNK         0.0600 
    132 H132        4.3822  -13.4411  -47.4349 H         1 UNK         0.0800 
    133 H133        5.5443  -12.9185  -48.6000 H         1 UNK         0.0800 
    134 H134        2.2883  -15.1225  -48.1296 H         1 UNK         0.0800 
    135 H135        3.7655  -15.8983  -47.6060 H         1 UNK         0.0800 
    136 H136        1.2111  -15.9099  -50.3462 H         1 UNK         0.1150 
    137 H137        1.5922  -20.1161  -51.0699 H         1 UNK         0.1150 
    138 H138        4.1663  -18.1860  -48.2330 H         1 UNK         0.1150 
    139 H139        3.4524  -21.3335  -50.1418 H         1 UNK         0.0800 
    140 H140        4.7245  -20.4707  -49.3172 H         1 UNK         0.0800 
    141 H141        1.1284  -21.6075  -49.0625 H         1 UNK         0.0800 
    142 H142        0.8937  -20.5018  -47.7308 H         1 UNK         0.0800 
    143 H143        1.0620  -23.5573  -47.5488 H         1 UNK         0.0600 
    144 H144        1.2337  -21.6243  -45.4232 H         1 UNK         0.3000 
    145 H145       -0.2332  -22.7401  -43.0157 H         1 UNK         0.0600 
    146 H146        1.2946  -23.9749  -41.4538 H         1 UNK         0.0600 
    147 H147        0.4060  -25.0473  -42.5227 H         1 UNK         0.0600 
    148 H148        2.0996  -24.7122  -42.8397 H         1 UNK         0.0600 
    149 H149        1.1602  -21.0628  -42.8514 H         1 UNK         0.3000 
    150 H150        4.4936  -20.6008  -42.5257 H         1 UNK         0.0600 
    151 H151        4.7660  -20.5688  -45.0165 H         1 UNK         0.0600 
    152 H152        4.6407  -18.9416  -44.3668 H         1 UNK         0.0600 
    153 H153        3.2577  -19.6755  -45.1742 H         1 UNK         0.0600 
    154 H154        2.3831  -18.7266  -43.1315 H         1 UNK         0.3000 
    155 H155        0.9889  -18.6623  -39.8411 H         1 UNK         0.0600 
    156 H156        2.5916  -16.6156  -41.4639 H         1 UNK         0.0600 
    157 H157        2.9011  -17.0792  -39.7967 H         1 UNK         0.0600 
    158 H158        1.4150  -16.2356  -40.2080 H         1 UNK         0.0600 
    159 H159        0.2585  -17.2610  -42.1972 H         1 UNK         0.3000 
    160 H160       -2.0601  -19.6965  -43.4567 H         1 UNK         0.0600 
    161 H161       -3.5184  -17.7116  -43.2873 H         1 UNK         0.0600 
    162 H162       -2.3635  -16.9073  -42.2279 H         1 UNK         0.0600 
    163 H163       -3.2024  -18.3558  -41.6830 H         1 UNK         0.0600 
    164 H164       -1.2753  -17.1323  -44.4382 H         1 UNK         0.3000 
    165 H165        1.4089  -18.2781  -46.5313 H         1 UNK         0.0600 
    166 H166       -0.1320  -16.8439  -48.0712 H         1 UNK         0.0600 
    167 H167       -0.4421  -18.5699  -48.0069 H         1 UNK         0.0600 
    168 H168       -1.4744  -17.4638  -47.1168 H         1 UNK         0.0600 
    169 H169        0.3897  -15.6746  -46.1192 H         1 UNK         0.3000 
    170 H170        2.2388  -14.8596  -43.1666 H         1 UNK         0.0600 
    171 H171        3.8900  -14.5933  -45.0076 H         1 UNK         0.0600 
    172 H172        2.6133  -14.0115  -46.0701 H         1 UNK         0.0600 
    173 H173        3.0868  -13.0659  -44.6608 H         1 UNK         0.0600 
    174 H174        0.4644  -13.4768  -45.0144 H         1 UNK         0.3000 
    175 H175       -2.4727  -14.0081  -43.0225 H         1 UNK         0.0600 
    176 H176       -2.5114  -11.5425  -43.2441 H         1 UNK         0.0600 
    177 H177       -1.2737  -12.0184  -42.0925 H         1 UNK         0.0600 
    178 H178       -0.8125  -11.5236  -43.7171 H         1 UNK         0.0600 
    179 H179       -2.0648  -12.6857  -45.5217 H         1 UNK         0.3000 
    180 H180       -2.4751  -15.4720  -47.6581 H         1 UNK         0.0600 
    181 H181       -4.6087  -13.3916  -46.9634 H         1 UNK         0.0600 
    182 H182       -4.8325  -15.1366  -46.9072 H         1 UNK         0.0600 
    183 H183       -4.5225  -14.3484  -48.4440 H         1 UNK         0.0600 
    184 H184       -2.6030  -12.7997  -48.3663 H         1 UNK         0.3000 
    185 H185       -0.6297  -12.4202  -49.8726 H         1 UNK         0.0600 
    186 H186       -0.3989  -10.6306  -47.3940 H         1 UNK         0.0600 
    187 H187       -0.2905  -10.0480  -49.0532 H         1 UNK         0.0600 
    188 H188       -1.7777  -10.7697  -48.4721 H         1 UNK         0.0600 
    189 H189        1.5523  -12.4454  -50.0458 H         1 UNK         0.3000 
    190 H190       -1.1681  -21.2428  -46.0255 H         1 UNK         0.3000 
    191 H191       -3.3340  -21.5232  -47.8544 H         1 UNK         0.0600 
    192 H192       -3.4553  -20.8224  -44.8739 H         1 UNK         0.0600 
    193 H193       -4.6650  -20.4415  -46.0864 H         1 UNK         0.0600 
    194 H194       -3.0937  -19.6602  -46.1505 H         1 UNK         0.0600 
    195 H195       -2.3449  -23.4591  -45.0675 H         1 UNK         0.3000 
    196 H196       -4.7314  -25.1273  -45.0149 H         1 UNK         0.0600 
    197 H197       -3.4372  -26.4329  -43.3471 H         1 UNK         0.0600 
    198 H198       -3.4034  -24.7218  -42.9514 H         1 UNK         0.0600 
    199 H199       -1.9933  -25.4881  -43.6807 H         1 UNK         0.0600 
    200 H200       -1.3837  -25.3809  -46.2907 H         1 UNK         0.3000 
    201 H201       -1.5744  -28.0156  -47.3095 H         1 UNK         0.0600 
    202 H202        0.5746  -26.8158  -46.9201 H         1 UNK         0.0600 
    203 H203        0.2061  -25.6993  -48.2330 H         1 UNK         0.0600 
    204 H204        0.4714  -27.4034  -48.5735 H         1 UNK         0.0600 
    205 H205       -2.1562  -24.8483  -48.9194 H         1 UNK         0.3000 
    206 H206       -2.9935  -25.9751  -51.4441 H         1 UNK         0.0600 
    207 H207       -2.0694  -23.6680  -51.2203 H         1 UNK         0.0600 
    208 H208       -3.6873  -23.6196  -51.9045 H         1 UNK         0.0600 
    209 H209       -3.4382  -23.2006  -50.2128 H         1 UNK         0.0600 
    210 H210       -4.5613  -25.4273  -48.4213 H         1 UNK         0.3000 
    211 H211       -6.4861  -25.8127  -47.4987 H         1 UNK         0.0600 
    212 H212       -7.3816  -27.2375  -50.0591 H         1 UNK         0.0600 
    213 H213       -8.1604  -27.3359  -48.4875 H         1 UNK         0.0600 
    214 H214       -6.5415  -27.9850  -48.7005 H         1 UNK         0.0600 
    215 H215       -6.9185  -24.6148  -50.8029 H         1 UNK         0.3000 
    216 H216       -9.3948  -23.1866  -50.2658 H         1 UNK         0.0600 
    217 H217       -9.1674  -22.5333  -52.6503 H         1 UNK         0.0600 
    218 H218       -8.9061  -24.2582  -52.4597 H         1 UNK         0.0600 
    219 H219       -7.5307  -23.1810  -52.6970 H         1 UNK         0.0600 
    220 H220       -7.6297  -22.2872  -48.3922 H         1 UNK         0.3000 
    221 H221       -6.7828  -20.4773  -47.3888 H         1 UNK         0.0600 
    222 H222       -8.7976  -19.0064  -49.1660 H         1 UNK         0.0600 
    223 H223       -9.1887  -19.8682  -47.6785 H         1 UNK         0.0600 
    224 H224       -8.1682  -18.4420  -47.6227 H         1 UNK         0.0600 
    225 H225       -5.1494  -21.2451  -49.5373 H         1 UNK         0.3000 
    226 H226       -3.2618  -20.7058  -50.5527 H         1 UNK         0.0600 
    227 H227       -2.7472  -19.3197  -48.5180 H         1 UNK         0.0600 
    228 H228       -1.9778  -18.7209  -49.9712 H         1 UNK         0.0600 
    229 H229       -3.3931  -17.9020  -49.3385 H         1 UNK         0.0600 
    230 H230       -5.9855  -20.0625  -51.8061 H         1 UNK         0.3000 
    231 H231       -5.6677  -18.0044  -53.7004 H         1 UNK         0.0600 
    232 H232       -7.8455  -19.0433  -53.1852 H         1 UNK         0.0600 
    233 H233       -7.3107  -20.5837  -53.8615 H         1 UNK         0.0600 
    234 H234       -7.5211  -19.1817  -54.9031 H         1 UNK         0.0600 
    235 H235       -3.9604  -20.9506  -53.5902 H         1 UNK         0.3000 
    236 H236       -3.3921  -21.5309  -56.2889 H         1 UNK         0.0600 
    237 H237       -1.3669  -22.6462  -55.3149 H         1 UNK         0.0600 
    238 H238       -1.6616  -21.8494  -53.7741 H         1 UNK         0.0600 
    239 H239       -2.8141  -23.0306  -54.3983 H         1 UNK         0.0600 
    240 H240       -2.2577  -18.8666  -54.2858 H         1 UNK         0.3000 
    241 H241       -0.1455  -18.0387  -56.1304 H         1 UNK         0.0600 
    242 H242       -3.5485  -16.4977  -57.5886 H         1 UNK         0.3800 
    243 H243       -3.5869  -17.8703  -56.5142 H         1 UNK         0.3800 
    244 H244       -0.2133  -15.8949  -54.6895 H         1 UNK         0.0800 
    245 H245       -1.3934  -16.6967  -53.6915 H         1 UNK         0.0800 
    246 H246       -0.5275  -17.1207  -51.5722 H         1 UNK         0.0800 
    247 H247       -0.4319  -18.8468  -51.8389 H         1 UNK         0.0800 
@<TRIPOS>BOND
     1    1    2 1    
     2    1  127 1    
     3    1  128 1    
     4    1  129 1    
     5    2    3 2    
     6    2    4 am   BACKBONE|DICT|INTERRES
     7    4    5 1    
     8    4  130 1    
     9    5    6 1    
    10    5   65 1    
    11    5  131 1    
    12    6    7 1    
    13    6  132 1    
    14    6  133 1    
    15    7    8 1    
    16    8    9 1    
    17    8  134 1    
    18    8  135 1    
    19    9   10 ar   
    20    9   14 ar   
    21   10   11 ar   
    22   10  136 1    
    23   11   12 ar   
    24   11  126 1    
    25   12   13 ar   
    26   12  137 1    
    27   13   14 ar   
    28   13   15 1    
    29   14  138 1    
    30   15   16 1    
    31   15  139 1    
    32   15  140 1    
    33   16   17 1    
    34   17   18 1    
    35   17  141 1    
    36   17  142 1    
    37   18   19 1    
    38   18   67 1    
    39   18  143 1    
    40   19   20 am   BACKBONE|DICT|INTERRES
    41   19  144 1    
    42   20   21 2    
    43   20   22 1    
    44   22   23 1    
    45   22   24 1    
    46   22  145 1    
    47   23  146 1    
    48   23  147 1    
    49   23  148 1    
    50   24   25 am   BACKBONE|DICT|INTERRES
    51   24  149 1    
    52   25   26 2    
    53   25   27 1    
    54   27   28 1    
    55   27   29 1    
    56   27  150 1    
    57   28  151 1    
    58   28  152 1    
    59   28  153 1    
    60   29   30 am   BACKBONE|DICT|INTERRES
    61   29  154 1    
    62   30   31 2    
    63   30   32 1    
    64   32   33 1    
    65   32   34 1    
    66   32  155 1    
    67   33  156 1    
    68   33  157 1    
    69   33  158 1    
    70   34   35 am   BACKBONE|DICT|INTERRES
    71   34  159 1    
    72   35   36 2    
    73   35   37 1    
    74   37   38 1    
    75   37   39 1    
    76   37  160 1    
    77   38  161 1    
    78   38  162 1    
    79   38  163 1    
    80   39   40 am   BACKBONE|DICT|INTERRES
    81   39  164 1    
    82   40   41 2    
    83   40   42 1    
    84   42   43 1    
    85   42   44 1    
    86   42  165 1    
    87   43  166 1    
    88   43  167 1    
    89   43  168 1    
    90   44   45 am   BACKBONE|DICT|INTERRES
    91   44  169 1    
    92   45   46 2    
    93   45   47 1    
    94   47   48 1    
    95   47   49 1    
    96   47  170 1    
    97   48  171 1    
    98   48  172 1    
    99   48  173 1    
   100   49   50 am   BACKBONE|DICT|INTERRES
   101   49  174 1    
   102   50   51 2    
   103   50   52 1    
   104   52   53 1    
   105   52   54 1    
   106   52  175 1    
   107   53  176 1    
   108   53  177 1    
   109   53  178 1    
   110   54   55 am   BACKBONE|DICT|INTERRES
   111   54  179 1    
   112   55   56 2    
   113   55   57 1    
   114   57   58 1    
   115   57   59 1    
   116   57  180 1    
   117   58  181 1    
   118   58  182 1    
   119   58  183 1    
   120   59   60 am   BACKBONE|DICT|INTERRES
   121   59  184 1    
   122   60   61 2    
   123   60   62 1    
   124   62   63 1    
   125   62   64 1    
   126   62  185 1    
   127   63  186 1    
   128   63  187 1    
   129   63  188 1    
   130   64   65 am   BACKBONE|DICT|INTERRES
   131   64  189 1    
   132   65   66 2    
   133   67   68 2    
   134   67   69 am   BACKBONE|DICT|INTERRES
   135   69   70 1    
   136   69  190 1    
   137   70   71 1    
   138   70   72 1    
   139   70  191 1    
   140   71  192 1    
   141   71  193 1    
   142   71  194 1    
   143   72   73 2    
   144   72   74 am   BACKBONE|DICT|INTERRES
   145   74   75 1    
   146   74  195 1    
   147   75   76 1    
   148   75   77 1    
   149   75  196 1    
   150   76  197 1    
   151   76  198 1    
   152   76  199 1    
   153   77   78 2    
   154   77   79 am   BACKBONE|DICT|INTERRES
   155   79   80 1    
   156   79  200 1    
   157   80   81 1    
   158   80   82 1    
   159   80  201 1    
   160   81  202 1    
   161   81  203 1    
   162   81  204 1    
   163   82   83 2    
   164   82   84 am   BACKBONE|DICT|INTERRES
   165   84   85 1    
   166   84  205 1    
   167   85   86 1    
   168   85   87 1    
   169   85  206 1    
   170   86  207 1    
   171   86  208 1    
   172   86  209 1    
   173   87   88 2    
   174   87   89 am   BACKBONE|DICT|INTERRES
   175   89   90 1    
   176   89  210 1    
   177   90   91 1    
   178   90   92 1    
   179   90  211 1    
   180   91  212 1    
   181   91  213 1    
   182   91  214 1    
   183   92   93 2    
   184   92   94 am   BACKBONE|DICT|INTERRES
   185   94   95 1    
   186   94  215 1    
   187   95   96 1    
   188   95   97 1    
   189   95  216 1    
   190   96  217 1    
   191   96  218 1    
   192   96  219 1    
   193   97   98 2    
   194   97   99 am   BACKBONE|DICT|INTERRES
   195   99  100 1    
   196   99  220 1    
   197  100  101 1    
   198  100  102 1    
   199  100  221 1    
   200  101  222 1    
   201  101  223 1    
   202  101  224 1    
   203  102  103 2    
   204  102  104 am   BACKBONE|DICT|INTERRES
   205  104  105 1    
   206  104  225 1    
   207  105  106 1    
   208  105  107 1    
   209  105  226 1    
   210  106  227 1    
   211  106  228 1    
   212  106  229 1    
   213  107  108 2    
   214  107  109 am   BACKBONE|DICT|INTERRES
   215  109  110 1    
   216  109  230 1    
   217  110  111 1    
   218  110  112 1    
   219  110  231 1    
   220  111  232 1    
   221  111  233 1    
   222  111  234 1    
   223  112  113 2    
   224  112  114 am   BACKBONE|DICT|INTERRES
   225  114  115 1    
   226  114  235 1    
   227  115  116 1    
   228  115  117 1    
   229  115  236 1    
   230  116  237 1    
   231  116  238 1    
   232  116  239 1    
   233  117  118 2    
   234  117  119 am   BACKBONE|DICT|INTERRES
   235  119  120 1    
   236  119  240 1    
   237  120  121 1    
   238  120  124 1    
   239  120  241 1    
   240  121  122 am   BACKBONE|DICT|INTERRES
   241  121  123 2    
   242  122  242 1    
   243  122  243 1    
   244  124  125 1    
   245  124  244 1    
   246  124  245 1    
   247  125  126 1    
   248  126  246 1    
   249  126  247 1    
@<TRIPOS>SUBSTRUCTURE
     1 UNK         1 GROUP             0       ****    0 ROOT    
