@<TRIPOS>MOLECULE
3R540
247   249    1
SMALL
USER_CHARGES


@<TRIPOS>ATOM
      1 CA         -0.2357  -12.4486  -53.8174 C.3       0 UNK        -0.1800 
      2 C           0.4780  -11.6614  -52.7272 C.2       0 UNK         0.5000 
      3 O           0.3601  -10.4365  -52.6764 O.2       0 UNK        -0.5000 
      4 N           1.2258  -12.3593  -51.8649 N.am      1 UNK        -0.5000 
      5 CA          1.9146  -11.8019  -50.6973 C.3       1 UNK         0.1400 
      6 C6          3.0103  -12.7691  -50.1737 C.3       23 UNK        -0.0398 
      7 S7          2.4314  -14.4579  -49.7647 S.3       23 UNK        -0.2404 
      8 C8          4.0415  -15.2734  -49.4932 C.3       23 UNK        -0.0205 
      9 C9          3.9685  -16.7959  -49.4178 C.ar      23 UNK        -0.0193 
     10 C10         3.2753  -17.5220  -50.3921 C.ar      23 UNK        -0.1150 
     11 C11         3.3302  -18.9174  -50.4126 C.ar      23 UNK        -0.0193 
     12 C12         4.0941  -19.5882  -49.4565 C.ar      23 UNK        -0.1150 
     13 C13         4.7658  -18.8853  -48.4524 C.ar      23 UNK        -0.0193 
     14 C14         4.6905  -17.4868  -48.4355 C.ar      23 UNK        -0.1150 
     15 C15         5.6395  -19.6306  -47.4453 C.3       23 UNK        -0.0205 
     16 S16         4.6879  -20.4949  -46.1485 S.3       23 UNK        -0.2404 
     17 C17         3.9774  -21.8932  -47.0825 C.3       23 UNK        -0.0398 
     18 CA          3.6679  -23.1542  -46.2355 C.3       11 UNK         0.1400 
     19 N           2.8185  -22.8756  -45.0780 N.am      11 UNK        -0.5000 
     20 C           2.7996  -23.5887  -43.9441 C.2       10 UNK         0.5000 
     21 O           3.5150  -24.5715  -43.7468 O.2       10 UNK        -0.5000 
     22 CA          1.8319  -23.1289  -42.8346 C.3       10 UNK         0.1400 
     23 CB          2.5875  -22.3374  -41.7561 C.3       10 UNK        -0.1800 
     24 N           0.7434  -22.3047  -43.3617 N.am      10 UNK        -0.5000 
     25 C          -0.3840  -22.8053  -43.8892 C.2       9 UNK         0.5000 
     26 O          -0.6834  -23.9980  -43.8348 O.2       9 UNK        -0.5000 
     27 CA         -1.3360  -21.8258  -44.6087 C.3       9 UNK         0.1400 
     28 CB         -2.5250  -21.4707  -43.7032 C.3       9 UNK        -0.1800 
     29 N          -0.6932  -20.5901  -45.0598 N.am      9 UNK        -0.5000 
     30 C           0.3098  -20.5176  -45.9454 C.2       8 UNK         0.5000 
     31 O           0.7346  -21.4950  -46.5575 O.2       8 UNK        -0.5000 
     32 CA          0.9891  -19.1489  -46.1412 C.3       8 UNK         0.1400 
     33 CB          0.4945  -18.4719  -47.4247 C.3       8 UNK        -0.1800 
     34 N           0.8120  -18.2456  -45.0006 N.am      8 UNK        -0.5000 
     35 C           1.2943  -18.4649  -43.7692 C.2       7 UNK         0.5000 
     36 O           1.9697  -19.4503  -43.4726 O.2       7 UNK        -0.5000 
     37 CA          0.8864  -17.4689  -42.6701 C.3       7 UNK         0.1400 
     38 CB          1.6557  -16.1443  -42.7554 C.3       7 UNK        -0.1800 
     39 N          -0.5550  -17.2144  -42.6940 N.am      7 UNK        -0.5000 
     40 C          -1.4491  -18.0219  -42.1101 C.2       6 UNK         0.5000 
     41 O          -1.1338  -19.0093  -41.4455 O.2       6 UNK        -0.5000 
     42 CA         -2.9448  -17.6867  -42.2708 C.3       6 UNK         0.1400 
     43 CB         -3.4668  -16.9733  -41.0140 C.3       6 UNK        -0.1800 
     44 N          -3.3039  -16.8871  -43.4455 N.am      6 UNK        -0.5000 
     45 C          -3.1697  -17.2649  -44.7242 C.2       5 UNK         0.5000 
     46 O          -2.5498  -18.2698  -45.0713 O.2       5 UNK        -0.5000 
     47 CA         -3.8678  -16.3951  -45.7901 C.3       5 UNK         0.1400 
     48 CB         -4.8316  -15.3387  -45.2125 C.3       5 UNK        -0.1800 
     49 N          -2.8640  -15.7171  -46.5988 N.am      5 UNK        -0.5000 
     50 C          -2.4771  -16.0830  -47.8242 C.2       4 UNK         0.5000 
     51 O          -3.0283  -16.9674  -48.4813 O.2       4 UNK        -0.5000 
     52 CA         -1.2815  -15.3376  -48.4579 C.3       4 UNK         0.1400 
     53 CB         -1.7631  -14.5508  -49.6872 C.3       4 UNK        -0.1800 
     54 N          -0.4802  -14.4381  -47.6089 N.am      4 UNK        -0.5000 
     55 C           0.1042  -14.7170  -46.4316 C.2       3 UNK         0.5000 
     56 O          -0.1275  -15.7327  -45.7788 O.2       3 UNK        -0.5000 
     57 CA          1.1324  -13.7157  -45.8662 C.3       3 UNK         0.1400 
     58 CB          2.5377  -14.3431  -45.8526 C.3       3 UNK        -0.1800 
     59 N           1.2087  -12.4559  -46.5992 N.am      3 UNK        -0.5000 
     60 C           0.3615  -11.4251  -46.4871 C.2       2 UNK         0.5000 
     61 O          -0.5929  -11.4041  -45.7099 O.2       2 UNK        -0.5000 
     62 CA          0.6223  -10.2224  -47.4216 C.3       2 UNK         0.1400 
     63 CB          1.3702   -9.1102  -46.6707 C.3       2 UNK        -0.1800 
     64 N           1.3813  -10.5797  -48.6286 N.am      2 UNK        -0.5000 
     65 C           0.9230  -11.4030  -49.5818 C.2       1 UNK         0.5000 
     66 O          -0.2113  -11.8823  -49.5560 O.2       1 UNK        -0.5000 
     67 C           3.0258  -24.2258  -47.1379 C.2       11 UNK         0.5000 
     68 O           3.7174  -25.1578  -47.5514 O.2       11 UNK        -0.5000 
     69 N           1.7328  -24.0574  -47.4493 N.am      12 UNK        -0.5000 
     70 CA          0.9924  -24.8664  -48.4148 C.3       12 UNK         0.1400 
     71 CB          0.7589  -24.0357  -49.6840 C.3       12 UNK        -0.1800 
     72 C          -0.3484  -25.3405  -47.8394 C.2       12 UNK         0.5000 
     73 O          -0.9606  -24.6507  -47.0200 O.2       12 UNK        -0.5000 
     74 N          -0.7794  -26.5131  -48.3190 N.am      13 UNK        -0.5000 
     75 CA         -1.9974  -27.2191  -47.9276 C.3       13 UNK         0.1400 
     76 CB         -1.9817  -28.6061  -48.5922 C.3       13 UNK        -0.1800 
     77 C          -3.3004  -26.4724  -48.2740 C.2       13 UNK         0.5000 
     78 O          -3.3021  -25.5328  -49.0763 O.2       13 UNK        -0.5000 
     79 N          -4.3945  -26.9331  -47.6488 N.am      14 UNK        -0.5000 
     80 CA         -5.7687  -26.4338  -47.7823 C.3       14 UNK         0.1400 
     81 CB         -6.3245  -26.7454  -49.1879 C.3       14 UNK        -0.1800 
     82 C          -5.9034  -24.9466  -47.3983 C.2       14 UNK         0.5000 
     83 O          -6.6849  -24.2209  -48.0114 O.2       14 UNK        -0.5000 
     84 N          -5.1062  -24.5194  -46.4076 N.am      15 UNK        -0.5000 
     85 CA         -4.9560  -23.1448  -45.9258 C.3       15 UNK         0.1400 
     86 CB         -6.2217  -22.6883  -45.1712 C.3       15 UNK        -0.1800 
     87 C          -4.5420  -22.1762  -47.0518 C.2       15 UNK         0.5000 
     88 O          -5.2298  -21.1844  -47.2937 O.2       15 UNK        -0.5000 
     89 N          -3.4491  -22.5187  -47.7511 N.am      16 UNK        -0.5000 
     90 CA         -2.9050  -21.8107  -48.9163 C.3       16 UNK         0.1400 
     91 CB         -2.4214  -20.3998  -48.5265 C.3       16 UNK        -0.1800 
     92 C          -3.8957  -21.7823  -50.0969 C.2       16 UNK         0.5000 
     93 O          -4.0707  -20.7362  -50.7278 O.2       16 UNK        -0.5000 
     94 N          -4.5307  -22.9360  -50.3542 N.am      17 UNK        -0.5000 
     95 CA         -5.5849  -23.1531  -51.3514 C.3       17 UNK         0.1400 
     96 CB         -5.0098  -23.0380  -52.7787 C.3       17 UNK        -0.1800 
     97 C          -6.8145  -22.2475  -51.1152 C.2       17 UNK         0.5000 
     98 O          -7.2958  -21.5997  -52.0444 O.2       17 UNK        -0.5000 
     99 N          -7.2864  -22.2208  -49.8609 N.am      18 UNK        -0.5000 
    100 CA        -8.3618  -21.3836  -49.3236 C.3       18 UNK         0.1400 
    101 CB        -9.7198  -21.7453  -49.9613 C.3       18 UNK        -0.1800 
    102 C         -8.0237  -19.8806  -49.4013 C.2       18 UNK         0.5000 
    103 O         -8.8192  -19.0883  -49.9103 O.2       18 UNK        -0.5000 
    104 N         -6.8382  -19.5297  -48.8814 N.am      19 UNK        -0.5000 
    105 CA        -6.2521  -18.1893  -48.8019 C.3       19 UNK         0.1400 
    106 CB        -7.0278  -17.3204  -47.7899 C.3       19 UNK        -0.1800 
    107 C         -6.0878  -17.5159  -50.1804 C.2       19 UNK         0.5000 
    108 O         -6.4108  -16.3368  -50.3384 O.2       19 UNK        -0.5000 
    109 N         -5.6000  -18.2865  -51.1595 N.am      20 UNK        -0.5000 
    110 CA        -5.4415  -17.8778  -52.5545 C.3       20 UNK         0.1400 
    111 CB        -6.2358  -18.8437  -53.4494 C.3       20 UNK        -0.1800 
    112 C         -3.9555  -17.8173  -52.9466 C.2       20 UNK         0.5000 
    113 O         -3.6165  -18.1052  -54.0964 O.2       20 UNK        -0.5000 
    114 N         -3.0880  -17.4672  -51.9830 N.am      21 UNK        -0.5000 
    115 CA        -1.6326  -17.3252  -52.1245 C.3       21 UNK         0.1400 
    116 CB        -1.2898  -16.0814  -52.9723 C.3       21 UNK        -0.1800 
    117 C         -0.9572  -18.6078  -52.6514 C.2       21 UNK         0.5000 
    118 O         -0.0713  -18.5390  -53.5048 O.2       21 UNK        -0.5000 
    119 N         -1.4230  -19.7543  -52.1406 N.am      22 UNK        -0.5000 
    120 CA        -0.9947  -21.1152  -52.5038 C.3       22 UNK         0.1400 
    121 C         -1.5551  -21.6232  -53.8668 C.2       22 UNK         0.5000 
    122 N         -2.4136  -20.8854  -54.5625 N.am      22 UNK        -0.7600 
    123 O         -1.2273  -22.7274  -54.2919 O.2       22 UNK        -0.5000 
    124 C124        0.5371  -21.3667  -52.3743 C.3       23 UNK        -0.0398 
    125 S125        1.2709  -20.7278  -50.8254 S.3       23 UNK        -0.2404 
    126 C126        2.6143  -19.7015  -51.4996 C.3       23 UNK        -0.0205 
    127 H127       -0.0438  -12.0014  -54.7928 H         1 UNK         0.0600 
    128 H128       -1.3115  -12.4408  -53.6420 H         1 UNK         0.0600 
    129 H129        0.0976  -13.4860  -53.8507 H         1 UNK         0.0600 
    130 H130        1.2599  -13.3657  -51.9368 H         1 UNK         0.3000 
    131 H131        2.4131  -10.8847  -51.0186 H         1 UNK         0.0600 
    132 H132        3.7830  -12.8582  -50.9387 H         1 UNK         0.0800 
    133 H133        3.5167  -12.3511  -49.3022 H         1 UNK         0.0800 
    134 H134        4.7118  -15.0179  -50.3148 H         1 UNK         0.0800 
    135 H135        4.4966  -14.8645  -48.5903 H         1 UNK         0.0800 
    136 H136        2.7227  -16.9973  -51.1587 H         1 UNK         0.1150 
    137 H137        4.1688  -20.6632  -49.5125 H         1 UNK         0.1150 
    138 H138        5.2397  -16.9332  -47.6869 H         1 UNK         0.1150 
    139 H139        6.2766  -20.3441  -47.9698 H         1 UNK         0.0800 
    140 H140        6.3194  -18.9312  -46.9566 H         1 UNK         0.0800 
    141 H141        4.6804  -22.1666  -47.8709 H         1 UNK         0.0800 
    142 H142        3.0808  -21.5302  -47.5864 H         1 UNK         0.0800 
    143 H143        4.6211  -23.5486  -45.8763 H         1 UNK         0.0600 
    144 H144        2.1568  -22.1200  -45.1937 H         1 UNK         0.3000 
    145 H145        1.4161  -24.0219  -42.3633 H         1 UNK         0.0600 
    146 H146        1.9127  -21.9900  -40.9736 H         1 UNK         0.0600 
    147 H147        3.3469  -22.9586  -41.2796 H         1 UNK         0.0600 
    148 H148        3.0949  -21.4675  -42.1740 H         1 UNK         0.0600 
    149 H149        0.9224  -21.3084  -43.4233 H         1 UNK         0.3000 
    150 H150       -1.7135  -22.3399  -45.4936 H         1 UNK         0.0600 
    151 H151       -3.0333  -22.3673  -43.3477 H         1 UNK         0.0600 
    152 H152       -3.2592  -20.8616  -44.2311 H         1 UNK         0.0600 
    153 H153       -2.2025  -20.9213  -42.8210 H         1 UNK         0.0600 
    154 H154       -1.0589  -19.7209  -44.6877 H         1 UNK         0.3000 
    155 H155        2.0577  -19.3299  -46.2550 H         1 UNK         0.0600 
    156 H156        0.6276  -19.1245  -48.2881 H         1 UNK         0.0600 
    157 H157        1.0499  -17.5556  -47.6252 H         1 UNK         0.0600 
    158 H158       -0.5645  -18.2252  -47.3565 H         1 UNK         0.0600 
    159 H159        0.2830  -17.3949  -45.1825 H         1 UNK         0.3000 
    160 H160        1.1570  -17.9255  -41.7152 H         1 UNK         0.0600 
    161 H161        1.2645  -15.5044  -43.5411 H         1 UNK         0.0600 
    162 H162        2.7165  -16.3094  -42.9486 H         1 UNK         0.0600 
    163 H163        1.5777  -15.5916  -41.8191 H         1 UNK         0.0600 
    164 H164       -0.8836  -16.4436  -43.2577 H         1 UNK         0.3000 
    165 H165       -3.4716  -18.6391  -42.3588 H         1 UNK         0.0600 
    166 H166       -4.5474  -16.8356  -41.0569 H         1 UNK         0.0600 
    167 H167       -3.2519  -17.5532  -40.1152 H         1 UNK         0.0600 
    168 H168       -3.0065  -15.9924  -40.8892 H         1 UNK         0.0600 
    169 H169       -3.8111  -16.0347  -43.2575 H         1 UNK         0.3000 
    170 H170       -4.4543  -17.0785  -46.4055 H         1 UNK         0.0600 
    171 H171       -5.6061  -15.8019  -44.5996 H         1 UNK         0.0600 
    172 H172       -4.3138  -14.5965  -44.6037 H         1 UNK         0.0600 
    173 H173       -5.3402  -14.8028  -46.0141 H         1 UNK         0.0600 
    174 H174       -2.2860  -15.0403  -46.1217 H         1 UNK         0.3000 
    175 H175       -0.6019  -16.1140  -48.8120 H         1 UNK         0.0600 
    176 H176       -2.2789  -13.6350  -49.3969 H         1 UNK         0.0600 
    177 H177       -0.9263  -14.2817  -50.3315 H         1 UNK         0.0600 
    178 H178       -2.4603  -15.1276  -50.2943 H         1 UNK         0.0600 
    179 H179       -0.2471  -13.5532  -48.0415 H         1 UNK         0.3000 
    180 H180        0.8395  -13.5046  -44.8360 H         1 UNK         0.0600 
    181 H181        3.2314  -13.7390  -45.2680 H         1 UNK         0.0600 
    182 H182        2.9431  -14.4364  -46.8578 H         1 UNK         0.0600 
    183 H183        2.5370  -15.3448  -45.4229 H         1 UNK         0.0600 
    184 H184        1.9608  -12.3757  -47.2660 H         1 UNK         0.3000 
    185 H185       -0.3491   -9.8327  -47.7334 H         1 UNK         0.0600 
    186 H186        0.8196   -8.8010  -45.7812 H         1 UNK         0.0600 
    187 H187        2.3592   -9.4371  -46.3472 H         1 UNK         0.0600 
    188 H188        1.4954   -8.2263  -47.2965 H         1 UNK         0.0600 
    189 H189        2.3142  -10.1992  -48.7025 H         1 UNK         0.3000 
    190 H190        1.2215  -23.2729  -47.0501 H         1 UNK         0.3000 
    191 H191        1.5709  -25.7523  -48.6849 H         1 UNK         0.0600 
    192 H192        1.7043  -23.7487  -50.1446 H         1 UNK         0.0600 
    193 H193        0.1897  -24.5946  -50.4279 H         1 UNK         0.0600 
    194 H194        0.2045  -23.1244  -49.4605 H         1 UNK         0.0600 
    195 H195       -0.2240  -26.9710  -49.0263 H         1 UNK         0.3000 
    196 H196       -1.9648  -27.3498  -46.8440 H         1 UNK         0.0600 
    197 H197       -2.8429  -29.2034  -48.2902 H         1 UNK         0.0600 
    198 H198       -1.0901  -29.1681  -48.3130 H         1 UNK         0.0600 
    199 H199       -2.0030  -28.5292  -49.6802 H         1 UNK         0.0600 
    200 H200       -4.2837  -27.7095  -47.0110 H         1 UNK         0.3000 
    201 H201       -6.3723  -26.9856  -47.0603 H         1 UNK         0.0600 
    202 H202       -6.2604  -27.8112  -49.4070 H         1 UNK         0.0600 
    203 H203       -5.7800  -26.2128  -49.9671 H         1 UNK         0.0600 
    204 H204       -7.3747  -26.4625  -49.2688 H         1 UNK         0.0600 
    205 H205       -4.4913  -25.1997  -45.9841 H         1 UNK         0.3000 
    206 H206       -4.1334  -23.1662  -45.2139 H         1 UNK         0.0600 
    207 H207       -6.4644  -23.3729  -44.3586 H         1 UNK         0.0600 
    208 H208       -6.0769  -21.7007  -44.7314 H         1 UNK         0.0600 
    209 H209       -7.0890  -22.6286  -45.8296 H         1 UNK         0.0600 
    210 H210       -2.9687  -23.3767  -47.5080 H         1 UNK         0.3000 
    211 H211       -2.0382  -22.3841  -49.2448 H         1 UNK         0.0600 
    212 H212       -3.2513  -19.7167  -48.3468 H         1 UNK         0.0600 
    213 H213       -1.7994  -19.9631  -49.3075 H         1 UNK         0.0600 
    214 H214       -1.8299  -20.4293  -47.6182 H         1 UNK         0.0600 
    215 H215       -4.2917  -23.7423  -49.7867 H         1 UNK         0.3000 
    216 H216       -5.9311  -24.1782  -51.2184 H         1 UNK         0.0600 
    217 H217       -5.7578  -23.3100  -53.5241 H         1 UNK         0.0600 
    218 H218       -4.1573  -23.7032  -52.9159 H         1 UNK         0.0600 
    219 H219       -4.6805  -22.0235  -53.0035 H         1 UNK         0.0600 
    220 H220       -6.8567  -22.8424  -49.1776 H         1 UNK         0.3000 
    221 H221       -8.4269  -21.6260  -48.2617 H         1 UNK         0.0600 
    222 H222       -9.7546  -21.4916  -51.0211 H         1 UNK         0.0600 
    223 H223       -9.9285  -22.8107  -49.8639 H         1 UNK         0.0600 
    224 H224      -10.5334  -21.2091  -49.4717 H         1 UNK         0.0600 
    225 H225       -6.2676  -20.2603  -48.4573 H         1 UNK         0.3000 
    226 H226       -5.2460  -18.3315  -48.4093 H         1 UNK         0.0600 
    227 H227       -7.0696  -17.7990  -46.8115 H         1 UNK         0.0600 
    228 H228       -6.5454  -16.3517  -47.6568 H         1 UNK         0.0600 
    229 H229       -8.0507  -17.1328  -48.1172 H         1 UNK         0.0600 
    230 H230       -5.2958  -19.2323  -50.9405 H         1 UNK         0.3000 
    231 H231       -5.8443  -16.8754  -52.7101 H         1 UNK         0.0600 
    232 H232       -5.8066  -19.8459  -53.4315 H         1 UNK         0.0600 
    233 H233       -6.2412  -18.5067  -54.4865 H         1 UNK         0.0600 
    234 H234       -7.2745  -18.9180  -53.1265 H         1 UNK         0.0600 
    235 H235       -3.4596  -17.2990  -51.0571 H         1 UNK         0.3000 
    236 H236       -1.2369  -17.1663  -51.1206 H         1 UNK         0.0600 
    237 H237       -1.7969  -15.1905  -52.6037 H         1 UNK         0.0600 
    238 H238       -0.2185  -15.8789  -52.9478 H         1 UNK         0.0600 
    239 H239       -1.5741  -16.2144  -54.0167 H         1 UNK         0.0600 
    240 H240       -2.2104  -19.7088  -51.5065 H         1 UNK         0.3000 
    241 H241       -1.4714  -21.7567  -51.7638 H         1 UNK         0.0600 
    242 H242       -2.7685  -21.2396  -55.4359 H         1 UNK         0.3800 
    243 H243       -2.6903  -19.9617  -54.2512 H         1 UNK         0.3800 
    244 H244        0.7423  -22.4375  -52.4150 H         1 UNK         0.0800 
    245 H245        1.0599  -20.9364  -53.2296 H         1 UNK         0.0800 
    246 H246        3.3323  -20.3412  -52.0146 H         1 UNK         0.0800 
    247 H247        2.2105  -19.0221  -52.2508 H         1 UNK         0.0800 
@<TRIPOS>BOND
     1    1    2 1    
     2    1  127 1    
     3    1  128 1    
     4    1  129 1    
     5    2    3 2    
     6    2    4 am   BACKBONE|DICT|INTERRES
     7    4    5 1    
     8    4  130 1    
     9    5    6 1    
    10    5   65 1    
    11    5  131 1    
    12    6    7 1    
    13    6  132 1    
    14    6  133 1    
    15    7    8 1    
    16    8    9 1    
    17    8  134 1    
    18    8  135 1    
    19    9   10 ar   
    20    9   14 ar   
    21   10   11 ar   
    22   10  136 1    
    23   11   12 ar   
    24   11  126 1    
    25   12   13 ar   
    26   12  137 1    
    27   13   14 ar   
    28   13   15 1    
    29   14  138 1    
    30   15   16 1    
    31   15  139 1    
    32   15  140 1    
    33   16   17 1    
    34   17   18 1    
    35   17  141 1    
    36   17  142 1    
    37   18   19 1    
    38   18   67 1    
    39   18  143 1    
    40   19   20 am   BACKBONE|DICT|INTERRES
    41   19  144 1    
    42   20   21 2    
    43   20   22 1    
    44   22   23 1    
    45   22   24 1    
    46   22  145 1    
    47   23  146 1    
    48   23  147 1    
    49   23  148 1    
    50   24   25 am   BACKBONE|DICT|INTERRES
    51   24  149 1    
    52   25   26 2    
    53   25   27 1    
    54   27   28 1    
    55   27   29 1    
    56   27  150 1    
    57   28  151 1    
    58   28  152 1    
    59   28  153 1    
    60   29   30 am   BACKBONE|DICT|INTERRES
    61   29  154 1    
    62   30   31 2    
    63   30   32 1    
    64   32   33 1    
    65   32   34 1    
    66   32  155 1    
    67   33  156 1    
    68   33  157 1    
    69   33  158 1    
    70   34   35 am   BACKBONE|DICT|INTERRES
    71   34  159 1    
    72   35   36 2    
    73   35   37 1    
    74   37   38 1    
    75   37   39 1    
    76   37  160 1    
    77   38  161 1    
    78   38  162 1    
    79   38  163 1    
    80   39   40 am   BACKBONE|DICT|INTERRES
    81   39  164 1    
    82   40   41 2    
    83   40   42 1    
    84   42   43 1    
    85   42   44 1    
    86   42  165 1    
    87   43  166 1    
    88   43  167 1    
    89   43  168 1    
    90   44   45 am   BACKBONE|DICT|INTERRES
    91   44  169 1    
    92   45   46 2    
    93   45   47 1    
    94   47   48 1    
    95   47   49 1    
    96   47  170 1    
    97   48  171 1    
    98   48  172 1    
    99   48  173 1    
   100   49   50 am   BACKBONE|DICT|INTERRES
   101   49  174 1    
   102   50   51 2    
   103   50   52 1    
   104   52   53 1    
   105   52   54 1    
   106   52  175 1    
   107   53  176 1    
   108   53  177 1    
   109   53  178 1    
   110   54   55 am   BACKBONE|DICT|INTERRES
   111   54  179 1    
   112   55   56 2    
   113   55   57 1    
   114   57   58 1    
   115   57   59 1    
   116   57  180 1    
   117   58  181 1    
   118   58  182 1    
   119   58  183 1    
   120   59   60 am   BACKBONE|DICT|INTERRES
   121   59  184 1    
   122   60   61 2    
   123   60   62 1    
   124   62   63 1    
   125   62   64 1    
   126   62  185 1    
   127   63  186 1    
   128   63  187 1    
   129   63  188 1    
   130   64   65 am   BACKBONE|DICT|INTERRES
   131   64  189 1    
   132   65   66 2    
   133   67   68 2    
   134   67   69 am   BACKBONE|DICT|INTERRES
   135   69   70 1    
   136   69  190 1    
   137   70   71 1    
   138   70   72 1    
   139   70  191 1    
   140   71  192 1    
   141   71  193 1    
   142   71  194 1    
   143   72   73 2    
   144   72   74 am   BACKBONE|DICT|INTERRES
   145   74   75 1    
   146   74  195 1    
   147   75   76 1    
   148   75   77 1    
   149   75  196 1    
   150   76  197 1    
   151   76  198 1    
   152   76  199 1    
   153   77   78 2    
   154   77   79 am   BACKBONE|DICT|INTERRES
   155   79   80 1    
   156   79  200 1    
   157   80   81 1    
   158   80   82 1    
   159   80  201 1    
   160   81  202 1    
   161   81  203 1    
   162   81  204 1    
   163   82   83 2    
   164   82   84 am   BACKBONE|DICT|INTERRES
   165   84   85 1    
   166   84  205 1    
   167   85   86 1    
   168   85   87 1    
   169   85  206 1    
   170   86  207 1    
   171   86  208 1    
   172   86  209 1    
   173   87   88 2    
   174   87   89 am   BACKBONE|DICT|INTERRES
   175   89   90 1    
   176   89  210 1    
   177   90   91 1    
   178   90   92 1    
   179   90  211 1    
   180   91  212 1    
   181   91  213 1    
   182   91  214 1    
   183   92   93 2    
   184   92   94 am   BACKBONE|DICT|INTERRES
   185   94   95 1    
   186   94  215 1    
   187   95   96 1    
   188   95   97 1    
   189   95  216 1    
   190   96  217 1    
   191   96  218 1    
   192   96  219 1    
   193   97   98 2    
   194   97   99 am   BACKBONE|DICT|INTERRES
   195   99  100 1    
   196   99  220 1    
   197  100  101 1    
   198  100  102 1    
   199  100  221 1    
   200  101  222 1    
   201  101  223 1    
   202  101  224 1    
   203  102  103 2    
   204  102  104 am   BACKBONE|DICT|INTERRES
   205  104  105 1    
   206  104  225 1    
   207  105  106 1    
   208  105  107 1    
   209  105  226 1    
   210  106  227 1    
   211  106  228 1    
   212  106  229 1    
   213  107  108 2    
   214  107  109 am   BACKBONE|DICT|INTERRES
   215  109  110 1    
   216  109  230 1    
   217  110  111 1    
   218  110  112 1    
   219  110  231 1    
   220  111  232 1    
   221  111  233 1    
   222  111  234 1    
   223  112  113 2    
   224  112  114 am   BACKBONE|DICT|INTERRES
   225  114  115 1    
   226  114  235 1    
   227  115  116 1    
   228  115  117 1    
   229  115  236 1    
   230  116  237 1    
   231  116  238 1    
   232  116  239 1    
   233  117  118 2    
   234  117  119 am   BACKBONE|DICT|INTERRES
   235  119  120 1    
   236  119  240 1    
   237  120  121 1    
   238  120  124 1    
   239  120  241 1    
   240  121  122 am   BACKBONE|DICT|INTERRES
   241  121  123 2    
   242  122  242 1    
   243  122  243 1    
   244  124  125 1    
   245  124  244 1    
   246  124  245 1    
   247  125  126 1    
   248  126  246 1    
   249  126  247 1    
@<TRIPOS>SUBSTRUCTURE
     1 UNK         1 GROUP             0       ****    0 ROOT    
