@<TRIPOS>MOLECULE
3R540
247   249    1
SMALL
USER_CHARGES


@<TRIPOS>ATOM
      1 CA          1.4595  -11.5652  -51.4122 C.3       0 UNK        -0.1800 
      2 C           0.8306  -12.8928  -51.0162 C.2       0 UNK         0.5000 
      3 O           0.9149  -13.8578  -51.7756 O.2       0 UNK        -0.5000 
      4 N           0.2058  -12.9424  -49.8326 N.am      1 UNK        -0.5000 
      5 CA         -0.4814  -14.1131  -49.2654 C.3       1 UNK         0.1400 
      6 C6         -1.2225  -13.7395  -47.9568 C.3       23 UNK        -0.0398 
      7 S7         -2.6625  -12.6667  -48.2964 S.3       23 UNK        -0.2404 
      8 C8         -4.0742  -13.7774  -47.9718 C.3       23 UNK        -0.0205 
      9 C9         -3.9684  -15.0909  -48.7334 C.ar      23 UNK        -0.0193 
     10 C10        -4.2304  -15.1427  -50.1052 C.ar      23 UNK        -0.1150 
     11 C11        -4.0785  -16.3399  -50.8147 C.ar      23 UNK        -0.0193 
     12 C12        -3.6690  -17.4916  -50.1349 C.ar      23 UNK        -0.1150 
     13 C13        -3.4352  -17.4563  -48.7567 C.ar      23 UNK        -0.0193 
     14 C14        -3.5925  -16.2565  -48.0620 C.ar      23 UNK        -0.1150 
     15 C15        -3.0204  -18.7101  -48.0085 C.3       23 UNK        -0.0205 
     16 S16        -4.4622  -19.7790  -47.7083 S.3       23 UNK        -0.2404 
     17 C17        -4.2048  -20.2691  -45.9738 C.3       23 UNK        -0.0398 
     18 CA         -3.1758  -21.4109  -45.8112 C.3       11 UNK         0.1400 
     19 N          -2.6841  -21.4758  -44.4317 N.am      11 UNK        -0.5000 
     20 C          -1.7303  -22.2901  -43.9622 C.2       10 UNK         0.5000 
     21 O          -1.1969  -23.1656  -44.6480 O.2       10 UNK        -0.5000 
     22 CA         -1.3339  -22.1145  -42.4794 C.3       10 UNK         0.1400 
     23 CB         -0.0259  -22.8509  -42.1407 C.3       10 UNK        -0.1800 
     24 N          -1.2112  -20.7085  -42.0775 N.am      10 UNK        -0.5000 
     25 C          -2.2275  -19.8816  -41.7938 C.2       9 UNK         0.5000 
     26 O          -3.4103  -20.2191  -41.8562 O.2       9 UNK        -0.5000 
     27 CA         -1.8705  -18.4272  -41.4371 C.3       9 UNK         0.1400 
     28 CB         -1.2765  -18.3327  -40.0233 C.3       9 UNK        -0.1800 
     29 N          -0.9441  -17.8388  -42.4029 N.am      9 UNK        -0.5000 
     30 C          -1.2574  -17.5295  -43.6702 C.2       8 UNK         0.5000 
     31 O          -2.3937  -17.6136  -44.1358 O.2       8 UNK        -0.5000 
     32 CA         -0.0987  -17.0801  -44.5814 C.3       8 UNK         0.1400 
     33 CB          0.1637  -15.5730  -44.4366 C.3       8 UNK        -0.1800 
     34 N           1.1329  -17.8278  -44.3202 N.am      8 UNK        -0.5000 
     35 C           1.2696  -19.1436  -44.5411 C.2       7 UNK         0.5000 
     36 O           0.3958  -19.8421  -45.0506 O.2       7 UNK        -0.5000 
     37 CA          2.5817  -19.7996  -44.0789 C.3       7 UNK         0.1400 
     38 CB          3.6623  -19.7045  -45.1635 C.3       7 UNK        -0.1800 
     39 N           3.0856  -19.2157  -42.8361 N.am      7 UNK        -0.5000 
     40 C           2.5359  -19.4231  -41.6321 C.2       6 UNK         0.5000 
     41 O           1.5560  -20.1415  -41.4434 O.2       6 UNK        -0.5000 
     42 CA          3.1588  -18.6654  -40.4467 C.3       6 UNK         0.1400 
     43 CB          4.4153  -19.3880  -39.9385 C.3       6 UNK        -0.1800 
     44 N           3.4938  -17.2813  -40.7810 N.am      6 UNK        -0.5000 
     45 C           2.5924  -16.3398  -41.0930 C.2       5 UNK         0.5000 
     46 O           1.3771  -16.5332  -41.1053 O.2       5 UNK        -0.5000 
     47 CA          3.1456  -14.9631  -41.5024 C.3       5 UNK         0.1400 
     48 CB          3.3508  -14.0754  -40.2661 C.3       5 UNK        -0.1800 
     49 N           4.3961  -15.0301  -42.2654 N.am      5 UNK        -0.5000 
     50 C           4.5330  -15.6326  -43.4534 C.2       4 UNK         0.5000 
     51 O           3.6346  -16.2721  -44.0061 O.2       4 UNK        -0.5000 
     52 CA          5.8982  -15.4938  -44.1475 C.3       4 UNK         0.1400 
     53 CB          6.5578  -16.8660  -44.3522 C.3       4 UNK        -0.1800 
     54 N           5.7150  -14.8476  -45.4428 N.am      4 UNK        -0.5000 
     55 C           5.4771  -13.5422  -45.6149 C.2       3 UNK         0.5000 
     56 O           5.5741  -12.7093  -44.7128 O.2       3 UNK        -0.5000 
     57 CA          4.9937  -13.0921  -47.0068 C.3       3 UNK         0.1400 
     58 CB          6.1686  -12.8395  -47.9716 C.3       3 UNK        -0.1800 
     59 N           3.9719  -13.9829  -47.5784 N.am      3 UNK        -0.5000 
     60 C           4.1176  -15.2151  -48.0952 C.2       2 UNK         0.5000 
     61 O           5.2024  -15.7861  -48.2052 O.2       2 UNK        -0.5000 
     62 CA          2.8361  -15.9596  -48.5099 C.3       2 UNK         0.1400 
     63 CB          2.5271  -17.0327  -47.4467 C.3       2 UNK        -0.1800 
     64 N           1.7230  -15.0221  -48.6963 N.am      2 UNK        -0.5000 
     65 C           0.4601  -15.3149  -49.0328 C.2       1 UNK         0.5000 
     66 O           0.0278  -16.4563  -49.1871 O.2       1 UNK        -0.5000 
     67 C          -3.7315  -22.7576  -46.3216 C.2       11 UNK         0.5000 
     68 O          -3.5806  -23.0722  -47.5041 O.2       11 UNK        -0.5000 
     69 N          -4.3148  -23.5503  -45.4106 N.am      12 UNK        -0.5000 
     70 CA         -4.8045  -24.9105  -45.6449 C.3       12 UNK         0.1400 
     71 CB         -5.4597  -25.4320  -44.3579 C.3       12 UNK        -0.1800 
     72 C          -3.7193  -25.8914  -46.1321 C.2       12 UNK         0.5000 
     73 O          -4.0455  -26.8316  -46.8561 O.2       12 UNK        -0.5000 
     74 N          -2.4602  -25.6460  -45.7477 N.am      13 UNK        -0.5000 
     75 CA         -1.2943  -26.3997  -46.1985 C.3       13 UNK         0.1400 
     76 CB         -0.3681  -26.6589  -44.9992 C.3       13 UNK        -0.1800 
     77 C          -0.5433  -25.6424  -47.3055 C.2       13 UNK         0.5000 
     78 O          -0.1479  -26.2572  -48.2961 O.2       13 UNK        -0.5000 
     79 N          -0.3466  -24.3298  -47.1155 N.am      14 UNK        -0.5000 
     80 CA          0.5039  -23.4920  -47.9617 C.3       14 UNK         0.1400 
     81 CB          0.7955  -22.1714  -47.2366 C.3       14 UNK        -0.1800 
     82 C          -0.0593  -23.2171  -49.3672 C.2       14 UNK         0.5000 
     83 O           0.7274  -23.1218  -50.3104 O.2       14 UNK        -0.5000 
     84 N          -1.3869  -23.0836  -49.4909 N.am      15 UNK        -0.5000 
     85 CA         -2.0595  -22.7487  -50.7505 C.3       15 UNK         0.1400 
     86 CB         -2.3260  -21.2338  -50.8030 C.3       15 UNK        -0.1800 
     87 C          -3.3503  -23.5568  -50.9592 C.2       15 UNK         0.5000 
     88 O          -4.1800  -23.1634  -51.7821 O.2       15 UNK        -0.5000 
     89 N          -3.5164  -24.6515  -50.2015 N.am      16 UNK        -0.5000 
     90 CA         -4.6843  -25.5401  -50.1922 C.3       16 UNK         0.1400 
     91 CB         -4.7313  -26.3743  -51.4889 C.3       16 UNK        -0.1800 
     92 C          -6.0022  -24.7913  -49.8904 C.2       16 UNK         0.5000 
     93 O          -7.0152  -25.0254  -50.5496 O.2       16 UNK        -0.5000 
     94 N          -5.9377  -23.8767  -48.9108 N.am      17 UNK        -0.5000 
     95 CA         -6.9944  -22.9572  -48.4736 C.3       17 UNK         0.1400 
     96 CB         -8.2163  -23.7196  -47.9189 C.3       17 UNK        -0.1800 
     97 C          -7.3487  -21.9258  -49.5638 C.2       17 UNK         0.5000 
     98 O          -8.5252  -21.6687  -49.8241 O.2       17 UNK        -0.5000 
     99 N          -6.2975  -21.3628  -50.1774 N.am      18 UNK        -0.5000 
    100 CA        -6.3121  -20.3575  -51.2453 C.3       18 UNK         0.1400 
    101 CB        -6.9357  -19.0333  -50.7561 C.3       18 UNK        -0.1800 
    102 C         -6.9308  -20.8685  -52.5631 C.2       18 UNK         0.5000 
    103 O         -7.4696  -20.0770  -53.3392 O.2       18 UNK        -0.5000 
    104 N         -6.8248  -22.1820  -52.8048 N.am      19 UNK        -0.5000 
    105 CA        -7.1524  -22.8096  -54.0836 C.3       19 UNK         0.1400 
    106 CB        -7.4585  -24.2973  -53.8635 C.3       19 UNK        -0.1800 
    107 C         -6.0075  -22.6253  -55.0958 C.2       19 UNK         0.5000 
    108 O         -6.2708  -22.4775  -56.2903 O.2       19 UNK        -0.5000 
    109 N         -4.7627  -22.6091  -54.5988 N.am      20 UNK        -0.5000 
    110 CA        -3.5741  -22.2238  -55.3542 C.3       20 UNK         0.1400 
    111 CB        -2.3346  -22.8163  -54.6675 C.3       20 UNK        -0.1800 
    112 C         -3.4591  -20.6901  -55.4493 C.2       20 UNK         0.5000 
    113 O         -4.0684  -19.9666  -54.6559 O.2       20 UNK        -0.5000 
    114 N         -2.6608  -20.2269  -56.4177 N.am      21 UNK        -0.5000 
    115 CA        -2.3747  -18.8135  -56.6639 C.3       21 UNK         0.1400 
    116 CB        -1.6151  -18.6931  -57.9952 C.3       21 UNK        -0.1800 
    117 C         -1.5754  -18.1489  -55.5246 C.2       21 UNK         0.5000 
    118 O         -0.8656  -18.8265  -54.7768 O.2       21 UNK        -0.5000 
    119 N         -1.6800  -16.8215  -55.4520 N.am      22 UNK        -0.5000 
    120 CA        -0.9851  -15.9490  -54.4994 C.3       22 UNK         0.1400 
    121 C         -0.6746  -14.5661  -55.1410 C.2       22 UNK         0.5000 
    122 N          0.0627  -13.7007  -54.4610 N.am      22 UNK        -0.7600 
    123 O         -1.0874  -14.2648  -56.2605 O.2       22 UNK        -0.5000 
    124 C124       -1.7302  -15.8561  -53.1386 C.3       23 UNK        -0.0398 
    125 S125       -3.4245  -15.1813  -53.2667 S.3       23 UNK        -0.2404 
    126 C126       -4.3832  -16.3973  -52.3072 C.3       23 UNK        -0.0205 
    127 H127        1.3185  -10.8036  -50.6449 H         1 UNK         0.0600 
    128 H128        1.0141  -11.2016  -52.3382 H         1 UNK         0.0600 
    129 H129        2.5300  -11.6913  -51.5740 H         1 UNK         0.0600 
    130 H130        0.1454  -12.0993  -49.2794 H         1 UNK         0.3000 
    131 H131       -1.2215  -14.4429  -49.9981 H         1 UNK         0.0600 
    132 H132       -1.5485  -14.6253  -47.4118 H         1 UNK         0.0800 
    133 H133       -0.5528  -13.2142  -47.2740 H         1 UNK         0.0800 
    134 H134       -4.1419  -13.9607  -46.8982 H         1 UNK         0.0800 
    135 H135       -4.9976  -13.2687  -48.2521 H         1 UNK         0.0800 
    136 H136       -4.5354  -14.2453  -50.6249 H         1 UNK         0.1150 
    137 H137       -3.5513  -18.4224  -50.6708 H         1 UNK         0.1150 
    138 H138       -3.4061  -16.2284  -46.9972 H         1 UNK         0.1150 
    139 H139       -2.2688  -19.2540  -48.5809 H         1 UNK         0.0800 
    140 H140       -2.5388  -18.4413  -47.0669 H         1 UNK         0.0800 
    141 H141       -3.8857  -19.3857  -45.4203 H         1 UNK         0.0800 
    142 H142       -5.1680  -20.5481  -45.5428 H         1 UNK         0.0800 
    143 H143       -2.3073  -21.1726  -46.4268 H         1 UNK         0.0600 
    144 H144       -3.0842  -20.8146  -43.7755 H         1 UNK         0.3000 
    145 H145       -2.1284  -22.5718  -41.8868 H         1 UNK         0.0600 
    146 H146        0.2377  -22.7268  -41.0903 H         1 UNK         0.0600 
    147 H147       -0.1164  -23.9218  -42.3271 H         1 UNK         0.0600 
    148 H148        0.8064  -22.4822  -42.7412 H         1 UNK         0.0600 
    149 H149       -0.2604  -20.3577  -41.9959 H         1 UNK         0.3000 
    150 H150       -2.7931  -17.8432  -41.4530 H         1 UNK         0.0600 
    151 H151       -1.9576  -18.7564  -39.2843 H         1 UNK         0.0600 
    152 H152       -1.0958  -17.2950  -39.7424 H         1 UNK         0.0600 
    153 H153       -0.3300  -18.8676  -39.9432 H         1 UNK         0.0600 
    154 H154        0.0026  -17.6687  -42.0803 H         1 UNK         0.3000 
    155 H155       -0.3933  -17.2735  -45.6154 H         1 UNK         0.0600 
    156 H156       -0.7312  -14.9986  -44.6790 H         1 UNK         0.0600 
    157 H157        0.9552  -15.2383  -45.1066 H         1 UNK         0.0600 
    158 H158        0.4544  -15.3121  -43.4193 H         1 UNK         0.0600 
    159 H159        1.9246  -17.3071  -43.9564 H         1 UNK         0.3000 
    160 H160        2.3753  -20.8578  -43.9049 H         1 UNK         0.0600 
    161 H161        3.9630  -18.6721  -45.3338 H         1 UNK         0.0600 
    162 H162        3.3030  -20.1071  -46.1116 H         1 UNK         0.0600 
    163 H163        4.5513  -20.2700  -44.8845 H         1 UNK         0.0600 
    164 H164        3.8487  -18.5604  -42.9178 H         1 UNK         0.3000 
    165 H165        2.4236  -18.6498  -39.6391 H         1 UNK         0.0600 
    166 H166        4.8166  -18.9021  -39.0489 H         1 UNK         0.0600 
    167 H167        4.1887  -20.4205  -39.6691 H         1 UNK         0.0600 
    168 H168        5.2025  -19.4106  -40.6932 H         1 UNK         0.0600 
    169 H169        4.4725  -17.0356  -40.7983 H         1 UNK         0.3000 
    170 H170        2.3978  -14.4875  -42.1400 H         1 UNK         0.0600 
    171 H171        2.4288  -13.9904  -39.6891 H         1 UNK         0.0600 
    172 H172        4.1173  -14.4783  -39.6029 H         1 UNK         0.0600 
    173 H173        3.6482  -13.0658  -40.5501 H         1 UNK         0.0600 
    174 H174        5.1788  -14.5166  -41.8865 H         1 UNK         0.3000 
    175 H175        6.5613  -14.8834  -43.5308 H         1 UNK         0.0600 
    176 H176        5.9756  -17.4999  -45.0208 H         1 UNK         0.0600 
    177 H177        7.5543  -16.7604  -44.7812 H         1 UNK         0.0600 
    178 H178        6.6658  -17.3952  -43.4046 H         1 UNK         0.0600 
    179 H179        5.5948  -15.4542  -46.2464 H         1 UNK         0.3000 
    180 H180        4.4904  -12.1345  -46.8629 H         1 UNK         0.0600 
    181 H181        6.7844  -13.7275  -48.1144 H         1 UNK         0.0600 
    182 H182        6.8214  -12.0559  -47.5851 H         1 UNK         0.0600 
    183 H183        5.8137  -12.5142  -48.9494 H         1 UNK         0.0600 
    184 H184        3.0283  -13.6617  -47.4256 H         1 UNK         0.3000 
    185 H185        3.0280  -16.4483  -49.4667 H         1 UNK         0.0600 
    186 H186        2.3442  -16.5825  -46.4725 H         1 UNK         0.0600 
    187 H187        1.6682  -17.6513  -47.7016 H         1 UNK         0.0600 
    188 H188        3.3728  -17.7113  -47.3398 H         1 UNK         0.0600 
    189 H189        1.9796  -14.0463  -48.7128 H         1 UNK         0.3000 
    190 H190       -4.3830  -23.2093  -44.4628 H         1 UNK         0.3000 
    191 H191       -5.5728  -24.8630  -46.4163 H         1 UNK         0.0600 
    192 H192       -4.7472  -25.4768  -43.5332 H         1 UNK         0.0600 
    193 H193       -6.2902  -24.7955  -44.0518 H         1 UNK         0.0600 
    194 H194       -5.8591  -26.4368  -44.5020 H         1 UNK         0.0600 
    195 H195       -2.2705  -24.8253  -45.1842 H         1 UNK         0.3000 
    196 H196       -1.5976  -27.3686  -46.6009 H         1 UNK         0.0600 
    197 H197       -0.8761  -27.2416  -44.2306 H         1 UNK         0.0600 
    198 H198       -0.0255  -25.7300  -44.5413 H         1 UNK         0.0600 
    199 H199        0.5156  -27.2214  -45.3028 H         1 UNK         0.0600 
    200 H200       -0.6827  -23.9024  -46.2557 H         1 UNK         0.3000 
    201 H201        1.4545  -24.0143  -48.0903 H         1 UNK         0.0600 
    202 H202        1.4860  -21.5512  -47.8094 H         1 UNK         0.0600 
    203 H203        1.2483  -22.3454  -46.2602 H         1 UNK         0.0600 
    204 H204       -0.1133  -21.5905  -47.0833 H         1 UNK         0.0600 
    205 H205       -1.9803  -23.1548  -48.6693 H         1 UNK         0.3000 
    206 H206       -1.4155  -23.0121  -51.5909 H         1 UNK         0.0600 
    207 H207       -1.4122  -20.6621  -50.6412 H         1 UNK         0.0600 
    208 H208       -3.0495  -20.9385  -50.0450 H         1 UNK         0.0600 
    209 H209       -2.7267  -20.9323  -51.7717 H         1 UNK         0.0600 
    210 H210       -2.7780  -24.8893  -49.5552 H         1 UNK         0.3000 
    211 H211       -4.5412  -26.2366  -49.3667 H         1 UNK         0.0600 
    212 H212       -3.8295  -26.9769  -51.5962 H         1 UNK         0.0600 
    213 H213       -5.5790  -27.0605  -51.4888 H         1 UNK         0.0600 
    214 H214       -4.8138  -25.7457  -52.3743 H         1 UNK         0.0600 
    215 H215       -5.0323  -23.7268  -48.4717 H         1 UNK         0.3000 
    216 H216       -6.5724  -22.3839  -47.6469 H         1 UNK         0.0600 
    217 H217       -8.7440  -24.2690  -48.6986 H         1 UNK         0.0600 
    218 H218       -7.9229  -24.4305  -47.1469 H         1 UNK         0.0600 
    219 H219       -8.9311  -23.0300  -47.4686 H         1 UNK         0.0600 
    220 H220       -5.3791  -21.6735  -49.8966 H         1 UNK         0.3000 
    221 H221       -5.2653  -20.1552  -51.4756 H         1 UNK         0.0600 
    222 H222       -8.0055  -19.1316  -50.5718 H         1 UNK         0.0600 
    223 H223       -6.4658  -18.6916  -49.8341 H         1 UNK         0.0600 
    224 H224       -6.8035  -18.2428  -51.4952 H         1 UNK         0.0600 
    225 H225       -6.3349  -22.7544  -52.1284 H         1 UNK         0.3000 
    226 H226       -8.0478  -22.3388  -54.4951 H         1 UNK         0.0600 
    227 H227       -8.2837  -24.4306  -53.1637 H         1 UNK         0.0600 
    228 H228       -7.7415  -24.7803  -54.7994 H         1 UNK         0.0600 
    229 H229       -6.5959  -24.8302  -53.4665 H         1 UNK         0.0600 
    230 H230       -4.6378  -22.7189  -53.5966 H         1 UNK         0.3000 
    231 H231       -3.6453  -22.6370  -56.3626 H         1 UNK         0.0600 
    232 H232       -1.4422  -22.6706  -55.2771 H         1 UNK         0.0600 
    233 H233       -2.4442  -23.8880  -54.4998 H         1 UNK         0.0600 
    234 H234       -2.1502  -22.3403  -53.7058 H         1 UNK         0.0600 
    235 H235       -2.1675  -20.8874  -57.0000 H         1 UNK         0.3000 
    236 H236       -3.3297  -18.2920  -56.7597 H         1 UNK         0.0600 
    237 H237       -2.1924  -19.1126  -58.8194 H         1 UNK         0.0600 
    238 H238       -1.4142  -17.6496  -58.2414 H         1 UNK         0.0600 
    239 H239       -0.6558  -19.2110  -57.9582 H         1 UNK         0.0600 
    240 H240       -2.2297  -16.3212  -56.1376 H         1 UNK         0.3000 
    241 H241       -0.0051  -16.3910  -54.3095 H         1 UNK         0.0600 
    242 H242        0.2694  -12.8081  -54.8797 H         1 UNK         0.3800 
    243 H243        0.4038  -13.8989  -53.5218 H         1 UNK         0.3800 
    244 H244       -1.7701  -16.8480  -52.6865 H         1 UNK         0.0800 
    245 H245       -1.1736  -15.2431  -52.4312 H         1 UNK         0.0800 
    246 H246       -4.2024  -17.3957  -52.7102 H         1 UNK         0.0800 
    247 H247       -5.4453  -16.1968  -52.4521 H         1 UNK         0.0800 
@<TRIPOS>BOND
     1    1    2 1    
     2    1  127 1    
     3    1  128 1    
     4    1  129 1    
     5    2    3 2    
     6    2    4 am   BACKBONE|DICT|INTERRES
     7    4    5 1    
     8    4  130 1    
     9    5    6 1    
    10    5   65 1    
    11    5  131 1    
    12    6    7 1    
    13    6  132 1    
    14    6  133 1    
    15    7    8 1    
    16    8    9 1    
    17    8  134 1    
    18    8  135 1    
    19    9   10 ar   
    20    9   14 ar   
    21   10   11 ar   
    22   10  136 1    
    23   11   12 ar   
    24   11  126 1    
    25   12   13 ar   
    26   12  137 1    
    27   13   14 ar   
    28   13   15 1    
    29   14  138 1    
    30   15   16 1    
    31   15  139 1    
    32   15  140 1    
    33   16   17 1    
    34   17   18 1    
    35   17  141 1    
    36   17  142 1    
    37   18   19 1    
    38   18   67 1    
    39   18  143 1    
    40   19   20 am   BACKBONE|DICT|INTERRES
    41   19  144 1    
    42   20   21 2    
    43   20   22 1    
    44   22   23 1    
    45   22   24 1    
    46   22  145 1    
    47   23  146 1    
    48   23  147 1    
    49   23  148 1    
    50   24   25 am   BACKBONE|DICT|INTERRES
    51   24  149 1    
    52   25   26 2    
    53   25   27 1    
    54   27   28 1    
    55   27   29 1    
    56   27  150 1    
    57   28  151 1    
    58   28  152 1    
    59   28  153 1    
    60   29   30 am   BACKBONE|DICT|INTERRES
    61   29  154 1    
    62   30   31 2    
    63   30   32 1    
    64   32   33 1    
    65   32   34 1    
    66   32  155 1    
    67   33  156 1    
    68   33  157 1    
    69   33  158 1    
    70   34   35 am   BACKBONE|DICT|INTERRES
    71   34  159 1    
    72   35   36 2    
    73   35   37 1    
    74   37   38 1    
    75   37   39 1    
    76   37  160 1    
    77   38  161 1    
    78   38  162 1    
    79   38  163 1    
    80   39   40 am   BACKBONE|DICT|INTERRES
    81   39  164 1    
    82   40   41 2    
    83   40   42 1    
    84   42   43 1    
    85   42   44 1    
    86   42  165 1    
    87   43  166 1    
    88   43  167 1    
    89   43  168 1    
    90   44   45 am   BACKBONE|DICT|INTERRES
    91   44  169 1    
    92   45   46 2    
    93   45   47 1    
    94   47   48 1    
    95   47   49 1    
    96   47  170 1    
    97   48  171 1    
    98   48  172 1    
    99   48  173 1    
   100   49   50 am   BACKBONE|DICT|INTERRES
   101   49  174 1    
   102   50   51 2    
   103   50   52 1    
   104   52   53 1    
   105   52   54 1    
   106   52  175 1    
   107   53  176 1    
   108   53  177 1    
   109   53  178 1    
   110   54   55 am   BACKBONE|DICT|INTERRES
   111   54  179 1    
   112   55   56 2    
   113   55   57 1    
   114   57   58 1    
   115   57   59 1    
   116   57  180 1    
   117   58  181 1    
   118   58  182 1    
   119   58  183 1    
   120   59   60 am   BACKBONE|DICT|INTERRES
   121   59  184 1    
   122   60   61 2    
   123   60   62 1    
   124   62   63 1    
   125   62   64 1    
   126   62  185 1    
   127   63  186 1    
   128   63  187 1    
   129   63  188 1    
   130   64   65 am   BACKBONE|DICT|INTERRES
   131   64  189 1    
   132   65   66 2    
   133   67   68 2    
   134   67   69 am   BACKBONE|DICT|INTERRES
   135   69   70 1    
   136   69  190 1    
   137   70   71 1    
   138   70   72 1    
   139   70  191 1    
   140   71  192 1    
   141   71  193 1    
   142   71  194 1    
   143   72   73 2    
   144   72   74 am   BACKBONE|DICT|INTERRES
   145   74   75 1    
   146   74  195 1    
   147   75   76 1    
   148   75   77 1    
   149   75  196 1    
   150   76  197 1    
   151   76  198 1    
   152   76  199 1    
   153   77   78 2    
   154   77   79 am   BACKBONE|DICT|INTERRES
   155   79   80 1    
   156   79  200 1    
   157   80   81 1    
   158   80   82 1    
   159   80  201 1    
   160   81  202 1    
   161   81  203 1    
   162   81  204 1    
   163   82   83 2    
   164   82   84 am   BACKBONE|DICT|INTERRES
   165   84   85 1    
   166   84  205 1    
   167   85   86 1    
   168   85   87 1    
   169   85  206 1    
   170   86  207 1    
   171   86  208 1    
   172   86  209 1    
   173   87   88 2    
   174   87   89 am   BACKBONE|DICT|INTERRES
   175   89   90 1    
   176   89  210 1    
   177   90   91 1    
   178   90   92 1    
   179   90  211 1    
   180   91  212 1    
   181   91  213 1    
   182   91  214 1    
   183   92   93 2    
   184   92   94 am   BACKBONE|DICT|INTERRES
   185   94   95 1    
   186   94  215 1    
   187   95   96 1    
   188   95   97 1    
   189   95  216 1    
   190   96  217 1    
   191   96  218 1    
   192   96  219 1    
   193   97   98 2    
   194   97   99 am   BACKBONE|DICT|INTERRES
   195   99  100 1    
   196   99  220 1    
   197  100  101 1    
   198  100  102 1    
   199  100  221 1    
   200  101  222 1    
   201  101  223 1    
   202  101  224 1    
   203  102  103 2    
   204  102  104 am   BACKBONE|DICT|INTERRES
   205  104  105 1    
   206  104  225 1    
   207  105  106 1    
   208  105  107 1    
   209  105  226 1    
   210  106  227 1    
   211  106  228 1    
   212  106  229 1    
   213  107  108 2    
   214  107  109 am   BACKBONE|DICT|INTERRES
   215  109  110 1    
   216  109  230 1    
   217  110  111 1    
   218  110  112 1    
   219  110  231 1    
   220  111  232 1    
   221  111  233 1    
   222  111  234 1    
   223  112  113 2    
   224  112  114 am   BACKBONE|DICT|INTERRES
   225  114  115 1    
   226  114  235 1    
   227  115  116 1    
   228  115  117 1    
   229  115  236 1    
   230  116  237 1    
   231  116  238 1    
   232  116  239 1    
   233  117  118 2    
   234  117  119 am   BACKBONE|DICT|INTERRES
   235  119  120 1    
   236  119  240 1    
   237  120  121 1    
   238  120  124 1    
   239  120  241 1    
   240  121  122 am   BACKBONE|DICT|INTERRES
   241  121  123 2    
   242  122  242 1    
   243  122  243 1    
   244  124  125 1    
   245  124  244 1    
   246  124  245 1    
   247  125  126 1    
   248  126  246 1    
   249  126  247 1    
@<TRIPOS>SUBSTRUCTURE
     1 UNK         1 GROUP             0       ****    0 ROOT    
