@<TRIPOS>MOLECULE
3R540
247   249    1
SMALL
USER_CHARGES


@<TRIPOS>ATOM
      1 CA          4.1041   -9.1595  -45.8141 C.3       0 UNK        -0.1800 
      2 C           3.5428  -10.5728  -45.8594 C.2       0 UNK         0.5000 
      3 O           4.2838  -11.5321  -45.6491 O.2       0 UNK        -0.5000 
      4 N           2.2332  -10.7071  -46.1130 N.am      1 UNK        -0.5000 
      5 CA          1.5091  -11.9821  -46.2235 C.3       1 UNK         0.1400 
      6 C6          0.0502  -11.7497  -46.6884 C.3       23 UNK        -0.0398 
      7 S7         -0.7735  -13.2682  -47.2657 S.3       23 UNK        -0.2404 
      8 C8         -0.2652  -13.3080  -49.0084 C.3       23 UNK        -0.0205 
      9 C9         -0.6227  -14.6500  -49.6191 C.ar      23 UNK        -0.0193 
     10 C10        -1.8341  -14.8225  -50.2916 C.ar      23 UNK        -0.1150 
     11 C11        -2.1766  -16.0690  -50.8215 C.ar      23 UNK        -0.0193 
     12 C12        -1.3067  -17.1513  -50.6568 C.ar      23 UNK        -0.1150 
     13 C13        -0.0916  -16.9923  -49.9820 C.ar      23 UNK        -0.0193 
     14 C14         0.2516  -15.7304  -49.4851 C.ar      23 UNK        -0.1150 
     15 C15         0.8402  -18.1894  -49.8174 C.3       23 UNK        -0.0205 
     16 S16         1.7137  -18.2710  -48.2131 S.3       23 UNK        -0.2404 
     17 C17         0.3673  -18.1755  -46.9831 C.3       23 UNK        -0.0398 
     18 CA         -0.2261  -19.5658  -46.6482 C.3       11 UNK         0.1400 
     19 N          -0.5888  -19.6953  -45.2351 N.am      11 UNK        -0.5000 
     20 C          -0.9268  -20.8504  -44.6441 C.2       10 UNK         0.5000 
     21 O          -0.9021  -21.9409  -45.2115 O.2       10 UNK        -0.5000 
     22 CA         -1.4324  -20.7669  -43.1942 C.3       10 UNK         0.1400 
     23 CB         -0.2607  -20.7785  -42.2011 C.3       10 UNK        -0.1800 
     24 N          -2.2669  -19.5833  -42.9806 N.am      10 UNK        -0.5000 
     25 C          -3.4871  -19.4238  -43.5148 C.2       9 UNK         0.5000 
     26 O          -4.0496  -20.2818  -44.1934 O.2       9 UNK        -0.5000 
     27 CA         -4.1791  -18.0673  -43.2893 C.3       9 UNK         0.1400 
     28 CB         -4.9725  -18.0801  -41.9745 C.3       9 UNK        -0.1800 
     29 N          -3.2401  -16.9455  -43.2753 N.am      9 UNK        -0.5000 
     30 C          -2.5226  -16.5318  -44.3304 C.2       8 UNK         0.5000 
     31 O          -2.5927  -17.0402  -45.4496 O.2       8 UNK        -0.5000 
     32 CA         -1.5032  -15.4094  -44.0526 C.3       8 UNK         0.1400 
     33 CB         -2.1913  -14.0361  -44.0497 C.3       8 UNK        -0.1800 
     34 N          -0.8045  -15.5999  -42.7769 N.am      8 UNK        -0.5000 
     35 C          -0.0156  -16.6470  -42.5081 C.2       7 UNK         0.5000 
     36 O           0.2348  -17.5380  -43.3266 O.2       7 UNK        -0.5000 
     37 CA          0.5229  -16.7586  -41.0741 C.3       7 UNK         0.1400 
     38 CB         -0.6059  -17.1464  -40.0986 C.3       7 UNK        -0.1800 
     39 N           1.5556  -17.7834  -41.0841 N.am      7 UNK        -0.5000 
     40 C           2.4465  -18.0689  -40.1296 C.2       6 UNK         0.5000 
     41 O           2.4927  -17.5031  -39.0368 O.2       6 UNK        -0.5000 
     42 CA          3.4636  -19.1843  -40.4588 C.3       6 UNK         0.1400 
     43 CB          3.0215  -20.5151  -39.8304 C.3       6 UNK        -0.1800 
     44 N           3.6582  -19.3812  -41.9011 N.am      6 UNK        -0.5000 
     45 C           4.2542  -18.4917  -42.7064 C.2       5 UNK         0.5000 
     46 O           4.7885  -17.4605  -42.2907 O.2       5 UNK        -0.5000 
     47 CA          4.2273  -18.7704  -44.2207 C.3       5 UNK         0.1400 
     48 CB          3.0278  -19.6224  -44.6831 C.3       5 UNK        -0.1800 
     49 N           4.2071  -17.4771  -44.8902 N.am      5 UNK        -0.5000 
     50 C           4.7871  -17.1684  -46.0529 C.2       4 UNK         0.5000 
     51 O           5.3102  -17.9931  -46.8031 O.2       4 UNK        -0.5000 
     52 CA          4.8254  -15.6689  -46.4135 C.3       4 UNK         0.1400 
     53 CB          3.6866  -15.3060  -47.3776 C.3       4 UNK        -0.1800 
     54 N           4.7582  -14.8006  -45.2314 N.am      4 UNK        -0.5000 
     55 C           5.7664  -14.6358  -44.3590 C.2       3 UNK         0.5000 
     56 O           6.8641  -15.1791  -44.4934 O.2       3 UNK        -0.5000 
     57 CA          5.5343  -13.7223  -43.1382 C.3       3 UNK         0.1400 
     58 CB          6.5561  -12.5725  -43.1126 C.3       3 UNK        -0.1800 
     59 N           4.1911  -13.1443  -43.1199 N.am      3 UNK        -0.5000 
     60 C           3.1968  -13.5168  -42.3020 C.2       2 UNK         0.5000 
     61 O           3.3066  -14.3908  -41.4435 O.2       2 UNK        -0.5000 
     62 CA          1.8388  -12.7997  -42.4638 C.3       2 UNK         0.1400 
     63 CB          1.6580  -11.7352  -41.3717 C.3       2 UNK        -0.1800 
     64 N           1.6426  -12.1729  -43.7725 N.am      2 UNK        -0.5000 
     65 C           1.5874  -12.8357  -44.9360 C.2       1 UNK         0.5000 
     66 O           1.6739  -14.0606  -45.0160 O.2       1 UNK        -0.5000 
     67 C          -1.4161  -19.9132  -47.5665 C.2       11 UNK         0.5000 
     68 O          -1.2484  -20.6803  -48.5136 O.2       11 UNK        -0.5000 
     69 N          -2.6090  -19.3968  -47.2364 N.am      12 UNK        -0.5000 
     70 CA         -3.8610  -19.7027  -47.9316 C.3       12 UNK         0.1400 
     71 CB         -4.9884  -18.8220  -47.3741 C.3       12 UNK        -0.1800 
     72 C          -4.2402  -21.1950  -47.8557 C.2       12 UNK         0.5000 
     73 O          -4.6737  -21.7612  -48.8590 O.2       12 UNK        -0.5000 
     74 N          -4.0319  -21.8133  -46.6842 N.am      13 UNK        -0.5000 
     75 CA         -4.2207  -23.2459  -46.4545 C.3       13 UNK         0.1400 
     76 CB         -4.1668  -23.5403  -44.9482 C.3       13 UNK        -0.1800 
     77 C          -3.2044  -24.1157  -47.2178 C.2       13 UNK         0.5000 
     78 O          -3.5798  -25.1714  -47.7240 O.2       13 UNK        -0.5000 
     79 N          -1.9484  -23.6585  -47.3152 N.am      14 UNK        -0.5000 
     80 CA         -0.8947  -24.3043  -48.1022 C.3       14 UNK         0.1400 
     81 CB          0.4687  -23.6981  -47.7355 C.3       14 UNK        -0.1800 
     82 C          -1.1471  -24.2086  -49.6194 C.2       14 UNK         0.5000 
     83 O          -0.8395  -25.1519  -50.3479 O.2       14 UNK        -0.5000 
     84 N          -1.7178  -23.0805  -50.0628 N.am      15 UNK        -0.5000 
     85 CA         -2.1153  -22.8262  -51.4466 C.3       15 UNK         0.1400 
     86 CB         -2.3429  -21.3171  -51.6331 C.3       15 UNK        -0.1800 
     87 C          -3.3625  -23.6165  -51.8863 C.2       15 UNK         0.5000 
     88 O          -3.5819  -23.7604  -53.0909 O.2       15 UNK        -0.5000 
     89 N          -4.1776  -24.0951  -50.9354 N.am      16 UNK        -0.5000 
     90 CA         -5.3756  -24.8958  -51.1948 C.3       16 UNK         0.1400 
     91 CB         -6.1349  -25.1482  -49.8854 C.3       16 UNK        -0.1800 
     92 C          -5.0259  -26.2171  -51.9010 C.2       16 UNK         0.5000 
     93 O          -4.0725  -26.8894  -51.5029 O.2       16 UNK        -0.5000 
     94 N          -5.7719  -26.5281  -52.9698 N.am      17 UNK        -0.5000 
     95 CA         -5.5967  -27.6351  -53.9235 C.3       17 UNK         0.1400 
     96 CB         -5.6927  -29.0064  -53.2278 C.3       17 UNK        -0.1800 
     97 C          -4.3247  -27.5387  -54.7950 C.2       17 UNK         0.5000 
     98 O          -4.3978  -27.8228  -55.9903 O.2       17 UNK        -0.5000 
     99 N          -3.1977  -27.1224  -54.2038 N.am      18 UNK        -0.5000 
    100 CA        -1.8986  -26.9485  -54.8557 C.3       18 UNK         0.1400 
    101 CB        -0.8293  -26.6924  -53.7822 C.3       18 UNK        -0.1800 
    102 C         -1.8976  -25.8192  -55.9019 C.2       18 UNK         0.5000 
    103 O         -1.3836  -26.0100  -57.0048 O.2       18 UNK        -0.5000 
    104 N         -2.4892  -24.6764  -55.5368 N.am      19 UNK        -0.5000 
    105 CA        -2.6581  -23.4915  -56.3802 C.3       19 UNK         0.1400 
    106 CB        -1.7817  -22.3594  -55.8159 C.3       19 UNK        -0.1800 
    107 C         -4.1393  -23.0694  -56.4653 C.2       19 UNK         0.5000 
    108 O         -4.4308  -21.9958  -56.9923 O.2       19 UNK        -0.5000 
    109 N         -5.0407  -23.9182  -55.9449 N.am      20 UNK        -0.5000 
    110 CA        -6.4920  -23.7310  -55.8299 C.3       20 UNK         0.1400 
    111 CB        -7.1536  -23.6216  -57.2200 C.3       20 UNK        -0.1800 
    112 C         -6.8920  -22.5862  -54.8713 C.2       20 UNK         0.5000 
    113 O         -7.9413  -21.9686  -55.0615 O.2       20 UNK        -0.5000 
    114 N         -6.0631  -22.3586  -53.8400 N.am      21 UNK        -0.5000 
    115 CA        -6.1889  -21.3346  -52.7948 C.3       21 UNK         0.1400 
    116 CB        -7.4759  -21.5441  -51.9646 C.3       21 UNK        -0.1800 
    117 C         -6.0539  -19.8944  -53.3352 C.2       21 UNK         0.5000 
    118 O         -5.6511  -19.6881  -54.4824 O.2       21 UNK        -0.5000 
    119 N         -6.3479  -18.9141  -52.4755 N.am      22 UNK        -0.5000 
    120 CA        -6.3535  -17.4854  -52.8151 C.3       22 UNK         0.1400 
    121 C         -7.5937  -17.0942  -53.6649 C.2       22 UNK         0.5000 
    122 N         -7.4358  -16.2020  -54.6332 N.am      22 UNK        -0.7600 
    123 O         -8.7065  -17.5581  -53.4251 O.2       22 UNK        -0.5000 
    124 C124       -6.2609  -16.5953  -51.5504 C.3       23 UNK        -0.0398 
    125 S125       -4.7862  -16.9309  -50.5284 S.3       23 UNK        -0.2404 
    126 C126       -3.4794  -16.2372  -51.5840 C.3       23 UNK        -0.0205 
    127 H127        4.5405   -8.9614  -44.8351 H         1 UNK         0.0600 
    128 H128        3.3345   -8.4105  -46.0023 H         1 UNK         0.0600 
    129 H129        4.8843   -9.0428  -46.5661 H         1 UNK         0.0600 
    130 H130        1.6816   -9.8749  -46.2677 H         1 UNK         0.3000 
    131 H131        2.0205  -12.5502  -47.0028 H         1 UNK         0.0600 
    132 H132       -0.5466  -11.3148  -45.8847 H         1 UNK         0.0800 
    133 H133        0.0247  -11.0245  -47.5032 H         1 UNK         0.0800 
    134 H134        0.8100  -13.1412  -49.0878 H         1 UNK         0.0800 
    135 H135       -0.7502  -12.4956  -49.5519 H         1 UNK         0.0800 
    136 H136       -2.5122  -13.9873  -50.3979 H         1 UNK         0.1150 
    137 H137       -1.5792  -18.1184  -51.0561 H         1 UNK         0.1150 
    138 H138        1.1886  -15.5908  -48.9660 H         1 UNK         0.1150 
    139 H139        0.2930  -19.1209  -49.9633 H         1 UNK         0.0800 
    140 H140        1.5867  -18.1517  -50.6114 H         1 UNK         0.0800 
    141 H141       -0.3976  -17.4598  -47.2892 H         1 UNK         0.0800 
    142 H142        0.8171  -17.7385  -46.0902 H         1 UNK         0.0800 
    143 H143        0.5450  -20.3191  -46.8249 H         1 UNK         0.0600 
    144 H144       -0.5967  -18.8446  -44.6833 H         1 UNK         0.3000 
    145 H145       -2.0444  -21.6502  -43.0000 H         1 UNK         0.0600 
    146 H146       -0.6084  -20.6807  -41.1726 H         1 UNK         0.0600 
    147 H147        0.2922  -21.7161  -42.2697 H         1 UNK         0.0600 
    148 H148        0.4455  -19.9745  -42.3973 H         1 UNK         0.0600 
    149 H149       -1.8550  -18.8176  -42.4709 H         1 UNK         0.3000 
    150 H150       -4.8803  -17.9104  -44.1113 H         1 UNK         0.0600 
    151 H151       -5.6961  -18.8964  -41.9639 H         1 UNK         0.0600 
    152 H152       -5.5294  -17.1525  -41.8409 H         1 UNK         0.0600 
    153 H153       -4.3199  -18.2083  -41.1099 H         1 UNK         0.0600 
    154 H154       -3.1164  -16.4696  -42.3943 H         1 UNK         0.3000 
    155 H155       -0.7627  -15.4253  -44.8554 H         1 UNK         0.0600 
    156 H156       -2.9050  -13.9408  -43.2307 H         1 UNK         0.0600 
    157 H157       -1.4616  -13.2317  -43.9558 H         1 UNK         0.0600 
    158 H158       -2.7372  -13.8716  -44.9795 H         1 UNK         0.0600 
    159 H159       -0.9859  -14.9170  -42.0561 H         1 UNK         0.3000 
    160 H160        0.9651  -15.8040  -40.7839 H         1 UNK         0.0600 
    161 H161       -1.0474  -18.1097  -40.3563 H         1 UNK         0.0600 
    162 H162       -1.4057  -16.4052  -40.1015 H         1 UNK         0.0600 
    163 H163       -0.2408  -17.2136  -39.0739 H         1 UNK         0.0600 
    164 H164        1.6134  -18.2705  -41.9691 H         1 UNK         0.3000 
    165 H165        4.4209  -18.8983  -40.0180 H         1 UNK         0.0600 
    166 H166        3.7624  -21.2969  -39.9986 H         1 UNK         0.0600 
    167 H167        2.8965  -20.4146  -38.7515 H         1 UNK         0.0600 
    168 H168        2.0706  -20.8583  -40.2395 H         1 UNK         0.0600 
    169 H169        3.2590  -20.2166  -42.3030 H         1 UNK         0.3000 
    170 H170        5.1538  -19.2925  -44.4674 H         1 UNK         0.0600 
    171 H171        3.0650  -20.6297  -44.2679 H         1 UNK         0.0600 
    172 H172        2.0809  -19.1720  -44.3882 H         1 UNK         0.0600 
    173 H173        3.0187  -19.7290  -45.7677 H         1 UNK         0.0600 
    174 H174        3.8792  -16.7134  -44.3143 H         1 UNK         0.3000 
    175 H175        5.7712  -15.4765  -46.9244 H         1 UNK         0.0600 
    176 H176        3.7670  -15.8762  -48.3038 H         1 UNK         0.0600 
    177 H177        2.7091  -15.5230  -46.9460 H         1 UNK         0.0600 
    178 H178        3.7136  -14.2494  -47.6433 H         1 UNK         0.0600 
    179 H179        3.8744  -14.3393  -45.0569 H         1 UNK         0.3000 
    180 H180        5.6952  -14.3364  -42.2498 H         1 UNK         0.0600 
    181 H181        6.4757  -11.9427  -43.9993 H         1 UNK         0.0600 
    182 H182        7.5771  -12.9539  -43.0721 H         1 UNK         0.0600 
    183 H183        6.4134  -11.9387  -42.2373 H         1 UNK         0.0600 
    184 H184        4.0135  -12.4402  -43.8285 H         1 UNK         0.3000 
    185 H185        1.0597  -13.5521  -42.3370 H         1 UNK         0.0600 
    186 H186        1.7647  -12.1720  -40.3777 H         1 UNK         0.0600 
    187 H187        2.3977  -10.9386  -41.4612 H         1 UNK         0.0600 
    188 H188        0.6674  -11.2827  -41.4209 H         1 UNK         0.0600 
    189 H189        1.5975  -11.1643  -43.7904 H         1 UNK         0.3000 
    190 H190       -2.6601  -18.7306  -46.4713 H         1 UNK         0.3000 
    191 H191       -3.7207  -19.4486  -48.9841 H         1 UNK         0.0600 
    192 H192       -5.1968  -19.0447  -46.3280 H         1 UNK         0.0600 
    193 H193       -5.9122  -18.9743  -47.9334 H         1 UNK         0.0600 
    194 H194       -4.7346  -17.7641  -47.4470 H         1 UNK         0.0600 
    195 H195       -3.7429  -21.2590  -45.8842 H         1 UNK         0.3000 
    196 H196       -5.2170  -23.5119  -46.8140 H         1 UNK         0.0600 
    197 H197       -4.3401  -24.5990  -44.7512 H         1 UNK         0.0600 
    198 H198       -4.9308  -22.9798  -44.4093 H         1 UNK         0.0600 
    199 H199       -3.1980  -23.2815  -44.5213 H         1 UNK         0.0600 
    200 H200       -1.6890  -22.8191  -46.8066 H         1 UNK         0.3000 
    201 H201       -0.8751  -25.3631  -47.8360 H         1 UNK         0.0600 
    202 H202        0.6800  -23.8174  -46.6727 H         1 UNK         0.0600 
    203 H203        0.5145  -22.6342  -47.9676 H         1 UNK         0.0600 
    204 H204        1.2735  -24.1882  -48.2846 H         1 UNK         0.0600 
    205 H205       -1.8527  -22.3184  -49.4045 H         1 UNK         0.3000 
    206 H206       -1.2951  -23.1290  -52.1007 H         1 UNK         0.0600 
    207 H207       -1.4327  -20.7545  -51.4249 H         1 UNK         0.0600 
    208 H208       -2.6422  -21.0836  -52.6554 H         1 UNK         0.0600 
    209 H209       -3.1231  -20.9424  -50.9706 H         1 UNK         0.0600 
    210 H210       -3.9371  -23.9346  -49.9672 H         1 UNK         0.3000 
    211 H211       -6.0215  -24.3102  -51.8485 H         1 UNK         0.0600 
    212 H212       -5.5863  -25.8193  -49.2249 H         1 UNK         0.0600 
    213 H213       -7.1033  -25.6091  -50.0826 H         1 UNK         0.0600 
    214 H214       -6.3191  -24.2181  -49.3469 H         1 UNK         0.0600 
    215 H215       -6.5369  -25.9082  -53.1936 H         1 UNK         0.3000 
    216 H216       -6.4432  -27.5630  -54.6084 H         1 UNK         0.0600 
    217 H217       -5.6885  -29.8135  -53.9614 H         1 UNK         0.0600 
    218 H218       -6.6154  -29.0937  -52.6543 H         1 UNK         0.0600 
    219 H219       -4.8576  -29.1826  -52.5496 H         1 UNK         0.0600 
    220 H220       -3.2401  -26.9423  -53.2042 H         1 UNK         0.3000 
    221 H221       -1.6524  -27.8803  -55.3689 H         1 UNK         0.0600 
    222 H222       -1.0448  -25.7926  -53.2040 H         1 UNK         0.0600 
    223 H223       -0.7637  -27.5273  -53.0843 H         1 UNK         0.0600 
    224 H224        0.1562  -26.5666  -54.2325 H         1 UNK         0.0600 
    225 H225       -2.8560  -24.5859  -54.5919 H         1 UNK         0.3000 
    226 H226       -2.3363  -23.7003  -57.4022 H         1 UNK         0.0600 
    227 H227       -0.7348  -22.6590  -55.7678 H         1 UNK         0.0600 
    228 H228       -1.8351  -21.4685  -56.4426 H         1 UNK         0.0600 
    229 H229       -2.0949  -22.0745  -54.8116 H         1 UNK         0.0600 
    230 H230       -4.6777  -24.7776  -55.5607 H         1 UNK         0.3000 
    231 H231       -6.8711  -24.6438  -55.3688 H         1 UNK         0.0600 
    232 H232       -8.2405  -23.6580  -57.1394 H         1 UNK         0.0600 
    233 H233       -6.8505  -24.4447  -57.8672 H         1 UNK         0.0600 
    234 H234       -6.8966  -22.6877  -57.7203 H         1 UNK         0.0600 
    235 H235       -5.2000  -22.8917  -53.8078 H         1 UNK         0.3000 
    236 H236       -5.3431  -21.4847  -52.1247 H         1 UNK         0.0600 
    237 H237       -8.3661  -21.2323  -52.5118 H         1 UNK         0.0600 
    238 H238       -7.6076  -22.5886  -51.6854 H         1 UNK         0.0600 
    239 H239       -7.4453  -20.9732  -51.0362 H         1 UNK         0.0600 
    240 H240       -6.6775  -19.1493  -51.5517 H         1 UNK         0.3000 
    241 H241       -5.4687  -17.2897  -53.4234 H         1 UNK         0.0600 
    242 H242       -8.2372  -15.9286  -55.1810 H         1 UNK         0.3800 
    243 H243       -6.5347  -15.8025  -54.8466 H         1 UNK         0.3800 
    244 H244       -6.2552  -15.5385  -51.8235 H         1 UNK         0.0800 
    245 H245       -7.1420  -16.7376  -50.9222 H         1 UNK         0.0800 
    246 H246       -3.3185  -16.8925  -52.4411 H         1 UNK         0.0800 
    247 H247       -3.8025  -15.2756  -51.9858 H         1 UNK         0.0800 
@<TRIPOS>BOND
     1    1    2 1    
     2    1  127 1    
     3    1  128 1    
     4    1  129 1    
     5    2    3 2    
     6    2    4 am   BACKBONE|DICT|INTERRES
     7    4    5 1    
     8    4  130 1    
     9    5    6 1    
    10    5   65 1    
    11    5  131 1    
    12    6    7 1    
    13    6  132 1    
    14    6  133 1    
    15    7    8 1    
    16    8    9 1    
    17    8  134 1    
    18    8  135 1    
    19    9   10 ar   
    20    9   14 ar   
    21   10   11 ar   
    22   10  136 1    
    23   11   12 ar   
    24   11  126 1    
    25   12   13 ar   
    26   12  137 1    
    27   13   14 ar   
    28   13   15 1    
    29   14  138 1    
    30   15   16 1    
    31   15  139 1    
    32   15  140 1    
    33   16   17 1    
    34   17   18 1    
    35   17  141 1    
    36   17  142 1    
    37   18   19 1    
    38   18   67 1    
    39   18  143 1    
    40   19   20 am   BACKBONE|DICT|INTERRES
    41   19  144 1    
    42   20   21 2    
    43   20   22 1    
    44   22   23 1    
    45   22   24 1    
    46   22  145 1    
    47   23  146 1    
    48   23  147 1    
    49   23  148 1    
    50   24   25 am   BACKBONE|DICT|INTERRES
    51   24  149 1    
    52   25   26 2    
    53   25   27 1    
    54   27   28 1    
    55   27   29 1    
    56   27  150 1    
    57   28  151 1    
    58   28  152 1    
    59   28  153 1    
    60   29   30 am   BACKBONE|DICT|INTERRES
    61   29  154 1    
    62   30   31 2    
    63   30   32 1    
    64   32   33 1    
    65   32   34 1    
    66   32  155 1    
    67   33  156 1    
    68   33  157 1    
    69   33  158 1    
    70   34   35 am   BACKBONE|DICT|INTERRES
    71   34  159 1    
    72   35   36 2    
    73   35   37 1    
    74   37   38 1    
    75   37   39 1    
    76   37  160 1    
    77   38  161 1    
    78   38  162 1    
    79   38  163 1    
    80   39   40 am   BACKBONE|DICT|INTERRES
    81   39  164 1    
    82   40   41 2    
    83   40   42 1    
    84   42   43 1    
    85   42   44 1    
    86   42  165 1    
    87   43  166 1    
    88   43  167 1    
    89   43  168 1    
    90   44   45 am   BACKBONE|DICT|INTERRES
    91   44  169 1    
    92   45   46 2    
    93   45   47 1    
    94   47   48 1    
    95   47   49 1    
    96   47  170 1    
    97   48  171 1    
    98   48  172 1    
    99   48  173 1    
   100   49   50 am   BACKBONE|DICT|INTERRES
   101   49  174 1    
   102   50   51 2    
   103   50   52 1    
   104   52   53 1    
   105   52   54 1    
   106   52  175 1    
   107   53  176 1    
   108   53  177 1    
   109   53  178 1    
   110   54   55 am   BACKBONE|DICT|INTERRES
   111   54  179 1    
   112   55   56 2    
   113   55   57 1    
   114   57   58 1    
   115   57   59 1    
   116   57  180 1    
   117   58  181 1    
   118   58  182 1    
   119   58  183 1    
   120   59   60 am   BACKBONE|DICT|INTERRES
   121   59  184 1    
   122   60   61 2    
   123   60   62 1    
   124   62   63 1    
   125   62   64 1    
   126   62  185 1    
   127   63  186 1    
   128   63  187 1    
   129   63  188 1    
   130   64   65 am   BACKBONE|DICT|INTERRES
   131   64  189 1    
   132   65   66 2    
   133   67   68 2    
   134   67   69 am   BACKBONE|DICT|INTERRES
   135   69   70 1    
   136   69  190 1    
   137   70   71 1    
   138   70   72 1    
   139   70  191 1    
   140   71  192 1    
   141   71  193 1    
   142   71  194 1    
   143   72   73 2    
   144   72   74 am   BACKBONE|DICT|INTERRES
   145   74   75 1    
   146   74  195 1    
   147   75   76 1    
   148   75   77 1    
   149   75  196 1    
   150   76  197 1    
   151   76  198 1    
   152   76  199 1    
   153   77   78 2    
   154   77   79 am   BACKBONE|DICT|INTERRES
   155   79   80 1    
   156   79  200 1    
   157   80   81 1    
   158   80   82 1    
   159   80  201 1    
   160   81  202 1    
   161   81  203 1    
   162   81  204 1    
   163   82   83 2    
   164   82   84 am   BACKBONE|DICT|INTERRES
   165   84   85 1    
   166   84  205 1    
   167   85   86 1    
   168   85   87 1    
   169   85  206 1    
   170   86  207 1    
   171   86  208 1    
   172   86  209 1    
   173   87   88 2    
   174   87   89 am   BACKBONE|DICT|INTERRES
   175   89   90 1    
   176   89  210 1    
   177   90   91 1    
   178   90   92 1    
   179   90  211 1    
   180   91  212 1    
   181   91  213 1    
   182   91  214 1    
   183   92   93 2    
   184   92   94 am   BACKBONE|DICT|INTERRES
   185   94   95 1    
   186   94  215 1    
   187   95   96 1    
   188   95   97 1    
   189   95  216 1    
   190   96  217 1    
   191   96  218 1    
   192   96  219 1    
   193   97   98 2    
   194   97   99 am   BACKBONE|DICT|INTERRES
   195   99  100 1    
   196   99  220 1    
   197  100  101 1    
   198  100  102 1    
   199  100  221 1    
   200  101  222 1    
   201  101  223 1    
   202  101  224 1    
   203  102  103 2    
   204  102  104 am   BACKBONE|DICT|INTERRES
   205  104  105 1    
   206  104  225 1    
   207  105  106 1    
   208  105  107 1    
   209  105  226 1    
   210  106  227 1    
   211  106  228 1    
   212  106  229 1    
   213  107  108 2    
   214  107  109 am   BACKBONE|DICT|INTERRES
   215  109  110 1    
   216  109  230 1    
   217  110  111 1    
   218  110  112 1    
   219  110  231 1    
   220  111  232 1    
   221  111  233 1    
   222  111  234 1    
   223  112  113 2    
   224  112  114 am   BACKBONE|DICT|INTERRES
   225  114  115 1    
   226  114  235 1    
   227  115  116 1    
   228  115  117 1    
   229  115  236 1    
   230  116  237 1    
   231  116  238 1    
   232  116  239 1    
   233  117  118 2    
   234  117  119 am   BACKBONE|DICT|INTERRES
   235  119  120 1    
   236  119  240 1    
   237  120  121 1    
   238  120  124 1    
   239  120  241 1    
   240  121  122 am   BACKBONE|DICT|INTERRES
   241  121  123 2    
   242  122  242 1    
   243  122  243 1    
   244  124  125 1    
   245  124  244 1    
   246  124  245 1    
   247  125  126 1    
   248  126  246 1    
   249  126  247 1    
@<TRIPOS>SUBSTRUCTURE
     1 UNK         1 GROUP             0       ****    0 ROOT    
