@<TRIPOS>MOLECULE
3R540
247   249    1
SMALL
USER_CHARGES


@<TRIPOS>ATOM
      1 CA         -0.5900  -12.1290  -43.1980 C.3       0 UNK        -0.1800 
      2 C          -0.6449  -11.6919  -44.6537 C.2       0 UNK         0.5000 
      3 O          -1.4458  -10.8264  -45.0072 O.2       0 UNK        -0.5000 
      4 N           0.2123  -12.2799  -45.4959 N.am      1 UNK        -0.5000 
      5 CA          0.3639  -11.9376  -46.9157 C.3       1 UNK         0.1400 
      6 C6          1.0417  -13.0736  -47.7188 C.3       23 UNK        -0.0398 
      7 S7          0.1209  -14.6442  -47.6180 S.3       23 UNK        -0.2404 
      8 C8         -0.5668  -14.7682  -49.2955 C.3       23 UNK        -0.0205 
      9 C9         -1.3293  -16.0704  -49.4781 C.ar      23 UNK        -0.0193 
     10 C10        -2.6914  -16.1373  -49.1735 C.ar      23 UNK        -0.1150 
     11 C11        -3.3985  -17.3318  -49.3398 C.ar      23 UNK        -0.0193 
     12 C12        -2.7358  -18.4604  -49.8293 C.ar      23 UNK        -0.1150 
     13 C13        -1.3728  -18.4068  -50.1358 C.ar      23 UNK        -0.0193 
     14 C14        -0.6743  -17.2096  -49.9546 C.ar      23 UNK        -0.1150 
     15 C15        -0.6554  -19.6372  -50.6712 C.3       23 UNK        -0.0205 
     16 S16         0.0875  -20.6253  -49.3346 S.3       23 UNK        -0.2404 
     17 C17        -1.4047  -21.3017  -48.5389 C.3       23 UNK        -0.0398 
     18 CA         -1.1023  -22.5242  -47.6442 C.3       11 UNK         0.1400 
     19 N          -0.3092  -22.1928  -46.4599 N.am      11 UNK        -0.5000 
     20 C           0.1895  -23.0923  -45.5990 C.2       10 UNK         0.5000 
     21 O           0.1255  -24.3108  -45.7641 O.2       10 UNK        -0.5000 
     22 CA          0.8110  -22.5372  -44.3057 C.3       10 UNK         0.1400 
     23 CB          2.2726  -22.1177  -44.5251 C.3       10 UNK        -0.1800 
     24 N           0.0446  -21.4105  -43.7716 N.am      10 UNK        -0.5000 
     25 C          -1.1923  -21.5107  -43.2635 C.2       9 UNK         0.5000 
     26 O          -1.8019  -22.5744  -43.1487 O.2       9 UNK        -0.5000 
     27 CA         -1.8774  -20.1949  -42.8554 C.3       9 UNK         0.1400 
     28 CB         -1.4233  -19.7536  -41.4561 C.3       9 UNK        -0.1800 
     29 N          -1.6246  -19.1187  -43.8137 N.am      9 UNK        -0.5000 
     30 C          -2.1340  -19.0809  -45.0544 C.2       8 UNK         0.5000 
     31 O          -2.8864  -19.9404  -45.5094 O.2       8 UNK        -0.5000 
     32 CA         -1.7023  -17.9089  -45.9543 C.3       8 UNK         0.1400 
     33 CB         -2.6143  -16.6972  -45.7081 C.3       8 UNK        -0.1800 
     34 N          -0.3102  -17.5077  -45.7595 N.am      8 UNK        -0.5000 
     35 C           0.7604  -18.3071  -45.8694 C.2       7 UNK         0.5000 
     36 O           0.6972  -19.4940  -46.1842 O.2       7 UNK        -0.5000 
     37 CA          2.1241  -17.6993  -45.4910 C.3       7 UNK         0.1400 
     38 CB          2.8960  -17.2565  -46.7423 C.3       7 UNK        -0.1800 
     39 N           2.0211  -16.5745  -44.5563 N.am      7 UNK        -0.5000 
     40 C           1.5520  -16.6503  -43.3029 C.2       6 UNK         0.5000 
     41 O           1.1453  -17.6999  -42.8006 O.2       6 UNK        -0.5000 
     42 CA          1.5119  -15.3342  -42.4954 C.3       6 UNK         0.1400 
     43 CB          1.1598  -15.5552  -41.0139 C.3       6 UNK        -0.1800 
     44 N           2.7626  -14.5750  -42.5719 N.am      6 UNK        -0.5000 
     45 C           3.1722  -13.8276  -43.6018 C.2       5 UNK         0.5000 
     46 O           2.5063  -13.6796  -44.6286 O.2       5 UNK        -0.5000 
     47 CA          4.5382  -13.1299  -43.4474 C.3       5 UNK         0.1400 
     48 CB          5.0815  -12.6170  -44.7913 C.3       5 UNK        -0.1800 
     49 N           4.4662  -12.0150  -42.5019 N.am      5 UNK        -0.5000 
     50 C           4.4052  -12.1420  -41.1677 C.2       4 UNK         0.5000 
     51 O           4.4431  -13.2307  -40.5910 O.2       4 UNK        -0.5000 
     52 CA          4.2882  -10.8553  -40.3257 C.3       4 UNK         0.1400 
     53 CB          5.6405  -10.5115  -39.6823 C.3       4 UNK        -0.1800 
     54 N           3.8163   -9.6910  -41.0763 N.am      4 UNK        -0.5000 
     55 C           2.5734   -9.5239  -41.5463 C.2       3 UNK         0.5000 
     56 O           1.6688  -10.3444  -41.3924 O.2       3 UNK        -0.5000 
     57 CA          2.2901   -8.2307  -42.3380 C.3       3 UNK         0.1400 
     58 CB          3.2590   -7.0719  -42.0104 C.3       3 UNK        -0.1800 
     59 N           2.2464   -8.4726  -43.7836 N.am      3 UNK        -0.5000 
     60 C           3.2218   -8.9800  -44.5503 C.2       2 UNK         0.5000 
     61 O           4.3119   -9.3631  -44.1212 O.2       2 UNK        -0.5000 
     62 CA          2.8740   -9.1549  -46.0333 C.3       2 UNK         0.1400 
     63 CB          4.1122   -9.2518  -46.9459 C.3       2 UNK        -0.1800 
     64 N           2.0667  -10.3613  -46.1382 N.am      2 UNK        -0.5000 
     65 C           1.1562  -10.6245  -47.0822 C.2       1 UNK         0.5000 
     66 O           0.9209   -9.8823  -48.0365 O.2       1 UNK        -0.5000 
     67 C          -2.4089  -23.2370  -47.2526 C.2       11 UNK         0.5000 
     68 O          -2.6703  -24.3186  -47.7740 O.2       11 UNK        -0.5000 
     69 N          -3.1855  -22.6539  -46.3269 N.am      12 UNK        -0.5000 
     70 CA         -4.4608  -23.1939  -45.8450 C.3       12 UNK         0.1400 
     71 CB         -5.0992  -22.2161  -44.8479 C.3       12 UNK        -0.1800 
     72 C          -4.3414  -24.5980  -45.2265 C.2       12 UNK         0.5000 
     73 O          -5.1856  -25.4511  -45.5014 O.2       12 UNK        -0.5000 
     74 N          -3.2649  -24.8352  -44.4638 N.am      13 UNK        -0.5000 
     75 CA         -2.9218  -26.1356  -43.8801 C.3       13 UNK         0.1400 
     76 CB         -1.7176  -25.9615  -42.9424 C.3       13 UNK        -0.1800 
     77 C          -2.6373  -27.2367  -44.9245 C.2       13 UNK         0.5000 
     78 O          -2.8388  -28.4150  -44.6288 O.2       13 UNK        -0.5000 
     79 N          -2.1957  -26.8364  -46.1232 N.am      14 UNK        -0.5000 
     80 CA         -1.9266  -27.7079  -47.2673 C.3       14 UNK         0.1400 
     81 CB         -0.6011  -27.2568  -47.9055 C.3       14 UNK        -0.1800 
     82 C          -3.0629  -27.6784  -48.3109 C.2       14 UNK         0.5000 
     83 O          -2.9080  -28.2767  -49.3771 O.2       14 UNK        -0.5000 
     84 N          -4.1517  -26.9411  -48.0318 N.am      15 UNK        -0.5000 
     85 CA         -5.2721  -26.6270  -48.9321 C.3       15 UNK         0.1400 
     86 CB         -6.1339  -27.8825  -49.1756 C.3       15 UNK        -0.1800 
     87 C          -4.8205  -25.9514  -50.2490 C.2       15 UNK         0.5000 
     88 O          -5.4138  -26.1844  -51.3039 O.2       15 UNK        -0.5000 
     89 N          -3.7248  -25.1804  -50.1689 N.am      16 UNK        -0.5000 
     90 CA         -2.9646  -24.5530  -51.2560 C.3       16 UNK         0.1400 
     91 CB         -3.7596  -23.3724  -51.8460 C.3       16 UNK        -0.1800 
     92 C          -2.4790  -25.5509  -52.3338 C.2       16 UNK         0.5000 
     93 O          -2.2644  -25.1572  -53.4799 O.2       16 UNK        -0.5000 
     94 N          -2.3557  -26.8361  -51.9599 N.am      17 UNK        -0.5000 
     95 CA         -2.1068  -27.9943  -52.8263 C.3       17 UNK         0.1400 
     96 CB         -0.6842  -27.9371  -53.4210 C.3       17 UNK        -0.1800 
     97 C          -3.1992  -28.2010  -53.9027 C.2       17 UNK         0.5000 
     98 O          -2.9234  -28.8051  -54.9407 O.2       17 UNK        -0.5000 
     99 N          -4.4141  -27.6890  -53.6384 N.am      18 UNK        -0.5000 
    100 CA        -5.5777  -27.6389  -54.5299 C.3       18 UNK         0.1400 
    101 CB        -6.1404  -29.0548  -54.7738 C.3       18 UNK        -0.1800 
    102 C         -5.3072  -26.8572  -55.8360 C.2       18 UNK         0.5000 
    103 O         -5.8252  -27.2226  -56.8934 O.2       18 UNK        -0.5000 
    104 N         -4.4934  -25.7989  -55.7430 N.am      19 UNK        -0.5000 
    105 CA        -4.0543  -24.9634  -56.8559 C.3       19 UNK         0.1400 
    106 CB        -2.7428  -25.5451  -57.4187 C.3       19 UNK        -0.1800 
    107 C         -3.8777  -23.5089  -56.3861 C.2       19 UNK         0.5000 
    108 O         -4.0823  -23.2109  -55.2072 O.2       19 UNK        -0.5000 
    109 N         -3.4898  -22.6345  -57.3258 N.am      20 UNK        -0.5000 
    110 CA        -3.1860  -21.2105  -57.1390 C.3       20 UNK         0.1400 
    111 CB        -1.9197  -21.0451  -56.2660 C.3       20 UNK        -0.1800 
    112 C         -4.3944  -20.3854  -56.6377 C.2       20 UNK         0.5000 
    113 O         -5.5438  -20.7622  -56.8816 O.2       20 UNK        -0.5000 
    114 N         -4.1140  -19.2558  -55.9814 N.am      21 UNK        -0.5000 
    115 CA        -5.0730  -18.3311  -55.3898 C.3       21 UNK         0.1400 
    116 CB        -5.7127  -17.4554  -56.4843 C.3       21 UNK        -0.1800 
    117 C         -4.3321  -17.4697  -54.3560 C.2       21 UNK         0.5000 
    118 O         -3.0998  -17.3993  -54.3876 O.2       21 UNK        -0.5000 
    119 N         -5.0958  -16.8205  -53.4717 N.am      22 UNK        -0.5000 
    120 CA        -4.5819  -15.9348  -52.4108 C.3       22 UNK         0.1400 
    121 C         -4.1489  -14.5188  -52.8959 C.2       22 UNK         0.5000 
    122 N         -4.3920  -14.1343  -54.1433 N.am      22 UNK        -0.7600 
    123 O         -3.5756  -13.7533  -52.1261 O.2       22 UNK        -0.5000 
    124 C124       -5.5771  -15.8298  -51.2253 C.3       23 UNK        -0.0398 
    125 S125       -5.9362  -17.4513  -50.4646 S.3       23 UNK        -0.2404 
    126 C126       -4.8758  -17.4071  -48.9844 C.3       23 UNK        -0.0205 
    127 H127        0.4281  -12.3826  -42.9031 H         1 UNK         0.0600 
    128 H128       -1.2292  -12.9969  -43.0378 H         1 UNK         0.0600 
    129 H129       -0.9312  -11.3255  -42.5451 H         1 UNK         0.0600 
    130 H130        0.8802  -12.9631  -45.1464 H         1 UNK         0.3000 
    131 H131       -0.6298  -11.7747  -47.3389 H         1 UNK         0.0600 
    132 H132        2.0519  -13.2557  -47.3472 H         1 UNK         0.0800 
    133 H133        1.1528  -12.7881  -48.7663 H         1 UNK         0.0800 
    134 H134        0.2402  -14.7059  -50.0272 H         1 UNK         0.0800 
    135 H135       -1.2247  -13.9183  -49.4845 H         1 UNK         0.0800 
    136 H136       -3.1973  -15.2586  -48.7990 H         1 UNK         0.1150 
    137 H137       -3.2845  -19.3810  -49.9691 H         1 UNK         0.1150 
    138 H138        0.3810  -17.1646  -50.1844 H         1 UNK         0.1150 
    139 H139       -1.3400  -20.2554  -51.2541 H         1 UNK         0.0800 
    140 H140        0.1334  -19.3308  -51.3598 H         1 UNK         0.0800 
    141 H141       -2.1064  -21.5767  -49.3289 H         1 UNK         0.0800 
    142 H142       -1.8826  -20.5100  -47.9617 H         1 UNK         0.0800 
    143 H143       -0.5194  -23.2348  -48.2346 H         1 UNK         0.0600 
    144 H144       -0.1359  -21.2055  -46.2883 H         1 UNK         0.3000 
    145 H145        0.7973  -23.3362  -43.5612 H         1 UNK         0.0600 
    146 H146        2.7233  -21.7588  -43.5998 H         1 UNK         0.0600 
    147 H147        2.8696  -22.9623  -44.8713 H         1 UNK         0.0600 
    148 H148        2.3632  -21.3280  -45.2708 H         1 UNK         0.0600 
    149 H149        0.4515  -20.4922  -43.8761 H         1 UNK         0.3000 
    150 H150       -2.9539  -20.3747  -42.8207 H         1 UNK         0.0600 
    151 H151       -1.6374  -20.5258  -40.7161 H         1 UNK         0.0600 
    152 H152       -1.9414  -18.8480  -41.1404 H         1 UNK         0.0600 
    153 H153       -0.3514  -19.5554  -41.4222 H         1 UNK         0.0600 
    154 H154       -0.9689  -18.4022  -43.5309 H         1 UNK         0.3000 
    155 H155       -1.8091  -18.2239  -46.9932 H         1 UNK         0.0600 
    156 H156       -2.5515  -16.3477  -44.6769 H         1 UNK         0.0600 
    157 H157       -3.6567  -16.9483  -45.9087 H         1 UNK         0.0600 
    158 H158       -2.3530  -15.8625  -46.3571 H         1 UNK         0.0600 
    159 H159       -0.1501  -16.5386  -45.5290 H         1 UNK         0.3000 
    160 H160        2.7002  -18.4860  -44.9994 H         1 UNK         0.0600 
    161 H161        3.9003  -16.9183  -46.4868 H         1 UNK         0.0600 
    162 H162        3.0002  -18.0818  -47.4481 H         1 UNK         0.0600 
    163 H163        2.3918  -16.4434  -47.2633 H         1 UNK         0.0600 
    164 H164        2.3057  -15.6632  -44.8986 H         1 UNK         0.3000 
    165 H165        0.7137  -14.7347  -42.9344 H         1 UNK         0.0600 
    166 H166        1.0857  -14.6064  -40.4819 H         1 UNK         0.0600 
    167 H167        0.1986  -16.0599  -40.9077 H         1 UNK         0.0600 
    168 H168        1.9107  -16.1649  -40.5100 H         1 UNK         0.0600 
    169 H169        3.3539  -14.5957  -41.7485 H         1 UNK         0.3000 
    170 H170        5.2471  -13.8684  -43.0671 H         1 UNK         0.0600 
    171 H171        4.4057  -11.8956  -45.2473 H         1 UNK         0.0600 
    172 H172        6.0524  -12.1366  -44.6699 H         1 UNK         0.0600 
    173 H173        5.2084  -13.4371  -45.4990 H         1 UNK         0.0600 
    174 H174        4.4265  -11.0840  -42.9025 H         1 UNK         0.3000 
    175 H175        3.5715  -11.0560  -39.5266 H         1 UNK         0.0600 
    176 H176        6.3971  -10.2845  -40.4345 H         1 UNK         0.0600 
    177 H177        5.5552   -9.6500  -39.0197 H         1 UNK         0.0600 
    178 H178        6.0125  -11.3440  -39.0834 H         1 UNK         0.0600 
    179 H179        4.5041   -8.9830  -41.2894 H         1 UNK         0.3000 
    180 H180        1.2889   -7.9098  -42.0461 H         1 UNK         0.0600 
    181 H181        4.2793   -7.2736  -42.3379 H         1 UNK         0.0600 
    182 H182        3.2868   -6.8751  -40.9378 H         1 UNK         0.0600 
    183 H183        2.9371   -6.1506  -42.4959 H         1 UNK         0.0600 
    184 H184        1.3650   -8.2534  -44.2268 H         1 UNK         0.3000 
    185 H185        2.2837   -8.2900  -46.3435 H         1 UNK         0.0600 
    186 H186        4.7428   -8.3688  -46.8377 H         1 UNK         0.0600 
    187 H187        4.7255  -10.1224  -46.7154 H         1 UNK         0.0600 
    188 H188        3.8238   -9.3175  -47.9950 H         1 UNK         0.0600 
    189 H189        2.1702  -11.0243  -45.3820 H         1 UNK         0.3000 
    190 H190       -2.9212  -21.7430  -45.9580 H         1 UNK         0.3000 
    191 H191       -5.1240  -23.2749  -46.7086 H         1 UNK         0.0600 
    192 H192       -4.4560  -22.0459  -43.9843 H         1 UNK         0.0600 
    193 H193       -6.0517  -22.5983  -44.4789 H         1 UNK         0.0600 
    194 H194       -5.2970  -21.2509  -45.3144 H         1 UNK         0.0600 
    195 H195       -2.6399  -24.0637  -44.2506 H         1 UNK         0.3000 
    196 H196       -3.7742  -26.4656  -43.2830 H         1 UNK         0.0600 
    197 H197       -1.4470  -26.9072  -42.4711 H         1 UNK         0.0600 
    198 H198       -1.9385  -25.2525  -42.1443 H         1 UNK         0.0600 
    199 H199       -0.8407  -25.5982  -43.4793 H         1 UNK         0.0600 
    200 H200       -2.0689  -25.8446  -46.2869 H         1 UNK         0.3000 
    201 H201       -1.8133  -28.7427  -46.9389 H         1 UNK         0.0600 
    202 H202        0.2129  -27.2829  -47.1808 H         1 UNK         0.0600 
    203 H203       -0.6675  -26.2395  -48.2936 H         1 UNK         0.0600 
    204 H204       -0.3178  -27.9077  -48.7336 H         1 UNK         0.0600 
    205 H205       -4.1842  -26.4773  -47.1318 H         1 UNK         0.3000 
    206 H206       -5.8885  -25.8941  -48.4099 H         1 UNK         0.0600 
    207 H207       -6.4469  -28.3335  -48.2339 H         1 UNK         0.0600 
    208 H208       -7.0387  -27.6351  -49.7319 H         1 UNK         0.0600 
    209 H209       -5.5952  -28.6388  -49.7473 H         1 UNK         0.0600 
    210 H210       -3.3305  -25.0342  -49.2398 H         1 UNK         0.3000 
    211 H211       -2.0624  -24.1463  -50.7972 H         1 UNK         0.0600 
    212 H212       -4.6518  -23.7121  -52.3732 H         1 UNK         0.0600 
    213 H213       -3.1553  -22.8078  -52.5572 H         1 UNK         0.0600 
    214 H214       -4.0730  -22.6780  -51.0665 H         1 UNK         0.0600 
    215 H215       -2.5706  -27.0746  -50.9970 H         1 UNK         0.3000 
    216 H216       -2.1572  -28.8694  -52.1769 H         1 UNK         0.0600 
    217 H217       -0.4352  -28.8688  -53.9299 H         1 UNK         0.0600 
    218 H218        0.0629  -27.7853  -52.6420 H         1 UNK         0.0600 
    219 H219       -0.5807  -27.1313  -54.1482 H         1 UNK         0.0600 
    220 H220       -4.5446  -27.2046  -52.7548 H         1 UNK         0.3000 
    221 H221       -6.3404  -27.0717  -53.9945 H         1 UNK         0.0600 
    222 H222       -5.4558  -29.6682  -55.3601 H         1 UNK         0.0600 
    223 H223       -6.3310  -29.5701  -53.8324 H         1 UNK         0.0600 
    224 H224       -7.0859  -29.0118  -55.3155 H         1 UNK         0.0600 
    225 H225       -4.1190  -25.5245  -54.8414 H         1 UNK         0.3000 
    226 H226       -4.8156  -24.9601  -57.6387 H         1 UNK         0.0600 
    227 H227       -2.8745  -26.5801  -57.7349 H         1 UNK         0.0600 
    228 H228       -2.3949  -24.9867  -58.2880 H         1 UNK         0.0600 
    229 H229       -1.9476  -25.5252  -56.6719 H         1 UNK         0.0600 
    230 H230       -3.3940  -22.9697  -58.2737 H         1 UNK         0.3000 
    231 H231       -2.9525  -20.8233  -58.1317 H         1 UNK         0.0600 
    232 H232       -1.1140  -21.6892  -56.6188 H         1 UNK         0.0600 
    233 H233       -2.1111  -21.2970  -55.2221 H         1 UNK         0.0600 
    234 H234       -1.5415  -20.0229  -56.2972 H         1 UNK         0.0600 
    235 H235       -3.1503  -19.0129  -55.7845 H         1 UNK         0.3000 
    236 H236       -5.8467  -18.9023  -54.8724 H         1 UNK         0.0600 
    237 H237       -6.4273  -16.7505  -56.0580 H         1 UNK         0.0600 
    238 H238       -4.9616  -16.8778  -57.0245 H         1 UNK         0.0600 
    239 H239       -6.2551  -18.0595  -57.2116 H         1 UNK         0.0600 
    240 H240       -6.0987  -16.9296  -53.5084 H         1 UNK         0.3000 
    241 H241       -3.6679  -16.3901  -52.0251 H         1 UNK         0.0600 
    242 H242       -4.1028  -13.2167  -54.4440 H         1 UNK         0.3800 
    243 H243       -4.8574  -14.7503  -54.7897 H         1 UNK         0.3800 
    244 H244       -6.5195  -15.3958  -51.5627 H         1 UNK         0.0800 
    245 H245       -5.1984  -15.1559  -50.4552 H         1 UNK         0.0800 
    246 H246       -5.0563  -18.3058  -48.3927 H         1 UNK         0.0800 
    247 H247       -5.1669  -16.5655  -48.3539 H         1 UNK         0.0800 
@<TRIPOS>BOND
     1    1    2 1    
     2    1  127 1    
     3    1  128 1    
     4    1  129 1    
     5    2    3 2    
     6    2    4 am   BACKBONE|DICT|INTERRES
     7    4    5 1    
     8    4  130 1    
     9    5    6 1    
    10    5   65 1    
    11    5  131 1    
    12    6    7 1    
    13    6  132 1    
    14    6  133 1    
    15    7    8 1    
    16    8    9 1    
    17    8  134 1    
    18    8  135 1    
    19    9   10 ar   
    20    9   14 ar   
    21   10   11 ar   
    22   10  136 1    
    23   11   12 ar   
    24   11  126 1    
    25   12   13 ar   
    26   12  137 1    
    27   13   14 ar   
    28   13   15 1    
    29   14  138 1    
    30   15   16 1    
    31   15  139 1    
    32   15  140 1    
    33   16   17 1    
    34   17   18 1    
    35   17  141 1    
    36   17  142 1    
    37   18   19 1    
    38   18   67 1    
    39   18  143 1    
    40   19   20 am   BACKBONE|DICT|INTERRES
    41   19  144 1    
    42   20   21 2    
    43   20   22 1    
    44   22   23 1    
    45   22   24 1    
    46   22  145 1    
    47   23  146 1    
    48   23  147 1    
    49   23  148 1    
    50   24   25 am   BACKBONE|DICT|INTERRES
    51   24  149 1    
    52   25   26 2    
    53   25   27 1    
    54   27   28 1    
    55   27   29 1    
    56   27  150 1    
    57   28  151 1    
    58   28  152 1    
    59   28  153 1    
    60   29   30 am   BACKBONE|DICT|INTERRES
    61   29  154 1    
    62   30   31 2    
    63   30   32 1    
    64   32   33 1    
    65   32   34 1    
    66   32  155 1    
    67   33  156 1    
    68   33  157 1    
    69   33  158 1    
    70   34   35 am   BACKBONE|DICT|INTERRES
    71   34  159 1    
    72   35   36 2    
    73   35   37 1    
    74   37   38 1    
    75   37   39 1    
    76   37  160 1    
    77   38  161 1    
    78   38  162 1    
    79   38  163 1    
    80   39   40 am   BACKBONE|DICT|INTERRES
    81   39  164 1    
    82   40   41 2    
    83   40   42 1    
    84   42   43 1    
    85   42   44 1    
    86   42  165 1    
    87   43  166 1    
    88   43  167 1    
    89   43  168 1    
    90   44   45 am   BACKBONE|DICT|INTERRES
    91   44  169 1    
    92   45   46 2    
    93   45   47 1    
    94   47   48 1    
    95   47   49 1    
    96   47  170 1    
    97   48  171 1    
    98   48  172 1    
    99   48  173 1    
   100   49   50 am   BACKBONE|DICT|INTERRES
   101   49  174 1    
   102   50   51 2    
   103   50   52 1    
   104   52   53 1    
   105   52   54 1    
   106   52  175 1    
   107   53  176 1    
   108   53  177 1    
   109   53  178 1    
   110   54   55 am   BACKBONE|DICT|INTERRES
   111   54  179 1    
   112   55   56 2    
   113   55   57 1    
   114   57   58 1    
   115   57   59 1    
   116   57  180 1    
   117   58  181 1    
   118   58  182 1    
   119   58  183 1    
   120   59   60 am   BACKBONE|DICT|INTERRES
   121   59  184 1    
   122   60   61 2    
   123   60   62 1    
   124   62   63 1    
   125   62   64 1    
   126   62  185 1    
   127   63  186 1    
   128   63  187 1    
   129   63  188 1    
   130   64   65 am   BACKBONE|DICT|INTERRES
   131   64  189 1    
   132   65   66 2    
   133   67   68 2    
   134   67   69 am   BACKBONE|DICT|INTERRES
   135   69   70 1    
   136   69  190 1    
   137   70   71 1    
   138   70   72 1    
   139   70  191 1    
   140   71  192 1    
   141   71  193 1    
   142   71  194 1    
   143   72   73 2    
   144   72   74 am   BACKBONE|DICT|INTERRES
   145   74   75 1    
   146   74  195 1    
   147   75   76 1    
   148   75   77 1    
   149   75  196 1    
   150   76  197 1    
   151   76  198 1    
   152   76  199 1    
   153   77   78 2    
   154   77   79 am   BACKBONE|DICT|INTERRES
   155   79   80 1    
   156   79  200 1    
   157   80   81 1    
   158   80   82 1    
   159   80  201 1    
   160   81  202 1    
   161   81  203 1    
   162   81  204 1    
   163   82   83 2    
   164   82   84 am   BACKBONE|DICT|INTERRES
   165   84   85 1    
   166   84  205 1    
   167   85   86 1    
   168   85   87 1    
   169   85  206 1    
   170   86  207 1    
   171   86  208 1    
   172   86  209 1    
   173   87   88 2    
   174   87   89 am   BACKBONE|DICT|INTERRES
   175   89   90 1    
   176   89  210 1    
   177   90   91 1    
   178   90   92 1    
   179   90  211 1    
   180   91  212 1    
   181   91  213 1    
   182   91  214 1    
   183   92   93 2    
   184   92   94 am   BACKBONE|DICT|INTERRES
   185   94   95 1    
   186   94  215 1    
   187   95   96 1    
   188   95   97 1    
   189   95  216 1    
   190   96  217 1    
   191   96  218 1    
   192   96  219 1    
   193   97   98 2    
   194   97   99 am   BACKBONE|DICT|INTERRES
   195   99  100 1    
   196   99  220 1    
   197  100  101 1    
   198  100  102 1    
   199  100  221 1    
   200  101  222 1    
   201  101  223 1    
   202  101  224 1    
   203  102  103 2    
   204  102  104 am   BACKBONE|DICT|INTERRES
   205  104  105 1    
   206  104  225 1    
   207  105  106 1    
   208  105  107 1    
   209  105  226 1    
   210  106  227 1    
   211  106  228 1    
   212  106  229 1    
   213  107  108 2    
   214  107  109 am   BACKBONE|DICT|INTERRES
   215  109  110 1    
   216  109  230 1    
   217  110  111 1    
   218  110  112 1    
   219  110  231 1    
   220  111  232 1    
   221  111  233 1    
   222  111  234 1    
   223  112  113 2    
   224  112  114 am   BACKBONE|DICT|INTERRES
   225  114  115 1    
   226  114  235 1    
   227  115  116 1    
   228  115  117 1    
   229  115  236 1    
   230  116  237 1    
   231  116  238 1    
   232  116  239 1    
   233  117  118 2    
   234  117  119 am   BACKBONE|DICT|INTERRES
   235  119  120 1    
   236  119  240 1    
   237  120  121 1    
   238  120  124 1    
   239  120  241 1    
   240  121  122 am   BACKBONE|DICT|INTERRES
   241  121  123 2    
   242  122  242 1    
   243  122  243 1    
   244  124  125 1    
   245  124  244 1    
   246  124  245 1    
   247  125  126 1    
   248  126  246 1    
   249  126  247 1    
@<TRIPOS>SUBSTRUCTURE
     1 UNK         1 GROUP             0       ****    0 ROOT    
