@<TRIPOS>MOLECULE
3R540
247   249    1
SMALL
USER_CHARGES


@<TRIPOS>ATOM
      1 CA          2.8988  -10.5342  -50.3627 C.3       0 UNK        -0.1800 
      2 C           3.0243  -11.4809  -49.1777 C.2       0 UNK         0.5000 
      3 O           3.4037  -11.0528  -48.0879 O.2       0 UNK        -0.5000 
      4 N           2.7022  -12.7641  -49.3850 N.am      1 UNK        -0.5000 
      5 CA          2.7701  -13.8212  -48.3657 C.3       1 UNK         0.1400 
      6 C6          2.7756  -15.2345  -48.9914 C.3       23 UNK        -0.0398 
      7 S7          4.2212  -15.5255  -50.0696 S.3       23 UNK        -0.2404 
      8 C8          3.4449  -15.7941  -51.7014 C.3       23 UNK        -0.0205 
      9 C9          2.3807  -16.8884  -51.7036 C.ar      23 UNK        -0.0193 
     10 C10         1.1614  -16.6698  -52.3521 C.ar      23 UNK        -0.1150 
     11 C11         0.1651  -17.6508  -52.3498 C.ar      23 UNK        -0.0193 
     12 C12         0.3922  -18.8564  -51.6781 C.ar      23 UNK        -0.1150 
     13 C13         1.6033  -19.0868  -51.0194 C.ar      23 UNK        -0.0193 
     14 C14         2.6000  -18.1089  -51.0565 C.ar      23 UNK        -0.1150 
     15 C15         1.8458  -20.3833  -50.2606 C.3       23 UNK        -0.0205 
     16 S16         1.8105  -20.1240  -48.4562 S.3       23 UNK        -0.2404 
     17 C17         0.0199  -20.0133  -48.1219 C.3       23 UNK        -0.0398 
     18 CA         -0.4981  -21.2909  -47.4215 C.3       11 UNK         0.1400 
     19 N          -0.0498  -21.4074  -46.0305 N.am      11 UNK        -0.5000 
     20 C          -0.1903  -22.5162  -45.2887 C.2       10 UNK         0.5000 
     21 O          -0.6787  -23.5640  -45.7128 O.2       10 UNK        -0.5000 
     22 CA          0.2312  -22.4260  -43.8116 C.3       10 UNK         0.1400 
     23 CB          1.7600  -22.4644  -43.6696 C.3       10 UNK        -0.1800 
     24 N          -0.2983  -21.2330  -43.1515 N.am      10 UNK        -0.5000 
     25 C          -1.6018  -20.9664  -42.9879 C.2       9 UNK         0.5000 
     26 O          -2.5052  -21.7228  -43.3407 O.2       9 UNK        -0.5000 
     27 CA         -1.9608  -19.6043  -42.3706 C.3       9 UNK         0.1400 
     28 CB         -1.8680  -19.6496  -40.8380 C.3       9 UNK        -0.1800 
     29 N          -1.1212  -18.5237  -42.8847 N.am      9 UNK        -0.5000 
     30 C          -1.1245  -18.0937  -44.1546 C.2       8 UNK         0.5000 
     31 O          -1.8530  -18.5496  -45.0357 O.2       8 UNK        -0.5000 
     32 CA         -0.1021  -16.9997  -44.5017 C.3       8 UNK         0.1400 
     33 CB         -0.5915  -15.6332  -44.0040 C.3       8 UNK        -0.1800 
     34 N           1.2147  -17.2871  -43.9333 N.am      8 UNK        -0.5000 
     35 C           1.9804  -18.3246  -44.3046 C.2       7 UNK         0.5000 
     36 O           1.6606  -19.1301  -45.1781 O.2       7 UNK        -0.5000 
     37 CA          3.2972  -18.5332  -43.5319 C.3       7 UNK         0.1400 
     38 CB          4.4203  -17.6862  -44.1489 C.3       7 UNK        -0.1800 
     39 N           3.1838  -18.2201  -42.1061 N.am      7 UNK        -0.5000 
     40 C           2.3303  -18.8048  -41.2530 C.2       6 UNK         0.5000 
     41 O           1.5954  -19.7409  -41.5655 O.2       6 UNK        -0.5000 
     42 CA          2.2477  -18.2319  -39.8236 C.3       6 UNK         0.1400 
     43 CB          2.9746  -19.1562  -38.8355 C.3       6 UNK        -0.1800 
     44 N           2.7710  -16.8687  -39.6747 N.am      6 UNK        -0.5000 
     45 C           2.2962  -15.7773  -40.2908 C.2       5 UNK         0.5000 
     46 O           1.3879  -15.8021  -41.1251 O.2       5 UNK        -0.5000 
     47 CA          3.0200  -14.4574  -39.9629 C.3       5 UNK         0.1400 
     48 CB          4.2909  -14.3282  -40.8185 C.3       5 UNK        -0.1800 
     49 N           2.1886  -13.2780  -40.1945 N.am      5 UNK        -0.5000 
     50 C           1.0828  -12.9454  -39.5135 C.2       4 UNK         0.5000 
     51 O           0.6597  -13.5815  -38.5470 O.2       4 UNK        -0.5000 
     52 CA          0.3355  -11.6714  -39.9704 C.3       4 UNK         0.1400 
     53 CB          0.5322  -10.5369  -38.9521 C.3       4 UNK        -0.1800 
     54 N           0.7581  -11.1946  -41.2925 N.am      4 UNK        -0.5000 
     55 C           0.4218  -11.7804  -42.4489 C.2       3 UNK         0.5000 
     56 O          -0.3725  -12.7199  -42.5216 O.2       3 UNK        -0.5000 
     57 CA          1.1249  -11.2441  -43.7126 C.3       3 UNK         0.1400 
     58 CB          2.6557  -11.3596  -43.5901 C.3       3 UNK        -0.1800 
     59 N           0.7195  -11.9898  -44.8995 N.am      3 UNK        -0.5000 
     60 C          -0.3621  -11.7601  -45.6480 C.2       2 UNK         0.5000 
     61 O          -1.1197  -10.8038  -45.4716 O.2       2 UNK        -0.5000 
     62 CA         -0.6195  -12.7671  -46.7940 C.3       2 UNK         0.1400 
     63 CB         -1.7954  -12.3536  -47.6972 C.3       2 UNK        -0.1800 
     64 N           0.5594  -12.9907  -47.6369 N.am      2 UNK        -0.5000 
     65 C           1.6397  -13.7198  -47.3194 C.2       1 UNK         0.5000 
     66 O           1.7702  -14.2987  -46.2408 O.2       1 UNK        -0.5000 
     67 C          -2.0283  -21.4172  -47.5454 C.2       11 UNK         0.5000 
     68 O          -2.4894  -22.1022  -48.4569 O.2       11 UNK        -0.5000 
     69 N          -2.7893  -20.8105  -46.6229 N.am      12 UNK        -0.5000 
     70 CA         -4.2480  -20.9295  -46.5616 C.3       12 UNK         0.1400 
     71 CB         -4.8127  -19.9627  -45.5108 C.3       12 UNK        -0.1800 
     72 C          -4.7173  -22.3721  -46.2942 C.2       12 UNK         0.5000 
     73 O          -5.6095  -22.8534  -46.9924 O.2       12 UNK        -0.5000 
     74 N          -4.0780  -23.0526  -45.3316 N.am      13 UNK        -0.5000 
     75 CA         -4.3346  -24.4531  -44.9822 C.3       13 UNK         0.1400 
     76 CB         -3.5484  -24.8178  -43.7140 C.3       13 UNK        -0.1800 
     77 C          -4.0061  -25.4334  -46.1244 C.2       13 UNK         0.5000 
     78 O          -4.7372  -26.4041  -46.3228 O.2       13 UNK        -0.5000 
     79 N          -2.9378  -25.1409  -46.8776 N.am      14 UNK        -0.5000 
     80 CA         -2.5308  -25.8727  -48.0790 C.3       14 UNK         0.1400 
     81 CB         -1.0439  -25.5844  -48.3446 C.3       14 UNK        -0.1800 
     82 C          -3.3687  -25.5242  -49.3274 C.2       14 UNK         0.5000 
     83 O          -3.1478  -26.1233  -50.3815 O.2       14 UNK        -0.5000 
     84 N          -4.2622  -24.5288  -49.2201 N.am      15 UNK        -0.5000 
     85 CA         -5.0616  -23.9329  -50.2946 C.3       15 UNK         0.1400 
     86 CB         -6.1329  -24.9223  -50.7957 C.3       15 UNK        -0.1800 
     87 C          -4.1857  -23.3721  -51.4331 C.2       15 UNK         0.5000 
     88 O          -4.5285  -23.5226  -52.6060 O.2       15 UNK        -0.5000 
     89 N          -3.0644  -22.7412  -51.0583 N.am      16 UNK        -0.5000 
     90 CA         -1.9887  -22.2312  -51.9138 C.3       16 UNK         0.1400 
     91 CB         -2.4926  -21.0855  -52.8126 C.3       16 UNK        -0.1800 
     92 C          -1.2555  -23.3469  -52.6872 C.2       16 UNK         0.5000 
     93 O          -0.8122  -23.1271  -53.8134 O.2       16 UNK        -0.5000 
     94 N          -1.1503  -24.5259  -52.0548 N.am      17 UNK        -0.5000 
     95 CA         -0.6704  -25.7949  -52.6117 C.3       17 UNK         0.1400 
     96 CB          0.8142  -25.7110  -53.0255 C.3       17 UNK        -0.1800 
     97 C          -1.6054  -26.2888  -53.7335 C.2       17 UNK         0.5000 
     98 O          -1.1502  -26.6025  -54.8349 O.2       17 UNK        -0.5000 
     99 N          -2.9081  -26.3213  -53.4118 N.am      18 UNK        -0.5000 
    100 CA        -4.0361  -26.6544  -54.2872 C.3       18 UNK         0.1400 
    101 CB        -4.0051  -28.1480  -54.6726 C.3       18 UNK        -0.1800 
    102 C         -4.1399  -25.7103  -55.5053 C.2       18 UNK         0.5000 
    103 O         -4.2058  -26.1681  -56.6480 O.2       18 UNK        -0.5000 
    104 N         -4.1568  -24.4021  -55.2275 N.am      19 UNK        -0.5000 
    105 CA        -4.2815  -23.3211  -56.2045 C.3       19 UNK         0.1400 
    106 CB        -2.9009  -22.7026  -56.4849 C.3       19 UNK        -0.1800 
    107 C         -5.3232  -22.2946  -55.7237 C.2       19 UNK         0.5000 
    108 O         -5.1013  -21.0860  -55.8205 O.2       19 UNK        -0.5000 
    109 N         -6.4484  -22.8111  -55.2062 N.am      20 UNK        -0.5000 
    110 CA        -7.6679  -22.0914  -54.8197 C.3       20 UNK         0.1400 
    111 CB        -8.3828  -21.5532  -56.0771 C.3       20 UNK        -0.1800 
    112 C         -7.4599  -21.0008  -53.7467 C.2       20 UNK         0.5000 
    113 O         -8.1460  -19.9771  -53.7769 O.2       20 UNK        -0.5000 
    114 N         -6.5126  -21.2305  -52.8233 N.am      21 UNK        -0.5000 
    115 CA        -6.1679  -20.3578  -51.6896 C.3       21 UNK         0.1400 
    116 CB        -7.2766  -20.4072  -50.6186 C.3       21 UNK        -0.1800 
    117 C         -5.7969  -18.9211  -52.1159 C.2       21 UNK         0.5000 
    118 O         -6.2056  -17.9541  -51.4713 O.2       21 UNK        -0.5000 
    119 N         -5.0408  -18.8294  -53.2171 N.am      22 UNK        -0.5000 
    120 CA        -4.6024  -17.5976  -53.8937 C.3       22 UNK         0.1400 
    121 C         -5.7133  -16.8999  -54.7378 C.2       22 UNK         0.5000 
    122 N         -6.9115  -17.4570  -54.8758 N.am      22 UNK        -0.7600 
    123 O         -5.4763  -15.8388  -55.3088 O.2       22 UNK        -0.5000 
    124 C124       -3.8510  -16.5809  -52.9804 C.3       23 UNK        -0.0398 
    125 S125       -2.5465  -17.2950  -51.9174 S.3       23 UNK        -0.2404 
    126 C126       -1.1503  -17.4057  -53.0772 C.3       23 UNK        -0.0205 
    127 H127        2.5546  -11.0498  -51.2596 H         1 UNK         0.0600 
    128 H128        3.8644  -10.0786  -50.5822 H         1 UNK         0.0600 
    129 H129        2.1894   -9.7388  -50.1340 H         1 UNK         0.0600 
    130 H130        2.4124  -13.0601  -50.3058 H         1 UNK         0.3000 
    131 H131        3.7079  -13.6976  -47.8192 H         1 UNK         0.0600 
    132 H132        2.8046  -15.9992  -48.2123 H         1 UNK         0.0800 
    133 H133        1.8486  -15.4046  -49.5407 H         1 UNK         0.0800 
    134 H134        3.0227  -14.8474  -52.0415 H         1 UNK         0.0800 
    135 H135        4.2210  -16.0609  -52.4196 H         1 UNK         0.0800 
    136 H136        0.9865  -15.7320  -52.8606 H         1 UNK         0.1150 
    137 H137       -0.3822  -19.6072  -51.6587 H         1 UNK         0.1150 
    138 H138        3.5383  -18.2891  -50.5509 H         1 UNK         0.1150 
    139 H139        1.1189  -21.1472  -50.5397 H         1 UNK         0.0800 
    140 H140        2.8238  -20.7790  -50.5379 H         1 UNK         0.0800 
    141 H141       -0.5036  -19.8394  -49.0635 H         1 UNK         0.0800 
    142 H142       -0.1691  -19.1331  -47.5048 H         1 UNK         0.0800 
    143 H143       -0.0858  -22.1480  -47.9590 H         1 UNK         0.0600 
    144 H144        0.4036  -20.5914  -45.6289 H         1 UNK         0.3000 
    145 H145       -0.1782  -23.2971  -43.2960 H         1 UNK         0.0600 
    146 H146        2.1698  -23.3713  -44.1158 H         1 UNK         0.0600 
    147 H147        2.2330  -21.6147  -44.1615 H         1 UNK         0.0600 
    148 H148        2.0591  -22.4525  -42.6213 H         1 UNK         0.0600 
    149 H149        0.3822  -20.5778  -42.7764 H         1 UNK         0.3000 
    150 H150       -2.9949  -19.3795  -42.6392 H         1 UNK         0.0600 
    151 H151       -2.1734  -18.7011  -40.3960 H         1 UNK         0.0600 
    152 H152       -0.8560  -19.8682  -40.4973 H         1 UNK         0.0600 
    153 H153       -2.5226  -20.4223  -40.4329 H         1 UNK         0.0600 
    154 H154       -0.4577  -18.1166  -42.2423 H         1 UNK         0.3000 
    155 H155       -0.0018  -16.9550  -45.5883 H         1 UNK         0.0600 
    156 H156        0.1229  -14.8474  -44.2439 H         1 UNK         0.0600 
    157 H157       -0.7378  -15.6222  -42.9233 H         1 UNK         0.0600 
    158 H158       -1.5419  -15.3648  -44.4663 H         1 UNK         0.0600 
    159 H159        1.5175  -16.6972  -43.1677 H         1 UNK         0.3000 
    160 H160        3.5719  -19.5860  -43.6203 H         1 UNK         0.0600 
    161 H161        4.5400  -17.9115  -45.2097 H         1 UNK         0.0600 
    162 H162        5.3768  -17.8852  -43.6653 H         1 UNK         0.0600 
    163 H163        4.2141  -16.6185  -44.0618 H         1 UNK         0.0600 
    164 H164        3.7521  -17.4615  -41.7615 H         1 UNK         0.3000 
    165 H165        1.1902  -18.2079  -39.5526 H         1 UNK         0.0600 
    166 H166        2.8390  -18.8207  -37.8071 H         1 UNK         0.0600 
    167 H167        2.5886  -20.1749  -38.8956 H         1 UNK         0.0600 
    168 H168        4.0454  -19.1987  -39.0382 H         1 UNK         0.0600 
    169 H169        3.5373  -16.7610  -39.0255 H         1 UNK         0.3000 
    170 H170        3.3025  -14.4682  -38.9082 H         1 UNK         0.0600 
    171 H171        4.8351  -13.4135  -40.5820 H         1 UNK         0.0600 
    172 H172        4.9721  -15.1616  -40.6424 H         1 UNK         0.0600 
    173 H173        4.0588  -14.3142  -41.8844 H         1 UNK         0.0600 
    174 H174        2.4402  -12.7035  -40.9829 H         1 UNK         0.3000 
    175 H175       -0.7287  -11.9136  -40.0090 H         1 UNK         0.0600 
    176 H176        1.5807  -10.2485  -38.8682 H         1 UNK         0.0600 
    177 H177       -0.0393   -9.6518  -39.2321 H         1 UNK         0.0600 
    178 H178        0.1945  -10.8386  -37.9597 H         1 UNK         0.0600 
    179 H179        1.3996  -10.4145  -41.3030 H         1 UNK         0.3000 
    180 H180        0.8573  -10.1925  -43.8337 H         1 UNK         0.0600 
    181 H181        3.1473  -11.0155  -44.5007 H         1 UNK         0.0600 
    182 H182        2.9685  -12.3899  -43.4150 H         1 UNK         0.0600 
    183 H183        3.0425  -10.7513  -42.7721 H         1 UNK         0.0600 
    184 H184        1.2558  -12.8249  -45.1136 H         1 UNK         0.3000 
    185 H185       -0.8872  -13.7155  -46.3248 H         1 UNK         0.0600 
    186 H186       -2.7127  -12.2368  -47.1188 H         1 UNK         0.0600 
    187 H187       -1.6008  -11.4067  -48.2022 H         1 UNK         0.0600 
    188 H188       -1.9908  -13.1075  -48.4602 H         1 UNK         0.0600 
    189 H189        0.5618  -12.5190  -48.5291 H         1 UNK         0.3000 
    190 H190       -2.3505  -20.2176  -45.9241 H         1 UNK         0.3000 
    191 H191       -4.6431  -20.6313  -47.5352 H         1 UNK         0.0600 
    192 H192       -4.4351  -20.1844  -44.5130 H         1 UNK         0.0600 
    193 H193       -5.9010  -20.0220  -45.4707 H         1 UNK         0.0600 
    194 H194       -4.5521  -18.9305  -45.7453 H         1 UNK         0.0600 
    195 H195       -3.3790  -22.5697  -44.7714 H         1 UNK         0.3000 
    196 H196       -5.3995  -24.5498  -44.7613 H         1 UNK         0.0600 
    197 H197       -3.7288  -25.8538  -43.4248 H         1 UNK         0.0600 
    198 H198       -3.8440  -24.1895  -42.8736 H         1 UNK         0.0600 
    199 H199       -2.4742  -24.6979  -43.8587 H         1 UNK         0.0600 
    200 H200       -2.3506  -24.3594  -46.6034 H         1 UNK         0.3000 
    201 H201       -2.6454  -26.9430  -47.8965 H         1 UNK         0.0600 
    202 H202       -0.4311  -25.8557  -47.4847 H         1 UNK         0.0600 
    203 H203       -0.8711  -24.5285  -48.5563 H         1 UNK         0.0600 
    204 H204       -0.6749  -26.1572  -49.1962 H         1 UNK         0.0600 
    205 H205       -4.3608  -24.0816  -48.3169 H         1 UNK         0.3000 
    206 H206       -5.5771  -23.0782  -49.8553 H         1 UNK         0.0600 
    207 H207       -6.8041  -24.4440  -51.5101 H         1 UNK         0.0600 
    208 H208       -5.6892  -25.7863  -51.2908 H         1 UNK         0.0600 
    209 H209       -6.7454  -25.2871  -49.9712 H         1 UNK         0.0600 
    210 H210       -2.8996  -22.6280  -50.0566 H         1 UNK         0.3000 
    211 H211       -1.2452  -21.8106  -51.2363 H         1 UNK         0.0600 
    212 H212       -3.2790  -21.4095  -53.4922 H         1 UNK         0.0600 
    213 H213       -1.6873  -20.6740  -53.4215 H         1 UNK         0.0600 
    214 H214       -2.8843  -20.2714  -52.2055 H         1 UNK         0.0600 
    215 H215       -1.5949  -24.6045  -51.1512 H         1 UNK         0.3000 
    216 H216       -0.7408  -26.5300  -51.8088 H         1 UNK         0.0600 
    217 H217        1.1914  -26.6937  -53.3106 H         1 UNK         0.0600 
    218 H218        1.4324  -25.3519  -52.2029 H         1 UNK         0.0600 
    219 H219        0.9679  -25.0469  -53.8762 H         1 UNK         0.0600 
    220 H220       -3.1551  -26.0661  -52.4613 H         1 UNK         0.3000 
    221 H221       -4.9383  -26.4886  -53.6966 H         1 UNK         0.0600 
    222 H222       -3.1426  -28.3911  -55.2937 H         1 UNK         0.0600 
    223 H223       -3.9694  -28.7820  -53.7867 H         1 UNK         0.0600 
    224 H224       -4.8990  -28.4243  -55.2329 H         1 UNK         0.0600 
    225 H225       -4.1485  -24.1094  -54.2505 H         1 UNK         0.3000 
    226 H226       -4.6666  -23.7171  -57.1462 H         1 UNK         0.0600 
    227 H227       -2.1802  -23.4633  -56.7853 H         1 UNK         0.0600 
    228 H228       -2.9577  -21.9699  -57.2906 H         1 UNK         0.0600 
    229 H229       -2.5028  -22.1935  -55.6087 H         1 UNK         0.0600 
    230 H230       -6.4984  -23.8171  -55.1301 H         1 UNK         0.3000 
    231 H231       -8.3244  -22.8329  -54.3625 H         1 UNK         0.0600 
    232 H232       -7.8075  -20.7625  -56.5601 H         1 UNK         0.0600 
    233 H233       -8.5444  -22.3449  -56.8086 H         1 UNK         0.0600 
    234 H234       -9.3616  -21.1411  -55.8285 H         1 UNK         0.0600 
    235 H235       -5.9618  -22.0772  -52.9179 H         1 UNK         0.3000 
    236 H236       -5.2643  -20.7640  -51.2374 H         1 UNK         0.0600 
    237 H237       -8.2045  -19.9611  -50.9780 H         1 UNK         0.0600 
    238 H238       -7.4922  -21.4329  -50.3199 H         1 UNK         0.0600 
    239 H239       -6.9781  -19.8652  -49.7204 H         1 UNK         0.0600 
    240 H240       -4.8216  -19.6841  -53.7104 H         1 UNK         0.3000 
    241 H241       -3.8804  -17.9427  -54.6342 H         1 UNK         0.0600 
    242 H242       -7.6069  -16.9907  -55.4360 H         1 UNK         0.3800 
    243 H243       -7.1496  -18.3261  -54.4109 H         1 UNK         0.3800 
    244 H244       -3.4036  -15.7904  -53.5850 H         1 UNK         0.0800 
    245 H245       -4.5608  -16.0748  -52.3248 H         1 UNK         0.0800 
    246 H246       -1.0929  -16.4878  -53.6639 H         1 UNK         0.0800 
    247 H247       -1.3314  -18.2148  -53.7857 H         1 UNK         0.0800 
@<TRIPOS>BOND
     1    1    2 1    
     2    1  127 1    
     3    1  128 1    
     4    1  129 1    
     5    2    3 2    
     6    2    4 am   BACKBONE|DICT|INTERRES
     7    4    5 1    
     8    4  130 1    
     9    5    6 1    
    10    5   65 1    
    11    5  131 1    
    12    6    7 1    
    13    6  132 1    
    14    6  133 1    
    15    7    8 1    
    16    8    9 1    
    17    8  134 1    
    18    8  135 1    
    19    9   10 ar   
    20    9   14 ar   
    21   10   11 ar   
    22   10  136 1    
    23   11   12 ar   
    24   11  126 1    
    25   12   13 ar   
    26   12  137 1    
    27   13   14 ar   
    28   13   15 1    
    29   14  138 1    
    30   15   16 1    
    31   15  139 1    
    32   15  140 1    
    33   16   17 1    
    34   17   18 1    
    35   17  141 1    
    36   17  142 1    
    37   18   19 1    
    38   18   67 1    
    39   18  143 1    
    40   19   20 am   BACKBONE|DICT|INTERRES
    41   19  144 1    
    42   20   21 2    
    43   20   22 1    
    44   22   23 1    
    45   22   24 1    
    46   22  145 1    
    47   23  146 1    
    48   23  147 1    
    49   23  148 1    
    50   24   25 am   BACKBONE|DICT|INTERRES
    51   24  149 1    
    52   25   26 2    
    53   25   27 1    
    54   27   28 1    
    55   27   29 1    
    56   27  150 1    
    57   28  151 1    
    58   28  152 1    
    59   28  153 1    
    60   29   30 am   BACKBONE|DICT|INTERRES
    61   29  154 1    
    62   30   31 2    
    63   30   32 1    
    64   32   33 1    
    65   32   34 1    
    66   32  155 1    
    67   33  156 1    
    68   33  157 1    
    69   33  158 1    
    70   34   35 am   BACKBONE|DICT|INTERRES
    71   34  159 1    
    72   35   36 2    
    73   35   37 1    
    74   37   38 1    
    75   37   39 1    
    76   37  160 1    
    77   38  161 1    
    78   38  162 1    
    79   38  163 1    
    80   39   40 am   BACKBONE|DICT|INTERRES
    81   39  164 1    
    82   40   41 2    
    83   40   42 1    
    84   42   43 1    
    85   42   44 1    
    86   42  165 1    
    87   43  166 1    
    88   43  167 1    
    89   43  168 1    
    90   44   45 am   BACKBONE|DICT|INTERRES
    91   44  169 1    
    92   45   46 2    
    93   45   47 1    
    94   47   48 1    
    95   47   49 1    
    96   47  170 1    
    97   48  171 1    
    98   48  172 1    
    99   48  173 1    
   100   49   50 am   BACKBONE|DICT|INTERRES
   101   49  174 1    
   102   50   51 2    
   103   50   52 1    
   104   52   53 1    
   105   52   54 1    
   106   52  175 1    
   107   53  176 1    
   108   53  177 1    
   109   53  178 1    
   110   54   55 am   BACKBONE|DICT|INTERRES
   111   54  179 1    
   112   55   56 2    
   113   55   57 1    
   114   57   58 1    
   115   57   59 1    
   116   57  180 1    
   117   58  181 1    
   118   58  182 1    
   119   58  183 1    
   120   59   60 am   BACKBONE|DICT|INTERRES
   121   59  184 1    
   122   60   61 2    
   123   60   62 1    
   124   62   63 1    
   125   62   64 1    
   126   62  185 1    
   127   63  186 1    
   128   63  187 1    
   129   63  188 1    
   130   64   65 am   BACKBONE|DICT|INTERRES
   131   64  189 1    
   132   65   66 2    
   133   67   68 2    
   134   67   69 am   BACKBONE|DICT|INTERRES
   135   69   70 1    
   136   69  190 1    
   137   70   71 1    
   138   70   72 1    
   139   70  191 1    
   140   71  192 1    
   141   71  193 1    
   142   71  194 1    
   143   72   73 2    
   144   72   74 am   BACKBONE|DICT|INTERRES
   145   74   75 1    
   146   74  195 1    
   147   75   76 1    
   148   75   77 1    
   149   75  196 1    
   150   76  197 1    
   151   76  198 1    
   152   76  199 1    
   153   77   78 2    
   154   77   79 am   BACKBONE|DICT|INTERRES
   155   79   80 1    
   156   79  200 1    
   157   80   81 1    
   158   80   82 1    
   159   80  201 1    
   160   81  202 1    
   161   81  203 1    
   162   81  204 1    
   163   82   83 2    
   164   82   84 am   BACKBONE|DICT|INTERRES
   165   84   85 1    
   166   84  205 1    
   167   85   86 1    
   168   85   87 1    
   169   85  206 1    
   170   86  207 1    
   171   86  208 1    
   172   86  209 1    
   173   87   88 2    
   174   87   89 am   BACKBONE|DICT|INTERRES
   175   89   90 1    
   176   89  210 1    
   177   90   91 1    
   178   90   92 1    
   179   90  211 1    
   180   91  212 1    
   181   91  213 1    
   182   91  214 1    
   183   92   93 2    
   184   92   94 am   BACKBONE|DICT|INTERRES
   185   94   95 1    
   186   94  215 1    
   187   95   96 1    
   188   95   97 1    
   189   95  216 1    
   190   96  217 1    
   191   96  218 1    
   192   96  219 1    
   193   97   98 2    
   194   97   99 am   BACKBONE|DICT|INTERRES
   195   99  100 1    
   196   99  220 1    
   197  100  101 1    
   198  100  102 1    
   199  100  221 1    
   200  101  222 1    
   201  101  223 1    
   202  101  224 1    
   203  102  103 2    
   204  102  104 am   BACKBONE|DICT|INTERRES
   205  104  105 1    
   206  104  225 1    
   207  105  106 1    
   208  105  107 1    
   209  105  226 1    
   210  106  227 1    
   211  106  228 1    
   212  106  229 1    
   213  107  108 2    
   214  107  109 am   BACKBONE|DICT|INTERRES
   215  109  110 1    
   216  109  230 1    
   217  110  111 1    
   218  110  112 1    
   219  110  231 1    
   220  111  232 1    
   221  111  233 1    
   222  111  234 1    
   223  112  113 2    
   224  112  114 am   BACKBONE|DICT|INTERRES
   225  114  115 1    
   226  114  235 1    
   227  115  116 1    
   228  115  117 1    
   229  115  236 1    
   230  116  237 1    
   231  116  238 1    
   232  116  239 1    
   233  117  118 2    
   234  117  119 am   BACKBONE|DICT|INTERRES
   235  119  120 1    
   236  119  240 1    
   237  120  121 1    
   238  120  124 1    
   239  120  241 1    
   240  121  122 am   BACKBONE|DICT|INTERRES
   241  121  123 2    
   242  122  242 1    
   243  122  243 1    
   244  124  125 1    
   245  124  244 1    
   246  124  245 1    
   247  125  126 1    
   248  126  246 1    
   249  126  247 1    
@<TRIPOS>SUBSTRUCTURE
     1 UNK         1 GROUP             0       ****    0 ROOT    
