@<TRIPOS>MOLECULE
3R540
247   249    1
SMALL
USER_CHARGES


@<TRIPOS>ATOM
      1 CA          4.1038   -9.8949  -49.4398 C.3       0 UNK        -0.1800 
      2 C           3.7179  -11.1967  -48.7532 C.2       0 UNK         0.5000 
      3 O           3.3363  -11.1820  -47.5832 O.2       0 UNK        -0.5000 
      4 N           3.7966  -12.3217  -49.4791 N.am      1 UNK        -0.5000 
      5 CA          3.4968  -13.6775  -48.9903 C.3       1 UNK         0.1400 
      6 C6          3.8344  -14.7592  -50.0540 C.3       23 UNK        -0.0398 
      7 S7          4.7406  -16.1936  -49.3785 S.3       23 UNK        -0.2404 
      8 C8          3.4292  -17.2860  -48.7412 C.3       23 UNK        -0.0205 
      9 C9          2.4958  -17.8048  -49.8248 C.ar      23 UNK        -0.0193 
     10 C10         1.2912  -17.1465  -50.0935 C.ar      23 UNK        -0.1150 
     11 C11         0.4108  -17.6389  -51.0578 C.ar      23 UNK        -0.0193 
     12 C12         0.7395  -18.8026  -51.7525 C.ar      23 UNK        -0.1150 
     13 C13         1.9297  -19.4820  -51.4842 C.ar      23 UNK        -0.0193 
     14 C14         2.8121  -18.9716  -50.5273 C.ar      23 UNK        -0.1150 
     15 C15         2.2360  -20.7828  -52.2111 C.3       23 UNK        -0.0205 
     16 S16         2.2299  -22.2289  -51.0999 S.3       23 UNK        -0.2404 
     17 C17         0.5944  -22.1299  -50.2848 C.3       23 UNK        -0.0398 
     18 CA          0.6278  -22.7293  -48.8585 C.3       11 UNK         0.1400 
     19 N           1.6535  -22.1167  -48.0104 N.am      11 UNK        -0.5000 
     20 C           2.1133  -22.6503  -46.8725 C.2       10 UNK         0.5000 
     21 O           1.6835  -23.7061  -46.4037 O.2       10 UNK        -0.5000 
     22 CA          3.2007  -21.8671  -46.1042 C.3       10 UNK         0.1400 
     23 CB          3.6149  -20.5393  -46.7786 C.3       10 UNK        -0.1800 
     24 N           2.8142  -21.6215  -44.7104 N.am      10 UNK        -0.5000 
     25 C           1.6951  -21.0152  -44.2924 C.2       9 UNK         0.5000 
     26 O           0.8238  -20.5824  -45.0514 O.2       9 UNK        -0.5000 
     27 CA          1.5330  -20.8605  -42.7744 C.3       9 UNK         0.1400 
     28 CB          2.2438  -19.5902  -42.2804 C.3       9 UNK        -0.1800 
     29 N           0.1145  -20.7622  -42.4552 N.am      9 UNK        -0.5000 
     30 C          -0.5157  -21.3707  -41.4475 C.2       8 UNK         0.5000 
     31 O           0.0525  -22.0754  -40.6115 O.2       8 UNK        -0.5000 
     32 CA         -2.0359  -21.1192  -41.3513 C.3       8 UNK         0.1400 
     33 CB         -2.7395  -22.1025  -40.3992 C.3       8 UNK        -0.1800 
     34 N          -2.3228  -19.7499  -40.9174 N.am      8 UNK        -0.5000 
     35 C          -2.1967  -18.6652  -41.6910 C.2       7 UNK         0.5000 
     36 O          -1.8760  -18.7238  -42.8800 O.2       7 UNK        -0.5000 
     37 CA         -2.4429  -17.3022  -41.0192 C.3       7 UNK         0.1400 
     38 CB         -1.3085  -16.9711  -40.0352 C.3       7 UNK        -0.1800 
     39 N          -2.4785  -16.2653  -42.0449 N.am      7 UNK        -0.5000 
     40 C          -3.5855  -15.7108  -42.5564 C.2       6 UNK         0.5000 
     41 O          -4.7123  -15.8662  -42.0838 O.2       6 UNK        -0.5000 
     42 CA         -3.4075  -14.8553  -43.8294 C.3       6 UNK         0.1400 
     43 CB         -3.2767  -13.3684  -43.4675 C.3       6 UNK        -0.1800 
     44 N          -2.2368  -15.2661  -44.6055 N.am      6 UNK        -0.5000 
     45 C          -2.1378  -16.4222  -45.2769 C.2       5 UNK         0.5000 
     46 O          -3.1063  -17.1461  -45.5095 O.2       5 UNK        -0.5000 
     47 CA         -0.7316  -16.8620  -45.7435 C.3       5 UNK         0.1400 
     48 CB         -0.6907  -17.1114  -47.2567 C.3       5 UNK        -0.1800 
     49 N           0.3477  -15.9350  -45.3883 N.am      5 UNK        -0.5000 
     50 C           0.8312  -15.7412  -44.1533 C.2       4 UNK         0.5000 
     51 O           0.3973  -16.3046  -43.1497 O.2       4 UNK        -0.5000 
     52 CA          1.9337  -14.6803  -44.0154 C.3       4 UNK         0.1400 
     53 CB          3.2856  -15.2189  -44.5111 C.3       4 UNK        -0.1800 
     54 N           1.5769  -13.4672  -44.7523 N.am      4 UNK        -0.5000 
     55 C           0.7266  -12.5342  -44.2992 C.2       3 UNK         0.5000 
     56 O           0.2194  -12.5655  -43.1784 O.2       3 UNK        -0.5000 
     57 CA          0.3627  -11.3826  -45.2560 C.3       3 UNK         0.1400 
     58 CB          1.3007  -10.1856  -45.0415 C.3       3 UNK        -0.1800 
     59 N           0.4004  -11.7889  -46.6618 N.am      3 UNK        -0.5000 
     60 C          -0.5450  -12.5394  -47.2490 C.2       2 UNK         0.5000 
     61 O          -1.5759  -12.8955  -46.6805 O.2       2 UNK        -0.5000 
     62 CA         -0.2977  -13.0001  -48.7014 C.3       2 UNK         0.1400 
     63 CB         -1.0405  -12.0920  -49.6921 C.3       2 UNK        -0.1800 
     64 N           1.1151  -13.0622  -49.0808 N.am      2 UNK        -0.5000 
     65 C           2.0434  -13.8237  -48.4849 C.2       1 UNK         0.5000 
     66 O           1.7910  -14.5742  -47.5423 O.2       1 UNK        -0.5000 
     67 C          -0.7753  -22.7153  -48.2119 C.2       11 UNK         0.5000 
     68 O          -1.6399  -23.4660  -48.6595 O.2       11 UNK        -0.5000 
     69 N          -1.0014  -21.8914  -47.1754 N.am      12 UNK        -0.5000 
     70 CA         -2.2502  -21.9038  -46.4101 C.3       12 UNK         0.1400 
     71 CB         -2.4244  -20.5866  -45.6458 C.3       12 UNK        -0.1800 
     72 C          -2.3170  -23.1105  -45.4581 C.2       12 UNK         0.5000 
     73 O          -3.3921  -23.6846  -45.2846 O.2       12 UNK        -0.5000 
     74 N          -1.1619  -23.5071  -44.9018 N.am      13 UNK        -0.5000 
     75 CA         -1.0130  -24.7221  -44.0975 C.3       13 UNK         0.1400 
     76 CB          0.3342  -24.6994  -43.3600 C.3       13 UNK        -0.1800 
     77 C          -1.1386  -25.9980  -44.9501 C.2       13 UNK         0.5000 
     78 O          -1.6679  -27.0017  -44.4709 O.2       13 UNK        -0.5000 
     79 N          -0.6892  -25.9268  -46.2108 N.am      14 UNK        -0.5000 
     80 CA         -0.7871  -26.9836  -47.2185 C.3       14 UNK         0.1400 
     81 CB          0.2670  -26.7292  -48.3101 C.3       14 UNK        -0.1800 
     82 C          -2.2151  -27.1063  -47.7952 C.2       14 UNK         0.5000 
     83 O          -2.4173  -26.9274  -48.9967 O.2       14 UNK        -0.5000 
     84 N          -3.1825  -27.4036  -46.9168 N.am      15 UNK        -0.5000 
     85 CA         -4.5992  -27.6611  -47.2019 C.3       15 UNK         0.1400 
     86 CB         -4.7562  -29.0001  -47.9527 C.3       15 UNK        -0.1800 
     87 C          -5.3189  -26.4902  -47.9074 C.2       15 UNK         0.5000 
     88 O          -6.1611  -26.7198  -48.7775 O.2       15 UNK        -0.5000 
     89 N          -4.9756  -25.2556  -47.5096 N.am      16 UNK        -0.5000 
     90 CA         -5.5294  -23.9876  -47.9972 C.3       16 UNK         0.1400 
     91 CB         -7.0192  -23.8537  -47.6172 C.3       16 UNK        -0.1800 
     92 C          -5.2682  -23.7095  -49.4939 C.2       16 UNK         0.5000 
     93 O          -6.0303  -22.9663  -50.1142 O.2       16 UNK        -0.5000 
     94 N          -4.1740  -24.2567  -50.0464 N.am      17 UNK        -0.5000 
     95 CA         -3.7355  -24.0534  -51.4333 C.3       17 UNK         0.1400 
     96 CB         -2.5060  -24.9276  -51.7192 C.3       17 UNK        -0.1800 
     97 C          -3.4473  -22.5812  -51.7891 C.2       17 UNK         0.5000 
     98 O          -3.5918  -22.1994  -52.9513 O.2       17 UNK        -0.5000 
     99 N          -3.1120  -21.7667  -50.7770 N.am      18 UNK        -0.5000 
    100 CA        -2.9751  -20.3101  -50.8590 C.3       18 UNK         0.1400 
    101 CB        -2.6298  -19.7421  -49.4749 C.3       18 UNK        -0.1800 
    102 C         -4.2139  -19.5870  -51.4231 C.2       18 UNK         0.5000 
    103 O         -4.0545  -18.5779  -52.1089 O.2       18 UNK        -0.5000 
    104 N         -5.4157  -20.1244  -51.1630 N.am      19 UNK        -0.5000 
    105 CA        -6.6810  -19.5847  -51.6670 C.3       19 UNK         0.1400 
    106 CB        -7.8514  -20.2887  -50.9642 C.3       19 UNK        -0.1800 
    107 C         -6.8215  -19.6965  -53.1978 C.2       19 UNK         0.5000 
    108 O         -7.5222  -18.8816  -53.7989 O.2       19 UNK        -0.5000 
    109 N         -6.1463  -20.6862  -53.7975 N.am      20 UNK        -0.5000 
    110 CA        -6.0323  -20.8459  -55.2429 C.3       20 UNK         0.1400 
    111 CB        -5.9564  -22.3414  -55.5912 C.3       20 UNK        -0.1800 
    112 C         -4.8010  -20.0913  -55.7676 C.2       20 UNK         0.5000 
    113 O         -4.9256  -19.3065  -56.7082 O.2       20 UNK        -0.5000 
    114 N         -3.6392  -20.3270  -55.1409 N.am      21 UNK        -0.5000 
    115 CA        -2.3337  -19.8154  -55.5658 C.3       21 UNK         0.1400 
    116 CB        -1.2347  -20.4832  -54.7280 C.3       21 UNK        -0.1800 
    117 C         -2.2021  -18.2790  -55.5490 C.2       21 UNK         0.5000 
    118 O         -1.5471  -17.7305  -56.4366 O.2       21 UNK        -0.5000 
    119 N         -2.8475  -17.6157  -54.5817 N.am      22 UNK        -0.5000 
    120 CA        -2.9897  -16.1492  -54.5181 C.3       22 UNK         0.1400 
    121 C         -4.4100  -15.6692  -54.9453 C.2       22 UNK         0.5000 
    122 N         -5.2343  -16.4929  -55.5827 N.am      22 UNK        -0.7600 
    123 O         -4.7730  -14.5183  -54.7169 O.2       22 UNK        -0.5000 
    124 C124       -2.5668  -15.5731  -53.1383 C.3       23 UNK        -0.0398 
    125 S125       -0.7970  -15.8447  -52.7750 S.3       23 UNK        -0.2404 
    126 C126       -0.9100  -16.9425  -51.3345 C.3       23 UNK        -0.0205 
    127 H127        4.4106  -10.0563  -50.4735 H         1 UNK         0.0600 
    128 H128        4.9304   -9.4228  -48.9090 H         1 UNK         0.0600 
    129 H129        3.2589   -9.2063  -49.4387 H         1 UNK         0.0600 
    130 H130        4.1121  -12.2598  -50.4368 H         1 UNK         0.3000 
    131 H131        4.1414  -13.8262  -48.1212 H         1 UNK         0.0600 
    132 H132        4.5001  -14.3400  -50.8097 H         1 UNK         0.0800 
    133 H133        2.9601  -15.0834  -50.6190 H         1 UNK         0.0800 
    134 H134        2.8655  -16.7853  -47.9562 H         1 UNK         0.0800 
    135 H135        3.9144  -18.1301  -48.2520 H         1 UNK         0.0800 
    136 H136        1.0300  -16.2549  -49.5448 H         1 UNK         0.1150 
    137 H137        0.0571  -19.1841  -52.4947 H         1 UNK         0.1150 
    138 H138        3.7335  -19.4957  -50.3150 H         1 UNK         0.1150 
    139 H139        1.5197  -20.9562  -53.0157 H         1 UNK         0.0800 
    140 H140        3.2152  -20.7047  -52.6853 H         1 UNK         0.0800 
    141 H141       -0.1235  -22.6623  -50.9112 H         1 UNK         0.0800 
    142 H142        0.2535  -21.0968  -50.2423 H         1 UNK         0.0800 
    143 H143        0.9015  -23.7791  -48.9676 H         1 UNK         0.0600 
    144 H144        2.0446  -21.2454  -48.3371 H         1 UNK         0.3000 
    145 H145        4.0780  -22.5148  -46.0768 H         1 UNK         0.0600 
    146 H146        4.0029  -20.7082  -47.7840 H         1 UNK         0.0600 
    147 H147        2.7815  -19.8391  -46.8513 H         1 UNK         0.0600 
    148 H148        4.4059  -20.0471  -46.2127 H         1 UNK         0.0600 
    149 H149        3.4603  -21.9707  -44.0168 H         1 UNK         0.3000 
    150 H150        1.9705  -21.7356  -42.2894 H         1 UNK         0.0600 
    151 H151        3.3115  -19.6250  -42.4996 H         1 UNK         0.0600 
    152 H152        2.1356  -19.4729  -41.2020 H         1 UNK         0.0600 
    153 H153        1.8385  -18.6953  -42.7550 H         1 UNK         0.0600 
    154 H154       -0.4257  -20.1666  -43.0766 H         1 UNK         0.3000 
    155 H155       -2.4572  -21.2711  -42.3478 H         1 UNK         0.0600 
    156 H156       -2.3926  -21.9900  -39.3712 H         1 UNK         0.0600 
    157 H157       -2.5537  -23.1348  -40.6988 H         1 UNK         0.0600 
    158 H158       -3.8193  -21.9530  -40.4069 H         1 UNK         0.0600 
    159 H159       -2.5595  -19.6315  -39.9430 H         1 UNK         0.3000 
    160 H160       -3.3891  -17.3438  -40.4762 H         1 UNK         0.0600 
    161 H161       -0.3345  -16.9792  -40.5267 H         1 UNK         0.0600 
    162 H162       -1.2696  -17.6920  -39.2180 H         1 UNK         0.0600 
    163 H163       -1.4493  -15.9859  -39.5904 H         1 UNK         0.0600 
    164 H164       -1.6068  -16.1498  -42.5510 H         1 UNK         0.3000 
    165 H165       -4.2967  -14.9825  -44.4501 H         1 UNK         0.0600 
    166 H166       -3.1678  -12.7516  -44.3597 H         1 UNK         0.0600 
    167 H167       -4.1620  -13.0182  -42.9356 H         1 UNK         0.0600 
    168 H168       -2.4149  -13.1856  -42.8250 H         1 UNK         0.0600 
    169 H169       -1.4058  -14.7028  -44.5046 H         1 UNK         0.3000 
    170 H170       -0.5292  -17.8140  -45.2471 H         1 UNK         0.0600 
    171 H171       -1.4807  -17.7944  -47.5663 H         1 UNK         0.0600 
    172 H172       -0.8132  -16.1870  -47.8198 H         1 UNK         0.0600 
    173 H173        0.2564  -17.5670  -47.5433 H         1 UNK         0.0600 
    174 H174        0.7740  -15.4233  -46.1562 H         1 UNK         0.3000 
    175 H175        2.0392  -14.4362  -42.9560 H         1 UNK         0.0600 
    176 H176        3.2547  -15.5053  -45.5624 H         1 UNK         0.0600 
    177 H177        4.0730  -14.4748  -44.3909 H         1 UNK         0.0600 
    178 H178        3.5821  -16.1013  -43.9426 H         1 UNK         0.0600 
    179 H179        1.9056  -13.4057  -45.7072 H         1 UNK         0.3000 
    180 H180       -0.6528  -11.0598  -45.0160 H         1 UNK         0.0600 
    181 H181        1.0499   -9.3610  -45.7090 H         1 UNK         0.0600 
    182 H182        2.3435  -10.4533  -45.2141 H         1 UNK         0.0600 
    183 H183        1.2254   -9.8119  -44.0196 H         1 UNK         0.0600 
    184 H184        1.2393  -11.5519  -47.1788 H         1 UNK         0.3000 
    185 H185       -0.7068  -14.0075  -48.7952 H         1 UNK         0.0600 
    186 H186       -0.9555  -12.4684  -50.7120 H         1 UNK         0.0600 
    187 H187       -2.1040  -12.0413  -49.4544 H         1 UNK         0.0600 
    188 H188       -0.6506  -11.0736  -49.6739 H         1 UNK         0.0600 
    189 H189        1.4076  -12.4540  -49.8316 H         1 UNK         0.3000 
    190 H190       -0.2526  -21.3088  -46.8177 H         1 UNK         0.3000 
    191 H191       -3.0817  -21.9815  -47.1114 H         1 UNK         0.0600 
    192 H192       -3.4077  -20.5346  -45.1771 H         1 UNK         0.0600 
    193 H193       -2.3364  -19.7277  -46.3098 H         1 UNK         0.0600 
    194 H194       -1.6871  -20.4750  -44.8543 H         1 UNK         0.0600 
    195 H195       -0.3151  -23.0070  -45.1346 H         1 UNK         0.3000 
    196 H196       -1.8095  -24.7375  -43.3503 H         1 UNK         0.0600 
    197 H197        1.1779  -24.7124  -44.0495 H         1 UNK         0.0600 
    198 H198        0.4299  -23.8159  -42.7326 H         1 UNK         0.0600 
    199 H199        0.4336  -25.5687  -42.7089 H         1 UNK         0.0600 
    200 H200       -0.2496  -25.0656  -46.5058 H         1 UNK         0.3000 
    201 H201       -0.5451  -27.9363  -46.7430 H         1 UNK         0.0600 
    202 H202        1.2601  -26.5880  -47.8829 H         1 UNK         0.0600 
    203 H203        0.0243  -25.8486  -48.9032 H         1 UNK         0.0600 
    204 H204        0.3240  -27.5746  -48.9968 H         1 UNK         0.0600 
    205 H205       -2.9049  -27.4782  -45.9424 H         1 UNK         0.3000 
    206 H206       -5.0878  -27.7705  -46.2328 H         1 UNK         0.0600 
    207 H207       -4.2631  -29.8121  -47.4184 H         1 UNK         0.0600 
    208 H208       -5.8072  -29.2730  -48.0543 H         1 UNK         0.0600 
    209 H209       -4.3317  -28.9523  -48.9562 H         1 UNK         0.0600 
    210 H210       -4.2717  -25.1649  -46.7871 H         1 UNK         0.3000 
    211 H211       -4.9977  -23.2047  -47.4592 H         1 UNK         0.0600 
    212 H212       -7.3894  -22.8498  -47.8293 H         1 UNK         0.0600 
    213 H213       -7.1724  -24.0345  -46.5533 H         1 UNK         0.0600 
    214 H214       -7.6446  -24.5540  -48.1714 H         1 UNK         0.0600 
    215 H215       -3.5711  -24.8300  -49.4685 H         1 UNK         0.3000 
    216 H216       -4.5465  -24.3856  -52.0841 H         1 UNK         0.0600 
    217 H217       -1.6780  -24.6941  -51.0497 H         1 UNK         0.0600 
    218 H218       -2.1530  -24.7877  -52.7418 H         1 UNK         0.0600 
    219 H219       -2.7415  -25.9852  -51.6000 H         1 UNK         0.0600 
    220 H220       -2.9797  -22.1950  -49.8699 H         1 UNK         0.3000 
    221 H221       -2.1420  -20.0970  -51.5280 H         1 UNK         0.0600 
    222 H222       -1.6294  -20.0345  -49.1624 H         1 UNK         0.0600 
    223 H223       -3.3382  -20.0729  -48.7153 H         1 UNK         0.0600 
    224 H224       -2.6505  -18.6519  -49.4808 H         1 UNK         0.0600 
    225 H225       -5.4723  -20.9901  -50.6382 H         1 UNK         0.3000 
    226 H226       -6.7181  -18.5240  -51.4100 H         1 UNK         0.0600 
    227 H227       -7.8905  -21.3496  -51.2134 H         1 UNK         0.0600 
    228 H228       -7.7742  -20.2008  -49.8804 H         1 UNK         0.0600 
    229 H229       -8.8045  -19.8485  -51.2599 H         1 UNK         0.0600 
    230 H230       -5.5611  -21.2855  -53.2298 H         1 UNK         0.3000 
    231 H231       -6.9171  -20.4352  -55.7342 H         1 UNK         0.0600 
    232 H232       -5.0962  -22.8274  -55.1298 H         1 UNK         0.0600 
    233 H233       -5.8751  -22.4857  -56.6692 H         1 UNK         0.0600 
    234 H234       -6.8524  -22.8665  -55.2599 H         1 UNK         0.0600 
    235 H235       -3.6300  -20.9880  -54.3679 H         1 UNK         0.3000 
    236 H236       -2.1902  -20.1281  -56.6022 H         1 UNK         0.0600 
    237 H237       -1.4190  -20.3565  -53.6641 H         1 UNK         0.0600 
    238 H238       -1.1877  -21.5540  -54.9268 H         1 UNK         0.0600 
    239 H239       -0.2521  -20.0658  -54.9524 H         1 UNK         0.0600 
    240 H240       -3.3594  -18.1318  -53.8720 H         1 UNK         0.3000 
    241 H241       -2.3275  -15.6919  -55.2549 H         1 UNK         0.0600 
    242 H242       -6.1478  -16.1625  -55.8500 H         1 UNK         0.3800 
    243 H243       -4.9502  -17.4303  -55.8394 H         1 UNK         0.3800 
    244 H244       -3.1886  -15.9894  -52.3445 H         1 UNK         0.0800 
    245 H245       -2.7264  -14.4941  -53.1073 H         1 UNK         0.0800 
    246 H246       -1.2377  -16.3721  -50.4642 H         1 UNK         0.0800 
    247 H247       -1.6749  -17.6931  -51.5215 H         1 UNK         0.0800 
@<TRIPOS>BOND
     1    1    2 1    
     2    1  127 1    
     3    1  128 1    
     4    1  129 1    
     5    2    3 2    
     6    2    4 am   BACKBONE|DICT|INTERRES
     7    4    5 1    
     8    4  130 1    
     9    5    6 1    
    10    5   65 1    
    11    5  131 1    
    12    6    7 1    
    13    6  132 1    
    14    6  133 1    
    15    7    8 1    
    16    8    9 1    
    17    8  134 1    
    18    8  135 1    
    19    9   10 ar   
    20    9   14 ar   
    21   10   11 ar   
    22   10  136 1    
    23   11   12 ar   
    24   11  126 1    
    25   12   13 ar   
    26   12  137 1    
    27   13   14 ar   
    28   13   15 1    
    29   14  138 1    
    30   15   16 1    
    31   15  139 1    
    32   15  140 1    
    33   16   17 1    
    34   17   18 1    
    35   17  141 1    
    36   17  142 1    
    37   18   19 1    
    38   18   67 1    
    39   18  143 1    
    40   19   20 am   BACKBONE|DICT|INTERRES
    41   19  144 1    
    42   20   21 2    
    43   20   22 1    
    44   22   23 1    
    45   22   24 1    
    46   22  145 1    
    47   23  146 1    
    48   23  147 1    
    49   23  148 1    
    50   24   25 am   BACKBONE|DICT|INTERRES
    51   24  149 1    
    52   25   26 2    
    53   25   27 1    
    54   27   28 1    
    55   27   29 1    
    56   27  150 1    
    57   28  151 1    
    58   28  152 1    
    59   28  153 1    
    60   29   30 am   BACKBONE|DICT|INTERRES
    61   29  154 1    
    62   30   31 2    
    63   30   32 1    
    64   32   33 1    
    65   32   34 1    
    66   32  155 1    
    67   33  156 1    
    68   33  157 1    
    69   33  158 1    
    70   34   35 am   BACKBONE|DICT|INTERRES
    71   34  159 1    
    72   35   36 2    
    73   35   37 1    
    74   37   38 1    
    75   37   39 1    
    76   37  160 1    
    77   38  161 1    
    78   38  162 1    
    79   38  163 1    
    80   39   40 am   BACKBONE|DICT|INTERRES
    81   39  164 1    
    82   40   41 2    
    83   40   42 1    
    84   42   43 1    
    85   42   44 1    
    86   42  165 1    
    87   43  166 1    
    88   43  167 1    
    89   43  168 1    
    90   44   45 am   BACKBONE|DICT|INTERRES
    91   44  169 1    
    92   45   46 2    
    93   45   47 1    
    94   47   48 1    
    95   47   49 1    
    96   47  170 1    
    97   48  171 1    
    98   48  172 1    
    99   48  173 1    
   100   49   50 am   BACKBONE|DICT|INTERRES
   101   49  174 1    
   102   50   51 2    
   103   50   52 1    
   104   52   53 1    
   105   52   54 1    
   106   52  175 1    
   107   53  176 1    
   108   53  177 1    
   109   53  178 1    
   110   54   55 am   BACKBONE|DICT|INTERRES
   111   54  179 1    
   112   55   56 2    
   113   55   57 1    
   114   57   58 1    
   115   57   59 1    
   116   57  180 1    
   117   58  181 1    
   118   58  182 1    
   119   58  183 1    
   120   59   60 am   BACKBONE|DICT|INTERRES
   121   59  184 1    
   122   60   61 2    
   123   60   62 1    
   124   62   63 1    
   125   62   64 1    
   126   62  185 1    
   127   63  186 1    
   128   63  187 1    
   129   63  188 1    
   130   64   65 am   BACKBONE|DICT|INTERRES
   131   64  189 1    
   132   65   66 2    
   133   67   68 2    
   134   67   69 am   BACKBONE|DICT|INTERRES
   135   69   70 1    
   136   69  190 1    
   137   70   71 1    
   138   70   72 1    
   139   70  191 1    
   140   71  192 1    
   141   71  193 1    
   142   71  194 1    
   143   72   73 2    
   144   72   74 am   BACKBONE|DICT|INTERRES
   145   74   75 1    
   146   74  195 1    
   147   75   76 1    
   148   75   77 1    
   149   75  196 1    
   150   76  197 1    
   151   76  198 1    
   152   76  199 1    
   153   77   78 2    
   154   77   79 am   BACKBONE|DICT|INTERRES
   155   79   80 1    
   156   79  200 1    
   157   80   81 1    
   158   80   82 1    
   159   80  201 1    
   160   81  202 1    
   161   81  203 1    
   162   81  204 1    
   163   82   83 2    
   164   82   84 am   BACKBONE|DICT|INTERRES
   165   84   85 1    
   166   84  205 1    
   167   85   86 1    
   168   85   87 1    
   169   85  206 1    
   170   86  207 1    
   171   86  208 1    
   172   86  209 1    
   173   87   88 2    
   174   87   89 am   BACKBONE|DICT|INTERRES
   175   89   90 1    
   176   89  210 1    
   177   90   91 1    
   178   90   92 1    
   179   90  211 1    
   180   91  212 1    
   181   91  213 1    
   182   91  214 1    
   183   92   93 2    
   184   92   94 am   BACKBONE|DICT|INTERRES
   185   94   95 1    
   186   94  215 1    
   187   95   96 1    
   188   95   97 1    
   189   95  216 1    
   190   96  217 1    
   191   96  218 1    
   192   96  219 1    
   193   97   98 2    
   194   97   99 am   BACKBONE|DICT|INTERRES
   195   99  100 1    
   196   99  220 1    
   197  100  101 1    
   198  100  102 1    
   199  100  221 1    
   200  101  222 1    
   201  101  223 1    
   202  101  224 1    
   203  102  103 2    
   204  102  104 am   BACKBONE|DICT|INTERRES
   205  104  105 1    
   206  104  225 1    
   207  105  106 1    
   208  105  107 1    
   209  105  226 1    
   210  106  227 1    
   211  106  228 1    
   212  106  229 1    
   213  107  108 2    
   214  107  109 am   BACKBONE|DICT|INTERRES
   215  109  110 1    
   216  109  230 1    
   217  110  111 1    
   218  110  112 1    
   219  110  231 1    
   220  111  232 1    
   221  111  233 1    
   222  111  234 1    
   223  112  113 2    
   224  112  114 am   BACKBONE|DICT|INTERRES
   225  114  115 1    
   226  114  235 1    
   227  115  116 1    
   228  115  117 1    
   229  115  236 1    
   230  116  237 1    
   231  116  238 1    
   232  116  239 1    
   233  117  118 2    
   234  117  119 am   BACKBONE|DICT|INTERRES
   235  119  120 1    
   236  119  240 1    
   237  120  121 1    
   238  120  124 1    
   239  120  241 1    
   240  121  122 am   BACKBONE|DICT|INTERRES
   241  121  123 2    
   242  122  242 1    
   243  122  243 1    
   244  124  125 1    
   245  124  244 1    
   246  124  245 1    
   247  125  126 1    
   248  126  246 1    
   249  126  247 1    
@<TRIPOS>SUBSTRUCTURE
     1 UNK         1 GROUP             0       ****    0 ROOT    
