@<TRIPOS>MOLECULE
3R540
247   249    1
SMALL
USER_CHARGES


@<TRIPOS>ATOM
      1 CA          0.7955   -8.7123  -48.3544 C.3       0 UNK        -0.1800 
      2 C           1.3765   -9.7743  -47.4333 C.2       0 UNK         0.5000 
      3 O           2.0833   -9.4398  -46.4830 O.2       0 UNK        -0.5000 
      4 N           1.0692  -11.0518  -47.6952 N.am      1 UNK        -0.5000 
      5 CA          1.5655  -12.2163  -46.9479 C.3       1 UNK         0.1400 
      6 C6          1.1279  -13.5527  -47.5906 C.3       23 UNK        -0.0398 
      7 S7          1.7763  -13.7647  -49.2804 S.3       23 UNK        -0.2404 
      8 C8          2.6009  -15.3909  -49.1455 C.3       23 UNK        -0.0205 
      9 C9          1.6843  -16.6114  -49.0094 C.ar      23 UNK        -0.0193 
     10 C10         0.2911  -16.5499  -49.1664 C.ar      23 UNK        -0.1150 
     11 C11        -0.4879  -17.7083  -49.0915 C.ar      23 UNK        -0.0193 
     12 C12         0.1283  -18.9377  -48.8572 C.ar      23 UNK        -0.1150 
     13 C13         1.5118  -19.0194  -48.6930 C.ar      23 UNK        -0.0193 
     14 C14         2.2800  -17.8537  -48.7634 C.ar      23 UNK        -0.1150 
     15 C15         2.1797  -20.3730  -48.4989 C.3       23 UNK        -0.0205 
     16 S16         2.6763  -20.6798  -46.7742 S.3       23 UNK        -0.2404 
     17 C17         1.0735  -20.8017  -45.9158 C.3       23 UNK        -0.0398 
     18 CA          0.3672  -22.1712  -46.1345 C.3       11 UNK         0.1400 
     19 N           0.0629  -22.8526  -44.8733 N.am      11 UNK        -0.5000 
     20 C          -0.3265  -24.1309  -44.7659 C.2       10 UNK         0.5000 
     21 O          -0.4333  -24.8975  -45.7226 O.2       10 UNK        -0.5000 
     22 CA         -0.6968  -24.6202  -43.3533 C.3       10 UNK         0.1400 
     23 CB          0.5544  -25.0991  -42.6024 C.3       10 UNK        -0.1800 
     24 N          -1.3728  -23.5903  -42.5616 N.am      10 UNK        -0.5000 
     25 C          -2.5972  -23.1142  -42.8292 C.2       9 UNK         0.5000 
     26 O          -3.3031  -23.5225  -43.7503 O.2       9 UNK        -0.5000 
     27 CA         -3.0863  -21.9409  -41.9591 C.3       9 UNK         0.1400 
     28 CB         -3.6960  -22.4561  -40.6470 C.3       9 UNK        -0.1800 
     29 N          -2.0352  -20.9616  -41.6603 N.am      9 UNK        -0.5000 
     30 C          -1.3634  -20.2670  -42.5870 C.2       8 UNK         0.5000 
     31 O          -1.5404  -20.3980  -43.8024 O.2       8 UNK        -0.5000 
     32 CA         -0.2873  -19.2960  -42.0863 C.3       8 UNK         0.1400 
     33 CB          0.9671  -20.0589  -41.6187 C.3       8 UNK        -0.1800 
     34 N           0.0399  -18.4099  -43.1961 N.am      8 UNK        -0.5000 
     35 C           0.6962  -17.2515  -43.1282 C.2       7 UNK         0.5000 
     36 O           1.1387  -16.7675  -42.0833 O.2       7 UNK        -0.5000 
     37 CA          0.8318  -16.4860  -44.4566 C.3       7 UNK         0.1400 
     38 CB         -0.3748  -15.5549  -44.6561 C.3       7 UNK        -0.1800 
     39 N           2.0626  -15.7003  -44.4938 N.am      7 UNK        -0.5000 
     40 C           3.2909  -16.2217  -44.6279 C.2       6 UNK         0.5000 
     41 O           3.5088  -17.4135  -44.8448 O.2       6 UNK        -0.5000 
     42 CA          4.4773  -15.2519  -44.4872 C.3       6 UNK         0.1400 
     43 CB          4.8965  -14.7067  -45.8610 C.3       6 UNK        -0.1800 
     44 N           4.1450  -14.1264  -43.6192 N.am      6 UNK        -0.5000 
     45 C           4.2760  -14.1016  -42.2876 C.2       5 UNK         0.5000 
     46 O           4.7798  -15.0153  -41.6322 O.2       5 UNK        -0.5000 
     47 CA          3.7426  -12.8330  -41.5851 C.3       5 UNK         0.1400 
     48 CB          4.3662  -12.5972  -40.1938 C.3       5 UNK        -0.1800 
     49 N           3.8474  -11.6352  -42.4277 N.am      5 UNK        -0.5000 
     50 C           4.9651  -11.0524  -42.8895 C.2       4 UNK         0.5000 
     51 O           6.1042  -11.4039  -42.5807 O.2       4 UNK        -0.5000 
     52 CA          4.7862   -9.9005  -43.8998 C.3       4 UNK         0.1400 
     53 CB          5.1363  -10.3849  -45.3160 C.3       4 UNK        -0.1800 
     54 N           3.4318   -9.3452  -43.9211 N.am      4 UNK        -0.5000 
     55 C           2.8992   -8.5740  -42.9636 C.2       3 UNK         0.5000 
     56 O           3.5132   -8.1956  -41.9657 O.2       3 UNK        -0.5000 
     57 CA          1.4184   -8.1950  -43.1391 C.3       3 UNK         0.1400 
     58 CB          1.2717   -6.9608  -44.0425 C.3       3 UNK        -0.1800 
     59 N           0.6337   -9.3008  -43.6923 N.am      3 UNK        -0.5000 
     60 C           0.2613  -10.3876  -43.0014 C.2       2 UNK         0.5000 
     61 O           0.5214  -10.5641  -41.8114 O.2       2 UNK        -0.5000 
     62 CA         -0.5052  -11.4743  -43.7775 C.3       2 UNK         0.1400 
     63 CB         -2.0079  -11.1599  -43.8141 C.3       2 UNK        -0.1800 
     64 N          -0.0122  -11.6398  -45.1454 N.am      2 UNK        -0.5000 
     65 C           1.1649  -12.1977  -45.4586 C.2       1 UNK         0.5000 
     66 O           1.9325  -12.6794  -44.6254 O.2       1 UNK        -0.5000 
     67 C          -0.9067  -22.0173  -46.9871 C.2       11 UNK         0.5000 
     68 O          -0.8935  -22.3417  -48.1739 O.2       11 UNK        -0.5000 
     69 N          -1.9937  -21.5581  -46.3518 N.am      12 UNK        -0.5000 
     70 CA         -3.3162  -21.4131  -46.9556 C.3       12 UNK         0.1400 
     71 CB         -4.2595  -20.7170  -45.9644 C.3       12 UNK        -0.1800 
     72 C          -3.8996  -22.7557  -47.4278 C.2       12 UNK         0.5000 
     73 O          -4.4397  -22.8186  -48.5306 O.2       12 UNK        -0.5000 
     74 N          -3.7364  -23.8112  -46.6168 N.am      13 UNK        -0.5000 
     75 CA         -4.1148  -25.1831  -46.9577 C.3       13 UNK         0.1400 
     76 CB         -3.9485  -26.0915  -45.7308 C.3       13 UNK        -0.1800 
     77 C          -3.3262  -25.7358  -48.1585 C.2       13 UNK         0.5000 
     78 O          -3.9267  -26.3453  -49.0431 O.2       13 UNK        -0.5000 
     79 N          -2.0098  -25.4815  -48.1939 N.am      14 UNK        -0.5000 
     80 CA         -1.1336  -25.8387  -49.3106 C.3       14 UNK         0.1400 
     81 CB          0.3331  -25.5876  -48.9295 C.3       14 UNK        -0.1800 
     82 C          -1.5038  -25.0978  -50.6078 C.2       14 UNK         0.5000 
     83 O          -1.5770  -25.7274  -51.6625 O.2       14 UNK        -0.5000 
     84 N          -1.7799  -23.7904  -50.5028 N.am      15 UNK        -0.5000 
     85 CA         -2.2526  -22.9530  -51.6060 C.3       15 UNK         0.1400 
     86 CB         -2.2862  -21.4836  -51.1640 C.3       15 UNK        -0.1800 
     87 C          -3.6250  -23.3990  -52.1421 C.2       15 UNK         0.5000 
     88 O          -3.8055  -23.4739  -53.3574 O.2       15 UNK        -0.5000 
     89 N          -4.5506  -23.7342  -51.2325 N.am      16 UNK        -0.5000 
     90 CA         -5.8688  -24.2772  -51.5556 C.3       16 UNK         0.1400 
     91 CB         -6.7400  -24.3301  -50.2931 C.3       16 UNK        -0.1800 
     92 C          -5.8032  -25.6542  -52.2390 C.2       16 UNK         0.5000 
     93 O          -6.5712  -25.9039  -53.1658 O.2       16 UNK        -0.5000 
     94 N          -4.8741  -26.5144  -51.8041 N.am      17 UNK        -0.5000 
     95 CA         -4.6080  -27.8075  -52.4335 C.3       17 UNK         0.1400 
     96 CB         -3.7054  -28.6496  -51.5189 C.3       17 UNK        -0.1800 
     97 C          -3.9883  -27.6643  -53.8372 C.2       17 UNK         0.5000 
     98 O          -4.3645  -28.4065  -54.7452 O.2       17 UNK        -0.5000 
     99 N          -3.0525  -26.7182  -53.9874 N.am      18 UNK        -0.5000 
    100 CA        -2.3099  -26.4791  -55.2224 C.3       18 UNK         0.1400 
    101 CB        -1.0302  -25.6922  -54.8983 C.3       18 UNK        -0.1800 
    102 C         -3.1214  -25.7496  -56.3076 C.2       18 UNK         0.5000 
    103 O         -3.0391  -26.1363  -57.4744 O.2       18 UNK        -0.5000 
    104 N         -3.8460  -24.6904  -55.9232 N.am      19 UNK        -0.5000 
    105 CA        -4.4077  -23.7017  -56.8490 C.3       19 UNK         0.1400 
    106 CB        -3.5362  -22.4330  -56.7870 C.3       19 UNK        -0.1800 
    107 C         -5.8910  -23.3871  -56.5822 C.2       19 UNK         0.5000 
    108 O         -6.3768  -22.3555  -57.0466 O.2       19 UNK        -0.5000 
    109 N         -6.5889  -24.2553  -55.8363 N.am      20 UNK        -0.5000 
    110 CA        -7.9982  -24.1748  -55.4103 C.3       20 UNK         0.1400 
    111 CB        -8.9607  -24.0053  -56.6026 C.3       20 UNK        -0.1800 
    112 C         -8.2707  -23.1248  -54.3122 C.2       20 UNK         0.5000 
    113 O         -9.1193  -23.3611  -53.4517 O.2       20 UNK        -0.5000 
    114 N         -7.5308  -22.0132  -54.3248 N.am      21 UNK        -0.5000 
    115 CA        -7.5186  -20.9549  -53.3229 C.3       21 UNK         0.1400 
    116 CB        -8.7491  -20.0459  -53.4960 C.3       21 UNK        -0.1800 
    117 C         -6.2169  -20.1568  -53.4864 C.2       21 UNK         0.5000 
    118 O         -5.6170  -20.1827  -54.5644 O.2       21 UNK        -0.5000 
    119 N         -5.8096  -19.4479  -52.4276 N.am      22 UNK        -0.5000 
    120 CA        -4.6826  -18.5042  -52.4678 C.3       22 UNK         0.1400 
    121 C         -5.0423  -17.2001  -53.2367 C.2       22 UNK         0.5000 
    122 N         -4.1085  -16.6327  -53.9877 N.am      22 UNK        -0.7600 
    123 O         -6.1519  -16.6815  -53.1313 O.2       22 UNK        -0.5000 
    124 C124       -4.1444  -18.2004  -51.0447 C.3       23 UNK        -0.0398 
    125 S125       -2.3702  -17.7835  -51.0812 S.3       23 UNK        -0.2404 
    126 C126       -1.9904  -17.6489  -49.3100 C.3       23 UNK        -0.0205 
    127 H127        0.1828   -8.0155  -47.7825 H         1 UNK         0.0600 
    128 H128        0.1755   -9.1495  -49.1373 H         1 UNK         0.0600 
    129 H129        1.5993   -8.1503  -48.8297 H         1 UNK         0.0600 
    130 H130        0.4965  -11.2652  -48.4997 H         1 UNK         0.3000 
    131 H131        2.6557  -12.1704  -46.9771 H         1 UNK         0.0600 
    132 H132        1.4682  -14.3941  -46.9852 H         1 UNK         0.0800 
    133 H133        0.0396  -13.6247  -47.6302 H         1 UNK         0.0800 
    134 H134        3.2109  -15.5277  -50.0393 H         1 UNK         0.0800 
    135 H135        3.2954  -15.3657  -48.3057 H         1 UNK         0.0800 
    136 H136       -0.2005  -15.6125  -49.3788 H         1 UNK         0.1150 
    137 H137       -0.4721  -19.8347  -48.8320 H         1 UNK         0.1150 
    138 H138        3.3531  -17.9201  -48.6491 H         1 UNK         0.1150 
    139 H139        1.5275  -21.1783  -48.8401 H         1 UNK         0.0800 
    140 H140        3.0686  -20.4238  -49.1292 H         1 UNK         0.0800 
    141 H141        0.4512  -19.9492  -46.1934 H         1 UNK         0.0800 
    142 H142        1.2895  -20.6481  -44.8585 H         1 UNK         0.0800 
    143 H143        1.0359  -22.8339  -46.6886 H         1 UNK         0.0600 
    144 H144        0.0631  -22.2840  -44.0409 H         1 UNK         0.3000 
    145 H145       -1.3760  -25.4684  -43.4614 H         1 UNK         0.0600 
    146 H146        0.2945  -25.5160  -41.6293 H         1 UNK         0.0600 
    147 H147        1.0696  -25.8807  -43.1624 H         1 UNK         0.0600 
    148 H148        1.2651  -24.2875  -42.4416 H         1 UNK         0.0600 
    149 H149       -0.8621  -23.2001  -41.7834 H         1 UNK         0.3000 
    150 H150       -3.8697  -21.4244  -42.5177 H         1 UNK         0.0600 
    151 H151       -2.9518  -22.9523  -40.0229 H         1 UNK         0.0600 
    152 H152       -4.4927  -23.1752  -40.8428 H         1 UNK         0.0600 
    153 H153       -4.1312  -21.6415  -40.0678 H         1 UNK         0.0600 
    154 H154       -1.8299  -20.8056  -40.6838 H         1 UNK         0.3000 
    155 H155       -0.6993  -18.7080  -41.2639 H         1 UNK         0.0600 
    156 H156        1.4006  -20.6562  -42.4210 H         1 UNK         0.0600 
    157 H157        0.7334  -20.7346  -40.7953 H         1 UNK         0.0600 
    158 H158        1.7374  -19.3757  -41.2611 H         1 UNK         0.0600 
    159 H159       -0.3626  -18.7168  -44.0733 H         1 UNK         0.3000 
    160 H160        0.8558  -17.2051  -45.2791 H         1 UNK         0.0600 
    161 H161       -0.4080  -14.7724  -43.8977 H         1 UNK         0.0600 
    162 H162       -1.3120  -16.1095  -44.5946 H         1 UNK         0.0600 
    163 H163       -0.3542  -15.0778  -45.6338 H         1 UNK         0.0600 
    164 H164        1.9796  -14.7132  -44.2846 H         1 UNK         0.3000 
    165 H165        5.3190  -15.8045  -44.0644 H         1 UNK         0.0600 
    166 H166        5.7686  -14.0580  -45.7764 H         1 UNK         0.0600 
    167 H167        5.1595  -15.5189  -46.5399 H         1 UNK         0.0600 
    168 H168        4.0970  -14.1306  -46.3269 H         1 UNK         0.0600 
    169 H169        3.6451  -13.3562  -44.0511 H         1 UNK         0.3000 
    170 H170        2.6744  -13.0008  -41.4395 H         1 UNK         0.0600 
    171 H171        4.1428  -13.4262  -39.5214 H         1 UNK         0.0600 
    172 H172        5.4510  -12.5029  -40.2439 H         1 UNK         0.0600 
    173 H173        3.9705  -11.6917  -39.7337 H         1 UNK         0.0600 
    174 H174        2.9682  -11.2743  -42.7713 H         1 UNK         0.3000 
    175 H175        5.4821   -9.1058  -43.6240 H         1 UNK         0.0600 
    176 H176        6.1590  -10.7612  -45.3610 H         1 UNK         0.0600 
    177 H177        4.4760  -11.1908  -45.6378 H         1 UNK         0.0600 
    178 H178        5.0551   -9.5757  -46.0420 H         1 UNK         0.0600 
    179 H179        2.8745   -9.5407  -44.7489 H         1 UNK         0.3000 
    180 H180        1.0179   -7.9431  -42.1547 H         1 UNK         0.0600 
    181 H181        1.6500   -7.1464  -45.0483 H         1 UNK         0.0600 
    182 H182        1.8250   -6.1133  -43.6360 H         1 UNK         0.0600 
    183 H183        0.2284   -6.6566  -44.1276 H         1 UNK         0.0600 
    184 H184        0.4310   -9.2597  -44.6805 H         1 UNK         0.3000 
    185 H185       -0.3695  -12.4176  -43.2445 H         1 UNK         0.0600 
    186 H186       -2.4078  -11.0486  -42.8053 H         1 UNK         0.0600 
    187 H187       -2.2146  -10.2347  -44.3534 H         1 UNK         0.0600 
    188 H188       -2.5659  -11.9625  -44.2968 H         1 UNK         0.0600 
    189 H189       -0.5854  -11.2677  -45.8886 H         1 UNK         0.3000 
    190 H190       -1.9078  -21.2807  -45.3766 H         1 UNK         0.3000 
    191 H191       -3.2106  -20.7713  -47.8324 H         1 UNK         0.0600 
    192 H192       -3.8760  -19.7375  -45.6779 H         1 UNK         0.0600 
    193 H193       -5.2458  -20.5659  -46.4046 H         1 UNK         0.0600 
    194 H194       -4.3911  -21.3027  -45.0543 H         1 UNK         0.0600 
    195 H195       -3.3394  -23.6649  -45.6933 H         1 UNK         0.3000 
    196 H196       -5.1718  -25.1764  -47.2313 H         1 UNK         0.0600 
    197 H197       -4.2413  -27.1165  -45.9612 H         1 UNK         0.0600 
    198 H198       -4.5726  -25.7536  -44.9033 H         1 UNK         0.0600 
    199 H199       -2.9157  -26.1149  -45.3832 H         1 UNK         0.0600 
    200 H200       -1.5759  -25.0101  -47.4072 H         1 UNK         0.3000 
    201 H201       -1.2534  -26.9080  -49.4966 H         1 UNK         0.0600 
    202 H202        1.0011  -25.8701  -49.7440 H         1 UNK         0.0600 
    203 H203        0.6182  -26.1748  -48.0564 H         1 UNK         0.0600 
    204 H204        0.5201  -24.5386  -48.7009 H         1 UNK         0.0600 
    205 H205       -1.6481  -23.3336  -49.6037 H         1 UNK         0.3000 
    206 H206       -1.5338  -23.0434  -52.4229 H         1 UNK         0.0600 
    207 H207       -1.2983  -21.1409  -50.8562 H         1 UNK         0.0600 
    208 H208       -2.6122  -20.8414  -51.9822 H         1 UNK         0.0600 
    209 H209       -2.9688  -21.3269  -50.3290 H         1 UNK         0.0600 
    210 H210       -4.3474  -23.5915  -50.2461 H         1 UNK         0.3000 
    211 H211       -6.3366  -23.5871  -52.2561 H         1 UNK         0.0600 
    212 H212       -6.3071  -24.9795  -49.5322 H         1 UNK         0.0600 
    213 H213       -7.7366  -24.7090  -50.5233 H         1 UNK         0.0600 
    214 H214       -6.8626  -23.3383  -49.8578 H         1 UNK         0.0600 
    215 H215       -4.3203  -26.2747  -50.9873 H         1 UNK         0.3000 
    216 H216       -5.5590  -28.3333  -52.5422 H         1 UNK         0.0600 
    217 H217       -3.5107  -29.6293  -51.9569 H         1 UNK         0.0600 
    218 H218       -4.1731  -28.8140  -50.5480 H         1 UNK         0.0600 
    219 H219       -2.7421  -28.1690  -51.3474 H         1 UNK         0.0600 
    220 H220       -2.7586  -26.1894  -53.1714 H         1 UNK         0.3000 
    221 H221       -2.0086  -27.4464  -55.6304 H         1 UNK         0.0600 
    222 H222       -1.2561  -24.7268  -54.4433 H         1 UNK         0.0600 
    223 H223       -0.3926  -26.2450  -54.2082 H         1 UNK         0.0600 
    224 H224       -0.4462  -25.5031  -55.7999 H         1 UNK         0.0600 
    225 H225       -3.8494  -24.4206  -54.9403 H         1 UNK         0.3000 
    226 H226       -4.3738  -24.0776  -57.8731 H         1 UNK         0.0600 
    227 H227       -3.8662  -21.6871  -57.5110 H         1 UNK         0.0600 
    228 H228       -3.5747  -21.9719  -55.7990 H         1 UNK         0.0600 
    229 H229       -2.4935  -22.6586  -57.0107 H         1 UNK         0.0600 
    230 H230       -6.0843  -25.0480  -55.4618 H         1 UNK         0.3000 
    231 H231       -8.2246  -25.1462  -54.9705 H         1 UNK         0.0600 
    232 H232       -8.8784  -23.0206  -57.0628 H         1 UNK         0.0600 
    233 H233       -9.9959  -24.1215  -56.2796 H         1 UNK         0.0600 
    234 H234       -8.7743  -24.7549  -57.3715 H         1 UNK         0.0600 
    235 H235       -6.8626  -21.8794  -55.0791 H         1 UNK         0.3000 
    236 H236       -7.5289  -21.4041  -52.3277 H         1 UNK         0.0600 
    237 H237       -9.6772  -20.5985  -53.3498 H         1 UNK         0.0600 
    238 H238       -8.7411  -19.2314  -52.7707 H         1 UNK         0.0600 
    239 H239       -8.7784  -19.5994  -54.4907 H         1 UNK         0.0600 
    240 H240       -6.3761  -19.4350  -51.5923 H         1 UNK         0.3000 
    241 H241       -3.8879  -19.0048  -53.0255 H         1 UNK         0.0600 
    242 H242       -3.1836  -17.0275  -54.0624 H         1 UNK         0.3800 
    243 H243       -4.3251  -15.7811  -54.4817 H         1 UNK         0.3800 
    244 H244       -4.7066  -17.4007  -50.5587 H         1 UNK         0.0800 
    245 H245       -4.2537  -19.0795  -50.4080 H         1 UNK         0.0800 
    246 H246       -2.3966  -16.7155  -48.9174 H         1 UNK         0.0800 
    247 H247       -2.4779  -18.4571  -48.7628 H         1 UNK         0.0800 
@<TRIPOS>BOND
     1    1    2 1    
     2    1  127 1    
     3    1  128 1    
     4    1  129 1    
     5    2    3 2    
     6    2    4 am   BACKBONE|DICT|INTERRES
     7    4    5 1    
     8    4  130 1    
     9    5    6 1    
    10    5   65 1    
    11    5  131 1    
    12    6    7 1    
    13    6  132 1    
    14    6  133 1    
    15    7    8 1    
    16    8    9 1    
    17    8  134 1    
    18    8  135 1    
    19    9   10 ar   
    20    9   14 ar   
    21   10   11 ar   
    22   10  136 1    
    23   11   12 ar   
    24   11  126 1    
    25   12   13 ar   
    26   12  137 1    
    27   13   14 ar   
    28   13   15 1    
    29   14  138 1    
    30   15   16 1    
    31   15  139 1    
    32   15  140 1    
    33   16   17 1    
    34   17   18 1    
    35   17  141 1    
    36   17  142 1    
    37   18   19 1    
    38   18   67 1    
    39   18  143 1    
    40   19   20 am   BACKBONE|DICT|INTERRES
    41   19  144 1    
    42   20   21 2    
    43   20   22 1    
    44   22   23 1    
    45   22   24 1    
    46   22  145 1    
    47   23  146 1    
    48   23  147 1    
    49   23  148 1    
    50   24   25 am   BACKBONE|DICT|INTERRES
    51   24  149 1    
    52   25   26 2    
    53   25   27 1    
    54   27   28 1    
    55   27   29 1    
    56   27  150 1    
    57   28  151 1    
    58   28  152 1    
    59   28  153 1    
    60   29   30 am   BACKBONE|DICT|INTERRES
    61   29  154 1    
    62   30   31 2    
    63   30   32 1    
    64   32   33 1    
    65   32   34 1    
    66   32  155 1    
    67   33  156 1    
    68   33  157 1    
    69   33  158 1    
    70   34   35 am   BACKBONE|DICT|INTERRES
    71   34  159 1    
    72   35   36 2    
    73   35   37 1    
    74   37   38 1    
    75   37   39 1    
    76   37  160 1    
    77   38  161 1    
    78   38  162 1    
    79   38  163 1    
    80   39   40 am   BACKBONE|DICT|INTERRES
    81   39  164 1    
    82   40   41 2    
    83   40   42 1    
    84   42   43 1    
    85   42   44 1    
    86   42  165 1    
    87   43  166 1    
    88   43  167 1    
    89   43  168 1    
    90   44   45 am   BACKBONE|DICT|INTERRES
    91   44  169 1    
    92   45   46 2    
    93   45   47 1    
    94   47   48 1    
    95   47   49 1    
    96   47  170 1    
    97   48  171 1    
    98   48  172 1    
    99   48  173 1    
   100   49   50 am   BACKBONE|DICT|INTERRES
   101   49  174 1    
   102   50   51 2    
   103   50   52 1    
   104   52   53 1    
   105   52   54 1    
   106   52  175 1    
   107   53  176 1    
   108   53  177 1    
   109   53  178 1    
   110   54   55 am   BACKBONE|DICT|INTERRES
   111   54  179 1    
   112   55   56 2    
   113   55   57 1    
   114   57   58 1    
   115   57   59 1    
   116   57  180 1    
   117   58  181 1    
   118   58  182 1    
   119   58  183 1    
   120   59   60 am   BACKBONE|DICT|INTERRES
   121   59  184 1    
   122   60   61 2    
   123   60   62 1    
   124   62   63 1    
   125   62   64 1    
   126   62  185 1    
   127   63  186 1    
   128   63  187 1    
   129   63  188 1    
   130   64   65 am   BACKBONE|DICT|INTERRES
   131   64  189 1    
   132   65   66 2    
   133   67   68 2    
   134   67   69 am   BACKBONE|DICT|INTERRES
   135   69   70 1    
   136   69  190 1    
   137   70   71 1    
   138   70   72 1    
   139   70  191 1    
   140   71  192 1    
   141   71  193 1    
   142   71  194 1    
   143   72   73 2    
   144   72   74 am   BACKBONE|DICT|INTERRES
   145   74   75 1    
   146   74  195 1    
   147   75   76 1    
   148   75   77 1    
   149   75  196 1    
   150   76  197 1    
   151   76  198 1    
   152   76  199 1    
   153   77   78 2    
   154   77   79 am   BACKBONE|DICT|INTERRES
   155   79   80 1    
   156   79  200 1    
   157   80   81 1    
   158   80   82 1    
   159   80  201 1    
   160   81  202 1    
   161   81  203 1    
   162   81  204 1    
   163   82   83 2    
   164   82   84 am   BACKBONE|DICT|INTERRES
   165   84   85 1    
   166   84  205 1    
   167   85   86 1    
   168   85   87 1    
   169   85  206 1    
   170   86  207 1    
   171   86  208 1    
   172   86  209 1    
   173   87   88 2    
   174   87   89 am   BACKBONE|DICT|INTERRES
   175   89   90 1    
   176   89  210 1    
   177   90   91 1    
   178   90   92 1    
   179   90  211 1    
   180   91  212 1    
   181   91  213 1    
   182   91  214 1    
   183   92   93 2    
   184   92   94 am   BACKBONE|DICT|INTERRES
   185   94   95 1    
   186   94  215 1    
   187   95   96 1    
   188   95   97 1    
   189   95  216 1    
   190   96  217 1    
   191   96  218 1    
   192   96  219 1    
   193   97   98 2    
   194   97   99 am   BACKBONE|DICT|INTERRES
   195   99  100 1    
   196   99  220 1    
   197  100  101 1    
   198  100  102 1    
   199  100  221 1    
   200  101  222 1    
   201  101  223 1    
   202  101  224 1    
   203  102  103 2    
   204  102  104 am   BACKBONE|DICT|INTERRES
   205  104  105 1    
   206  104  225 1    
   207  105  106 1    
   208  105  107 1    
   209  105  226 1    
   210  106  227 1    
   211  106  228 1    
   212  106  229 1    
   213  107  108 2    
   214  107  109 am   BACKBONE|DICT|INTERRES
   215  109  110 1    
   216  109  230 1    
   217  110  111 1    
   218  110  112 1    
   219  110  231 1    
   220  111  232 1    
   221  111  233 1    
   222  111  234 1    
   223  112  113 2    
   224  112  114 am   BACKBONE|DICT|INTERRES
   225  114  115 1    
   226  114  235 1    
   227  115  116 1    
   228  115  117 1    
   229  115  236 1    
   230  116  237 1    
   231  116  238 1    
   232  116  239 1    
   233  117  118 2    
   234  117  119 am   BACKBONE|DICT|INTERRES
   235  119  120 1    
   236  119  240 1    
   237  120  121 1    
   238  120  124 1    
   239  120  241 1    
   240  121  122 am   BACKBONE|DICT|INTERRES
   241  121  123 2    
   242  122  242 1    
   243  122  243 1    
   244  124  125 1    
   245  124  244 1    
   246  124  245 1    
   247  125  126 1    
   248  126  246 1    
   249  126  247 1    
@<TRIPOS>SUBSTRUCTURE
     1 UNK         1 GROUP             0       ****    0 ROOT    
