@<TRIPOS>MOLECULE
3R540
247   249    1
SMALL
USER_CHARGES


@<TRIPOS>ATOM
      1 CA         -0.2697  -12.1338  -52.3489 C.3       0 UNK        -0.1800 
      2 C          -0.8154  -12.6374  -51.0216 C.2       0 UNK         0.5000 
      3 O          -0.7290  -11.9331  -50.0137 O.2       0 UNK        -0.5000 
      4 N          -1.4034  -13.8399  -51.0156 N.am      1 UNK        -0.5000 
      5 CA         -1.9987  -14.5165  -49.8585 C.3       1 UNK         0.1400 
      6 C6         -2.0182  -16.0538  -50.0572 C.3       23 UNK        -0.0398 
      7 S7         -2.1303  -16.9770  -48.4875 S.3       23 UNK        -0.2404 
      8 C8         -0.4145  -16.9225  -47.8841 C.3       23 UNK        -0.0205 
      9 C9          0.5470  -17.7203  -48.7503 C.ar      23 UNK        -0.0193 
     10 C10         1.4725  -17.0607  -49.5649 C.ar      23 UNK        -0.1150 
     11 C11         2.3880  -17.7898  -50.3281 C.ar      23 UNK        -0.0193 
     12 C12         2.3962  -19.1852  -50.2421 C.ar      23 UNK        -0.1150 
     13 C13         1.4664  -19.8582  -49.4452 C.ar      23 UNK        -0.0193 
     14 C14         0.5368  -19.1176  -48.7082 C.ar      23 UNK        -0.1150 
     15 C15         1.4570  -21.3812  -49.4166 C.3       23 UNK        -0.0205 
     16 S16         2.0710  -22.0500  -47.8340 S.3       23 UNK        -0.2404 
     17 C17         0.5160  -22.2539  -46.9051 C.3       23 UNK        -0.0398 
     18 CA          0.1813  -23.7413  -46.6469 C.3       11 UNK         0.1400 
     19 N           1.0852  -24.3614  -45.6724 N.am      11 UNK        -0.5000 
     20 C           1.1903  -25.6850  -45.4785 C.2       10 UNK         0.5000 
     21 O           0.5353  -26.5174  -46.1041 O.2       10 UNK        -0.5000 
     22 CA          2.1412  -26.1624  -44.3633 C.3       10 UNK         0.1400 
     23 CB          3.5758  -26.2857  -44.8970 C.3       10 UNK        -0.1800 
     24 N           2.1386  -25.2910  -43.1883 N.am      10 UNK        -0.5000 
     25 C           1.0600  -24.9906  -42.4517 C.2       9 UNK         0.5000 
     26 O          -0.0495  -25.4884  -42.6378 O.2       9 UNK        -0.5000 
     27 CA          1.2268  -23.9147  -41.3613 C.3       9 UNK         0.1400 
     28 CB          1.3824  -24.5725  -39.9824 C.3       9 UNK        -0.1800 
     29 N           2.3417  -22.9849  -41.5783 N.am      9 UNK        -0.5000 
     30 C           2.5075  -22.1970  -42.6499 C.2       8 UNK         0.5000 
     31 O           1.7736  -22.2220  -43.6420 O.2       8 UNK        -0.5000 
     32 CA          3.7418  -21.2752  -42.6210 C.3       8 UNK         0.1400 
     33 CB          4.9858  -22.0454  -43.0915 C.3       8 UNK        -0.1800 
     34 N           3.5824  -20.0886  -43.4615 N.am      8 UNK        -0.5000 
     35 C           2.6651  -19.1305  -43.2798 C.2       7 UNK         0.5000 
     36 O           1.8745  -19.1070  -42.3319 O.2       7 UNK        -0.5000 
     37 CA          2.6319  -18.0281  -44.3569 C.3       7 UNK         0.1400 
     38 CB          2.1529  -18.5923  -45.7032 C.3       7 UNK        -0.1800 
     39 N           1.7633  -16.9110  -43.9847 N.am      7 UNK        -0.5000 
     40 C           2.0600  -15.9774  -43.0715 C.2       6 UNK         0.5000 
     41 O           3.1495  -15.9071  -42.4996 O.2       6 UNK        -0.5000 
     42 CA          0.9556  -14.9471  -42.7692 C.3       6 UNK         0.1400 
     43 CB          1.4956  -13.6445  -42.1479 C.3       6 UNK        -0.1800 
     44 N           0.2020  -14.6335  -43.9826 N.am      6 UNK        -0.5000 
     45 C          -1.1051  -14.3635  -44.0498 C.2       5 UNK         0.5000 
     46 O          -1.8536  -14.3783  -43.0711 O.2       5 UNK        -0.5000 
     47 CA         -1.6493  -13.9860  -45.4467 C.3       5 UNK         0.1400 
     48 CB         -3.1715  -13.7606  -45.4505 C.3       5 UNK        -0.1800 
     49 N          -0.9930  -12.7921  -45.9882 N.am      5 UNK        -0.5000 
     50 C           0.2522  -12.7366  -46.4818 C.2       4 UNK         0.5000 
     51 O           0.9741  -13.7298  -46.5907 O.2       4 UNK        -0.5000 
     52 CA          0.7694  -11.3490  -46.9058 C.3       4 UNK         0.1400 
     53 CB          1.9761  -11.4395  -47.8580 C.3       4 UNK        -0.1800 
     54 N          -0.2917  -10.5866  -47.5606 N.am      4 UNK        -0.5000 
     55 C          -0.9020   -9.5004  -47.0686 C.2       3 UNK         0.5000 
     56 O          -0.6409   -9.0013  -45.9738 O.2       3 UNK        -0.5000 
     57 CA         -2.0129   -8.8863  -47.9405 C.3       3 UNK         0.1400 
     58 CB         -1.4084   -7.9969  -49.0386 C.3       3 UNK        -0.1800 
     59 N          -2.8474   -9.9161  -48.5608 N.am      3 UNK        -0.5000 
     60 C          -3.7999  -10.6105  -47.9193 C.2       2 UNK         0.5000 
     61 O          -4.1313  -10.4077  -46.7514 O.2       2 UNK        -0.5000 
     62 CA         -4.4252  -11.7750  -48.6972 C.3       2 UNK         0.1400 
     63 CB         -5.2959  -11.2905  -49.8702 C.3       2 UNK        -0.1800 
     64 N          -3.3335  -12.6118  -49.1722 N.am      2 UNK        -0.5000 
     65 C          -3.3736  -13.9023  -49.5037 C.2       1 UNK         0.5000 
     66 O          -4.4087  -14.5677  -49.5488 O.2       1 UNK        -0.5000 
     67 C          -1.2979  -23.8914  -46.2415 C.2       11 UNK         0.5000 
     68 O          -2.1522  -24.0010  -47.1224 O.2       11 UNK        -0.5000 
     69 N          -1.5769  -23.9041  -44.9316 N.am      12 UNK        -0.5000 
     70 CA         -2.9097  -24.1485  -44.3858 C.3       12 UNK         0.1400 
     71 CB         -2.9927  -23.6022  -42.9522 C.3       12 UNK        -0.1800 
     72 C          -3.2653  -25.6438  -44.4357 C.2       12 UNK         0.5000 
     73 O          -4.3715  -25.9878  -44.8504 O.2       12 UNK        -0.5000 
     74 N          -2.3108  -26.5036  -44.0510 N.am      13 UNK        -0.5000 
     75 CA         -2.4423  -27.9623  -44.0333 C.3       13 UNK         0.1400 
     76 CB         -1.2077  -28.5769  -43.3571 C.3       13 UNK        -0.1800 
     77 C          -2.6559  -28.5722  -45.4307 C.2       13 UNK         0.5000 
     78 O          -3.4897  -29.4658  -45.5821 O.2       13 UNK        -0.5000 
     79 N          -1.9268  -28.0584  -46.4309 N.am      14 UNK        -0.5000 
     80 CA         -2.0713  -28.4355  -47.8395 C.3       14 UNK         0.1400 
     81 CB         -0.7884  -28.0444  -48.5909 C.3       14 UNK        -0.1800 
     82 C          -3.2961  -27.7914  -48.5203 C.2       14 UNK         0.5000 
     83 O          -3.6345  -28.1858  -49.6366 O.2       14 UNK        -0.5000 
     84 N          -3.9069  -26.7936  -47.8615 N.am      15 UNK        -0.5000 
     85 CA         -4.9912  -25.9294  -48.3432 C.3       15 UNK         0.1400 
     86 CB         -6.2817  -26.7366  -48.5916 C.3       15 UNK        -0.1800 
     87 C          -4.5833  -25.0594  -49.5521 C.2       15 UNK         0.5000 
     88 O          -5.4426  -24.6182  -50.3158 O.2       15 UNK        -0.5000 
     89 N          -3.2759  -24.8007  -49.6881 N.am      16 UNK        -0.5000 
     90 CA         -2.6840  -23.9424  -50.7112 C.3       16 UNK         0.1400 
     91 CB         -1.1631  -24.1549  -50.7312 C.3       16 UNK        -0.1800 
     92 C          -3.0223  -22.4610  -50.4824 C.2       16 UNK         0.5000 
     93 O          -3.2351  -21.7352  -51.4524 O.2       16 UNK        -0.5000 
     94 N          -3.1228  -22.0596  -49.2055 N.am      17 UNK        -0.5000 
     95 CA         -3.4757  -20.7099  -48.7502 C.3       17 UNK         0.1400 
     96 CB         -3.2935  -20.6413  -47.2242 C.3       17 UNK        -0.1800 
     97 C          -4.8971  -20.2444  -49.1379 C.2       17 UNK         0.5000 
     98 O          -5.2115  -19.0665  -48.9684 O.2       17 UNK        -0.5000 
     99 N          -5.7383  -21.1600  -49.6411 N.am      18 UNK        -0.5000 
    100 CA        -7.0676  -20.8616  -50.1743 C.3       18 UNK         0.1400 
    101 CB        -7.8299  -22.1778  -50.3882 C.3       18 UNK        -0.1800 
    102 C         -7.0251  -20.0428  -51.4810 C.2       18 UNK         0.5000 
    103 O         -7.9832  -19.3235  -51.7679 O.2       18 UNK        -0.5000 
    104 N         -5.9280  -20.1555  -52.2428 N.am      19 UNK        -0.5000 
    105 CA        -5.6687  -19.3543  -53.4343 C.3       19 UNK         0.1400 
    106 CB        -4.8923  -20.2033  -54.4528 C.3       19 UNK        -0.1800 
    107 C         -4.8630  -18.1059  -53.0456 C.2       19 UNK         0.5000 
    108 O         -3.8716  -18.2218  -52.3218 O.2       19 UNK        -0.5000 
    109 N         -5.2685  -16.9391  -53.5639 N.am      20 UNK        -0.5000 
    110 CA        -4.5858  -15.6616  -53.3353 C.3       20 UNK         0.1400 
    111 CB        -5.4549  -14.5108  -53.8622 C.3       20 UNK        -0.1800 
    112 C         -3.1810  -15.6127  -53.9653 C.2       20 UNK         0.5000 
    113 O         -2.2762  -15.0040  -53.3942 O.2       20 UNK        -0.5000 
    114 N         -3.0041  -16.2954  -55.1034 N.am      21 UNK        -0.5000 
    115 CA        -1.7391  -16.4351  -55.8267 C.3       21 UNK         0.1400 
    116 CB        -2.0515  -16.7340  -57.3044 C.3       21 UNK        -0.1800 
    117 C         -0.8170  -17.4953  -55.1836 C.2       21 UNK         0.5000 
    118 O         -0.3798  -18.4268  -55.8622 O.2       21 UNK        -0.5000 
    119 N         -0.5450  -17.3309  -53.8832 N.am      22 UNK        -0.5000 
    120 CA         0.2902  -18.2100  -53.0477 C.3       22 UNK         0.1400 
    121 C         -0.2587  -19.6609  -52.9086 C.2       22 UNK         0.5000 
    122 N         -1.5587  -19.8190  -52.7053 N.am      22 UNK        -0.7600 
    123 O          0.4801  -20.6412  -52.9543 O.2       22 UNK        -0.5000 
    124 C124        1.8012  -18.1215  -53.4139 C.3       23 UNK        -0.0398 
    125 S125        2.5249  -16.5515  -52.8201 S.3       23 UNK        -0.2404 
    126 C126        3.3453  -17.0767  -51.2740 C.3       23 UNK        -0.0205 
    127 H127       -0.7715  -11.2092  -52.6337 H         1 UNK         0.0600 
    128 H128       -0.4143  -12.8618  -53.1476 H         1 UNK         0.0600 
    129 H129        0.7979  -11.9320  -52.2613 H         1 UNK         0.0600 
    130 H130       -1.5484  -14.3089  -51.9084 H         1 UNK         0.3000 
    131 H131       -1.3447  -14.3093  -49.0090 H         1 UNK         0.0600 
    132 H132       -2.8437  -16.3588  -50.7004 H         1 UNK         0.0800 
    133 H133       -1.1160  -16.3782  -50.5748 H         1 UNK         0.0800 
    134 H134       -0.0837  -15.8869  -47.8062 H         1 UNK         0.0800 
    135 H135       -0.3942  -17.3212  -46.8694 H         1 UNK         0.0800 
    136 H136        1.4736  -15.9806  -49.6165 H         1 UNK         0.1150 
    137 H137        3.1075  -19.7525  -50.8257 H         1 UNK         0.1150 
    138 H138       -0.1891  -19.6205  -48.0878 H         1 UNK         0.1150 
    139 H139        0.4520  -21.7447  -49.6328 H         1 UNK         0.0800 
    140 H140        2.0863  -21.7738  -50.2168 H         1 UNK         0.0800 
    141 H141       -0.2847  -21.7835  -47.4732 H         1 UNK         0.0800 
    142 H142        0.5871  -21.6980  -45.9691 H         1 UNK         0.0800 
    143 H143        0.2959  -24.2810  -47.5894 H         1 UNK         0.0600 
    144 H144        1.6092  -23.7269  -45.0793 H         1 UNK         0.3000 
    145 H145        1.8088  -27.1515  -44.0434 H         1 UNK         0.0600 
    146 H146        4.2433  -26.7031  -44.1430 H         1 UNK         0.0600 
    147 H147        3.6137  -26.9462  -45.7644 H         1 UNK         0.0600 
    148 H148        3.9763  -25.3182  -45.2028 H         1 UNK         0.0600 
    149 H149        3.0074  -24.8301  -42.9640 H         1 UNK         0.3000 
    150 H150        0.3084  -23.3242  -41.3556 H         1 UNK         0.0600 
    151 H151        2.3045  -25.1511  -39.9148 H         1 UNK         0.0600 
    152 H152        0.5532  -25.2511  -39.7767 H         1 UNK         0.0600 
    153 H153        1.3933  -23.8270  -39.1872 H         1 UNK         0.0600 
    154 H154        3.0082  -22.9156  -40.8226 H         1 UNK         0.3000 
    155 H155        3.9005  -20.9395  -41.5942 H         1 UNK         0.0600 
    156 H156        4.8764  -22.3966  -44.1187 H         1 UNK         0.0600 
    157 H157        5.1701  -22.9185  -42.4643 H         1 UNK         0.0600 
    158 H158        5.8785  -21.4214  -43.0435 H         1 UNK         0.0600 
    159 H159        4.1678  -20.0474  -44.2824 H         1 UNK         0.3000 
    160 H160        3.6489  -17.6504  -44.4828 H         1 UNK         0.0600 
    161 H161        1.1324  -18.9720  -45.6428 H         1 UNK         0.0600 
    162 H162        2.7850  -19.4126  -46.0450 H         1 UNK         0.0600 
    163 H163        2.1874  -17.8248  -46.4755 H         1 UNK         0.0600 
    164 H164        0.8315  -16.9185  -44.3699 H         1 UNK         0.3000 
    165 H165        0.2929  -15.4231  -42.0436 H         1 UNK         0.0600 
    166 H166        0.6859  -12.9523  -41.9167 H         1 UNK         0.0600 
    167 H167        2.0261  -13.8419  -41.2157 H         1 UNK         0.0600 
    168 H168        2.1868  -13.1379  -42.8222 H         1 UNK         0.0600 
    169 H169        0.7438  -14.5601  -44.8404 H         1 UNK         0.3000 
    170 H170       -1.4445  -14.8289  -46.1080 H         1 UNK         0.0600 
    171 H171       -3.6985  -14.6297  -45.0544 H         1 UNK         0.0600 
    172 H172       -3.4544  -12.8974  -44.8466 H         1 UNK         0.0600 
    173 H173       -3.5420  -13.5984  -46.4609 H         1 UNK         0.0600 
    174 H174       -1.5037  -11.9252  -45.9007 H         1 UNK         0.3000 
    175 H175        1.0980  -10.8443  -45.9955 H         1 UNK         0.0600 
    176 H176        2.8181  -11.9413  -47.3793 H         1 UNK         0.0600 
    177 H177        1.7332  -11.9956  -48.7640 H         1 UNK         0.0600 
    178 H178        2.3175  -10.4479  -48.1557 H         1 UNK         0.0600 
    179 H179       -0.5619  -10.9373  -48.4767 H         1 UNK         0.3000 
    180 H180       -2.6395   -8.2602  -47.3010 H         1 UNK         0.0600 
    181 H181       -0.7829   -8.5701  -49.7250 H         1 UNK         0.0600 
    182 H182       -0.7874   -7.2110  -48.6064 H         1 UNK         0.0600 
    183 H183       -2.1883   -7.5087  -49.6234 H         1 UNK         0.0600 
    184 H184       -2.6438  -10.1350  -49.5254 H         1 UNK         0.3000 
    185 H185       -5.0458  -12.3522  -48.0083 H         1 UNK         0.0600 
    186 H186       -6.0851  -10.6240  -49.5196 H         1 UNK         0.0600 
    187 H187       -4.7112  -10.7484  -50.6144 H         1 UNK         0.0600 
    188 H188       -5.7786  -12.1286  -50.3736 H         1 UNK         0.0600 
    189 H189       -2.4205  -12.1683  -49.2104 H         1 UNK         0.3000 
    190 H190       -0.8156  -23.8436  -44.2707 H         1 UNK         0.3000 
    191 H191       -3.6411  -23.6082  -44.9913 H         1 UNK         0.0600 
    192 H192       -2.7744  -22.5346  -42.9253 H         1 UNK         0.0600 
    193 H193       -3.9943  -23.7394  -42.5429 H         1 UNK         0.0600 
    194 H194       -2.2948  -24.1033  -42.2815 H         1 UNK         0.0600 
    195 H195       -1.4418  -26.1272  -43.6789 H         1 UNK         0.3000 
    196 H196       -3.3177  -28.2067  -43.4283 H         1 UNK         0.0600 
    197 H197       -1.2962  -29.6620  -43.2931 H         1 UNK         0.0600 
    198 H198       -1.0847  -28.1994  -42.3418 H         1 UNK         0.0600 
    199 H199       -0.2953  -28.3534  -43.9100 H         1 UNK         0.0600 
    200 H200       -1.2089  -27.3704  -46.2189 H         1 UNK         0.3000 
    201 H201       -2.1885  -29.5192  -47.9044 H         1 UNK         0.0600 
    202 H202       -0.8317  -28.3600  -49.6340 H         1 UNK         0.0600 
    203 H203        0.0886  -28.5151  -48.1461 H         1 UNK         0.0600 
    204 H204       -0.6303  -26.9651  -48.5813 H         1 UNK         0.0600 
    205 H205       -3.5659  -26.5707  -46.9358 H         1 UNK         0.3000 
    206 H206       -5.1949  -25.2297  -47.5314 H         1 UNK         0.0600 
    207 H207       -6.5428  -27.3384  -47.7211 H         1 UNK         0.0600 
    208 H208       -7.1245  -26.0737  -48.7910 H         1 UNK         0.0600 
    209 H209       -6.1851  -27.4056  -49.4469 H         1 UNK         0.0600 
    210 H210       -2.6582  -25.1261  -48.9568 H         1 UNK         0.3000 
    211 H211       -3.0876  -24.2339  -51.6831 H         1 UNK         0.0600 
    212 H212       -0.7106  -23.9141  -49.7695 H         1 UNK         0.0600 
    213 H213       -0.6898  -23.5237  -51.4850 H         1 UNK         0.0600 
    214 H214       -0.9134  -25.1892  -50.9686 H         1 UNK         0.0600 
    215 H215       -2.9391  -22.7455  -48.4801 H         1 UNK         0.3000 
    216 H216       -2.7760  -20.0111  -49.2139 H         1 UNK         0.0600 
    217 H217       -3.5481  -19.6515  -46.8424 H         1 UNK         0.0600 
    218 H218       -2.2633  -20.8346  -46.9336 H         1 UNK         0.0600 
    219 H219       -3.9281  -21.3654  -46.7117 H         1 UNK         0.0600 
    220 H220       -5.4081  -22.1081  -49.7547 H         1 UNK         0.3000 
    221 H221       -7.6070  -20.2715  -49.4304 H         1 UNK         0.0600 
    222 H222       -7.3478  -22.8027  -51.1411 H         1 UNK         0.0600 
    223 H223       -7.8940  -22.7542  -49.4649 H         1 UNK         0.0600 
    224 H224       -8.8498  -21.9876  -50.7248 H         1 UNK         0.0600 
    225 H225       -5.1497  -20.7089  -51.9031 H         1 UNK         0.3000 
    226 H226       -6.6101  -19.0486  -53.8957 H         1 UNK         0.0600 
    227 H227       -4.6596  -19.6265  -55.3487 H         1 UNK         0.0600 
    228 H228       -3.9498  -20.5669  -54.0425 H         1 UNK         0.0600 
    229 H229       -5.4744  -21.0704  -54.7651 H         1 UNK         0.0600 
    230 H230       -6.0916  -16.9157  -54.1488 H         1 UNK         0.3000 
    231 H231       -4.4707  -15.5286  -52.2580 H         1 UNK         0.0600 
    232 H232       -5.6294  -14.5945  -54.9356 H         1 UNK         0.0600 
    233 H233       -4.9765  -13.5472  -53.6806 H         1 UNK         0.0600 
    234 H234       -6.4241  -14.4889  -53.3636 H         1 UNK         0.0600 
    235 H235       -3.7916  -16.8015  -55.4799 H         1 UNK         0.3000 
    236 H236       -1.2053  -15.4830  -55.7888 H         1 UNK         0.0600 
    237 H237       -2.6647  -15.9473  -57.7444 H         1 UNK         0.0600 
    238 H238       -1.1359  -16.7962  -57.8939 H         1 UNK         0.0600 
    239 H239       -2.5836  -17.6792  -57.4204 H         1 UNK         0.0600 
    240 H240       -0.9677  -16.5361  -53.4188 H         1 UNK         0.3000 
    241 H241        0.1829  -17.8200  -52.0365 H         1 UNK         0.0600 
    242 H242       -2.1931  -19.0302  -52.6254 H         1 UNK         0.3800 
    243 H243       -1.9391  -20.7406  -52.5307 H         1 UNK         0.3800 
    244 H244        2.3745  -18.9462  -52.9918 H         1 UNK         0.0800 
    245 H245        1.9466  -18.1952  -54.4918 H         1 UNK         0.0800 
    246 H246        4.1921  -17.7200  -51.5185 H         1 UNK         0.0800 
    247 H247        3.7626  -16.1994  -50.7776 H         1 UNK         0.0800 
@<TRIPOS>BOND
     1    1    2 1    
     2    1  127 1    
     3    1  128 1    
     4    1  129 1    
     5    2    3 2    
     6    2    4 am   BACKBONE|DICT|INTERRES
     7    4    5 1    
     8    4  130 1    
     9    5    6 1    
    10    5   65 1    
    11    5  131 1    
    12    6    7 1    
    13    6  132 1    
    14    6  133 1    
    15    7    8 1    
    16    8    9 1    
    17    8  134 1    
    18    8  135 1    
    19    9   10 ar   
    20    9   14 ar   
    21   10   11 ar   
    22   10  136 1    
    23   11   12 ar   
    24   11  126 1    
    25   12   13 ar   
    26   12  137 1    
    27   13   14 ar   
    28   13   15 1    
    29   14  138 1    
    30   15   16 1    
    31   15  139 1    
    32   15  140 1    
    33   16   17 1    
    34   17   18 1    
    35   17  141 1    
    36   17  142 1    
    37   18   19 1    
    38   18   67 1    
    39   18  143 1    
    40   19   20 am   BACKBONE|DICT|INTERRES
    41   19  144 1    
    42   20   21 2    
    43   20   22 1    
    44   22   23 1    
    45   22   24 1    
    46   22  145 1    
    47   23  146 1    
    48   23  147 1    
    49   23  148 1    
    50   24   25 am   BACKBONE|DICT|INTERRES
    51   24  149 1    
    52   25   26 2    
    53   25   27 1    
    54   27   28 1    
    55   27   29 1    
    56   27  150 1    
    57   28  151 1    
    58   28  152 1    
    59   28  153 1    
    60   29   30 am   BACKBONE|DICT|INTERRES
    61   29  154 1    
    62   30   31 2    
    63   30   32 1    
    64   32   33 1    
    65   32   34 1    
    66   32  155 1    
    67   33  156 1    
    68   33  157 1    
    69   33  158 1    
    70   34   35 am   BACKBONE|DICT|INTERRES
    71   34  159 1    
    72   35   36 2    
    73   35   37 1    
    74   37   38 1    
    75   37   39 1    
    76   37  160 1    
    77   38  161 1    
    78   38  162 1    
    79   38  163 1    
    80   39   40 am   BACKBONE|DICT|INTERRES
    81   39  164 1    
    82   40   41 2    
    83   40   42 1    
    84   42   43 1    
    85   42   44 1    
    86   42  165 1    
    87   43  166 1    
    88   43  167 1    
    89   43  168 1    
    90   44   45 am   BACKBONE|DICT|INTERRES
    91   44  169 1    
    92   45   46 2    
    93   45   47 1    
    94   47   48 1    
    95   47   49 1    
    96   47  170 1    
    97   48  171 1    
    98   48  172 1    
    99   48  173 1    
   100   49   50 am   BACKBONE|DICT|INTERRES
   101   49  174 1    
   102   50   51 2    
   103   50   52 1    
   104   52   53 1    
   105   52   54 1    
   106   52  175 1    
   107   53  176 1    
   108   53  177 1    
   109   53  178 1    
   110   54   55 am   BACKBONE|DICT|INTERRES
   111   54  179 1    
   112   55   56 2    
   113   55   57 1    
   114   57   58 1    
   115   57   59 1    
   116   57  180 1    
   117   58  181 1    
   118   58  182 1    
   119   58  183 1    
   120   59   60 am   BACKBONE|DICT|INTERRES
   121   59  184 1    
   122   60   61 2    
   123   60   62 1    
   124   62   63 1    
   125   62   64 1    
   126   62  185 1    
   127   63  186 1    
   128   63  187 1    
   129   63  188 1    
   130   64   65 am   BACKBONE|DICT|INTERRES
   131   64  189 1    
   132   65   66 2    
   133   67   68 2    
   134   67   69 am   BACKBONE|DICT|INTERRES
   135   69   70 1    
   136   69  190 1    
   137   70   71 1    
   138   70   72 1    
   139   70  191 1    
   140   71  192 1    
   141   71  193 1    
   142   71  194 1    
   143   72   73 2    
   144   72   74 am   BACKBONE|DICT|INTERRES
   145   74   75 1    
   146   74  195 1    
   147   75   76 1    
   148   75   77 1    
   149   75  196 1    
   150   76  197 1    
   151   76  198 1    
   152   76  199 1    
   153   77   78 2    
   154   77   79 am   BACKBONE|DICT|INTERRES
   155   79   80 1    
   156   79  200 1    
   157   80   81 1    
   158   80   82 1    
   159   80  201 1    
   160   81  202 1    
   161   81  203 1    
   162   81  204 1    
   163   82   83 2    
   164   82   84 am   BACKBONE|DICT|INTERRES
   165   84   85 1    
   166   84  205 1    
   167   85   86 1    
   168   85   87 1    
   169   85  206 1    
   170   86  207 1    
   171   86  208 1    
   172   86  209 1    
   173   87   88 2    
   174   87   89 am   BACKBONE|DICT|INTERRES
   175   89   90 1    
   176   89  210 1    
   177   90   91 1    
   178   90   92 1    
   179   90  211 1    
   180   91  212 1    
   181   91  213 1    
   182   91  214 1    
   183   92   93 2    
   184   92   94 am   BACKBONE|DICT|INTERRES
   185   94   95 1    
   186   94  215 1    
   187   95   96 1    
   188   95   97 1    
   189   95  216 1    
   190   96  217 1    
   191   96  218 1    
   192   96  219 1    
   193   97   98 2    
   194   97   99 am   BACKBONE|DICT|INTERRES
   195   99  100 1    
   196   99  220 1    
   197  100  101 1    
   198  100  102 1    
   199  100  221 1    
   200  101  222 1    
   201  101  223 1    
   202  101  224 1    
   203  102  103 2    
   204  102  104 am   BACKBONE|DICT|INTERRES
   205  104  105 1    
   206  104  225 1    
   207  105  106 1    
   208  105  107 1    
   209  105  226 1    
   210  106  227 1    
   211  106  228 1    
   212  106  229 1    
   213  107  108 2    
   214  107  109 am   BACKBONE|DICT|INTERRES
   215  109  110 1    
   216  109  230 1    
   217  110  111 1    
   218  110  112 1    
   219  110  231 1    
   220  111  232 1    
   221  111  233 1    
   222  111  234 1    
   223  112  113 2    
   224  112  114 am   BACKBONE|DICT|INTERRES
   225  114  115 1    
   226  114  235 1    
   227  115  116 1    
   228  115  117 1    
   229  115  236 1    
   230  116  237 1    
   231  116  238 1    
   232  116  239 1    
   233  117  118 2    
   234  117  119 am   BACKBONE|DICT|INTERRES
   235  119  120 1    
   236  119  240 1    
   237  120  121 1    
   238  120  124 1    
   239  120  241 1    
   240  121  122 am   BACKBONE|DICT|INTERRES
   241  121  123 2    
   242  122  242 1    
   243  122  243 1    
   244  124  125 1    
   245  124  244 1    
   246  124  245 1    
   247  125  126 1    
   248  126  246 1    
   249  126  247 1    
@<TRIPOS>SUBSTRUCTURE
     1 UNK         1 GROUP             0       ****    0 ROOT    
