@<TRIPOS>MOLECULE
3R540
247   249    1
SMALL
USER_CHARGES


@<TRIPOS>ATOM
      1 CA          0.4664  -11.2450  -49.7933 C.3       0 UNK        -0.1800 
      2 C           0.7842  -12.1426  -48.6062 C.2       0 UNK         0.5000 
      3 O           0.8024  -11.6717  -47.4699 O.2       0 UNK        -0.5000 
      4 N           1.0357  -13.4323  -48.8644 N.am      1 UNK        -0.5000 
      5 CA          1.3488  -14.4442  -47.8459 C.3       1 UNK         0.1400 
      6 C6          1.9788  -15.7119  -48.4700 C.3       23 UNK        -0.0398 
      7 S7          3.5596  -15.3593  -49.3122 S.3       23 UNK        -0.2404 
      8 C8          4.2783  -17.0285  -49.4665 C.3       23 UNK        -0.0205 
      9 C9          3.3284  -17.9985  -50.1542 C.ar      23 UNK        -0.0193 
     10 C10         2.9511  -17.7952  -51.4851 C.ar      23 UNK        -0.1150 
     11 C11         2.0200  -18.6342  -52.1049 C.ar      23 UNK        -0.0193 
     12 C12         1.4747  -19.6924  -51.3675 C.ar      23 UNK        -0.1150 
     13 C13         1.8776  -19.9371  -50.0533 C.ar      23 UNK        -0.0193 
     14 C14         2.8034  -19.0839  -49.4493 C.ar      23 UNK        -0.1150 
     15 C15         1.2737  -21.0916  -49.2714 C.3       23 UNK        -0.0205 
     16 S16         1.5077  -22.6994  -50.0884 S.3       23 UNK        -0.2404 
     17 C17         0.4301  -23.7446  -49.0523 C.3       23 UNK        -0.0398 
     18 CA          1.2053  -24.5788  -48.0022 C.3       11 UNK         0.1400 
     19 N           1.9357  -23.7243  -47.0593 N.am      11 UNK        -0.5000 
     20 C           3.1198  -24.0284  -46.5089 C.2       10 UNK         0.5000 
     21 O           3.7488  -25.0548  -46.7674 O.2       10 UNK        -0.5000 
     22 CA          3.6915  -23.0348  -45.4747 C.3       10 UNK         0.1400 
     23 CB          4.7012  -22.0938  -46.1490 C.3       10 UNK        -0.1800 
     24 N           2.6709  -22.2294  -44.7978 N.am      10 UNK        -0.5000 
     25 C           1.6775  -22.7173  -44.0374 C.2       9 UNK         0.5000 
     26 O           1.5569  -23.9122  -43.7686 O.2       9 UNK        -0.5000 
     27 CA          0.5979  -21.7302  -43.5469 C.3       9 UNK         0.1400 
     28 CB          0.8200  -21.3873  -42.0672 C.3       9 UNK        -0.1800 
     29 N           0.5208  -20.4917  -44.3275 N.am      9 UNK        -0.5000 
     30 C           0.2499  -20.4242  -45.6407 C.2       8 UNK         0.5000 
     31 O          -0.0029  -21.4152  -46.3285 O.2       8 UNK        -0.5000 
     32 CA          0.3338  -19.0398  -46.3183 C.3       8 UNK         0.1400 
     33 CB         -1.0681  -18.4530  -46.5284 C.3       8 UNK        -0.1800 
     34 N           1.1710  -18.0712  -45.6062 N.am      8 UNK        -0.5000 
     35 C           2.4760  -18.2267  -45.3340 C.2       7 UNK         0.5000 
     36 O           3.1396  -19.1878  -45.7226 O.2       7 UNK        -0.5000 
     37 CA          3.1353  -17.1675  -44.4293 C.3       7 UNK         0.1400 
     38 CB          3.9447  -16.1535  -45.2499 C.3       7 UNK        -0.1800 
     39 N           2.1878  -16.4495  -43.5721 N.am      7 UNK        -0.5000 
     40 C           1.4677  -17.0067  -42.5880 C.2       6 UNK         0.5000 
     41 O           1.4862  -18.2140  -42.3454 O.2       6 UNK        -0.5000 
     42 CA          0.5530  -16.0745  -41.7651 C.3       6 UNK         0.1400 
     43 CB          0.3699  -16.5595  -40.3124 C.3       6 UNK        -0.1800 
     44 N           0.9432  -14.6600  -41.7910 N.am      6 UNK        -0.5000 
     45 C           2.0856  -14.1092  -41.3469 C.2       5 UNK         0.5000 
     46 O           3.0234  -14.7533  -40.8760 O.2       5 UNK        -0.5000 
     47 CA          2.2087  -12.5737  -41.4523 C.3       5 UNK         0.1400 
     48 CB          2.9893  -12.1921  -42.7201 C.3       5 UNK        -0.1800 
     49 N           0.9160  -11.8853  -41.4712 N.am      5 UNK        -0.5000 
     50 C           0.0479  -11.8428  -40.4500 C.2       4 UNK         0.5000 
     51 O           0.3008  -12.2724  -39.3239 O.2       4 UNK        -0.5000 
     52 CA         -1.3491  -11.2487  -40.7359 C.3       4 UNK         0.1400 
     53 CB         -1.4516   -9.8254  -40.1658 C.3       4 UNK        -0.1800 
     54 N          -1.7400  -11.2188  -42.1526 N.am      4 UNK        -0.5000 
     55 C          -1.8307  -12.2781  -42.9690 C.2       3 UNK         0.5000 
     56 O          -1.5413  -13.4279  -42.6263 O.2       3 UNK        -0.5000 
     57 CA         -2.2875  -12.0030  -44.4113 C.3       3 UNK         0.1400 
     58 CB         -1.5063  -10.8447  -45.0628 C.3       3 UNK        -0.1800 
     59 N          -2.1040  -13.2166  -45.1991 N.am      3 UNK        -0.5000 
     60 C          -2.8109  -13.5780  -46.2713 C.2       2 UNK         0.5000 
     61 O          -3.7248  -12.9044  -46.7507 O.2       2 UNK        -0.5000 
     62 CA         -2.3754  -14.8967  -46.9364 C.3       2 UNK         0.1400 
     63 CB         -3.3904  -15.4113  -47.9737 C.3       2 UNK        -0.1800 
     64 N          -1.0820  -14.7084  -47.5903 N.am      2 UNK        -0.5000 
     65 C           0.1147  -14.8187  -46.9968 C.2       1 UNK         0.5000 
     66 O           0.2656  -15.1905  -45.8305 O.2       1 UNK        -0.5000 
     67 C           0.2379  -25.5395  -47.2724 C.2       11 UNK         0.5000 
     68 O          -0.4251  -26.3328  -47.9417 O.2       11 UNK        -0.5000 
     69 N           0.1268  -25.4317  -45.9371 N.am      12 UNK        -0.5000 
     70 CA         -0.7557  -26.1576  -45.0101 C.3       12 UNK         0.1400 
     71 CB         -0.4957  -27.6753  -45.0496 C.3       12 UNK        -0.1800 
     72 C          -2.2558  -25.8412  -45.1797 C.2       12 UNK         0.5000 
     73 O          -2.9335  -25.5605  -44.1915 O.2       12 UNK        -0.5000 
     74 N          -2.7404  -25.8596  -46.4257 N.am      13 UNK        -0.5000 
     75 CA         -4.1212  -25.5774  -46.8238 C.3       13 UNK         0.1400 
     76 CB         -4.4267  -26.3822  -48.0990 C.3       13 UNK        -0.1800 
     77 C          -4.3973  -24.0757  -47.0479 C.2       13 UNK         0.5000 
     78 O          -5.4690  -23.7319  -47.5487 O.2       13 UNK        -0.5000 
     79 N          -3.4231  -23.2084  -46.7309 N.am      14 UNK        -0.5000 
     80 CA         -3.4498  -21.7509  -46.9098 C.3       14 UNK         0.1400 
     81 CB         -4.4925  -21.0984  -45.9787 C.3       14 UNK        -0.1800 
     82 C          -3.6144  -21.3367  -48.3867 C.2       14 UNK         0.5000 
     83 O          -4.3665  -20.4107  -48.6878 O.2       14 UNK        -0.5000 
     84 N          -2.9394  -22.0731  -49.2836 N.am      15 UNK        -0.5000 
     85 CA         -3.0312  -21.9797  -50.7475 C.3       15 UNK         0.1400 
     86 CB         -2.4687  -20.6346  -51.2525 C.3       15 UNK        -0.1800 
     87 C          -4.4614  -22.2694  -51.2553 C.2       15 UNK         0.5000 
     88 O          -4.9615  -21.5680  -52.1383 O.2       15 UNK        -0.5000 
     89 N          -5.0858  -23.2913  -50.6485 N.am      16 UNK        -0.5000 
     90 CA         -6.4808  -23.7178  -50.7939 C.3       16 UNK         0.1400 
     91 CB         -6.7550  -24.2824  -52.2016 C.3       16 UNK        -0.1800 
     92 C          -7.4630  -22.6100  -50.3687 C.2       16 UNK         0.5000 
     93 O          -8.3323  -22.2169  -51.1460 O.2       16 UNK        -0.5000 
     94 N          -7.2797  -22.1206  -49.1339 N.am      17 UNK        -0.5000 
     95 CA         -8.0398  -21.0466  -48.4849 C.3       17 UNK         0.1400 
     96 CB         -9.4785  -21.5110  -48.1766 C.3       17 UNK        -0.1800 
     97 C          -7.9836  -19.7196  -49.2719 C.2       17 UNK         0.5000 
     98 O          -9.0205  -19.1200  -49.5629 O.2       17 UNK        -0.5000 
     99 N          -6.7551  -19.2998  -49.6045 N.am      18 UNK        -0.5000 
    100 CA        -6.3905  -18.0840  -50.3365 C.3       18 UNK         0.1400 
    101 CB        -6.7674  -16.8215  -49.5335 C.3       18 UNK        -0.1800 
    102 C         -6.8978  -18.0502  -51.7946 C.2       18 UNK         0.5000 
    103 O         -7.0940  -16.9679  -52.3498 O.2       18 UNK        -0.5000 
    104 N         -7.0588  -19.2296  -52.4116 N.am      19 UNK        -0.5000 
    105 CA        -7.3951  -19.3881  -53.8308 C.3       19 UNK         0.1400 
    106 CB        -8.1027  -20.7354  -54.0321 C.3       19 UNK        -0.1800 
    107 C         -6.1628  -19.2803  -54.7538 C.2       19 UNK         0.5000 
    108 O         -6.3226  -19.3056  -55.9747 O.2       19 UNK        -0.5000 
    109 N         -4.9673  -19.1697  -54.1562 N.am      20 UNK        -0.5000 
    110 CA        -3.6482  -19.0906  -54.7871 C.3       20 UNK         0.1400 
    111 CB        -3.5334  -17.8769  -55.7334 C.3       20 UNK        -0.1800 
    112 C         -3.2148  -20.4193  -55.4363 C.2       20 UNK         0.5000 
    113 O         -2.4776  -20.4141  -56.4241 O.2       20 UNK        -0.5000 
    114 N         -3.6229  -21.5463  -54.8348 N.am      21 UNK        -0.5000 
    115 CA        -3.1221  -22.8861  -55.1504 C.3       21 UNK         0.1400 
    116 CB        -4.1988  -23.9239  -54.7950 C.3       21 UNK        -0.1800 
    117 C         -1.7919  -23.1269  -54.4063 C.2       21 UNK         0.5000 
    118 O         -1.7162  -23.9707  -53.5118 O.2       21 UNK        -0.5000 
    119 N         -0.7913  -22.3085  -54.7434 N.am      22 UNK        -0.5000 
    120 CA         0.5255  -22.2388  -54.1001 C.3       22 UNK         0.1400 
    121 C          1.3757  -23.5200  -54.3164 C.2       22 UNK         0.5000 
    122 N          2.0914  -23.9766  -53.2978 N.am      22 UNK        -0.7600 
    123 O          1.4264  -24.0762  -55.4114 O.2       22 UNK        -0.5000 
    124 C124        1.3039  -20.9808  -54.5679 C.3       23 UNK        -0.0398 
    125 S125        0.3721  -19.4269  -54.3062 S.3       23 UNK        -0.2404 
    126 C126        1.6354  -18.3386  -53.5568 C.3       23 UNK        -0.0205 
    127 H127       -0.5257  -10.8085  -49.6774 H         1 UNK         0.0600 
    128 H128        0.4891  -11.7940  -50.7350 H         1 UNK         0.0600 
    129 H129        1.1919  -10.4339  -49.8548 H         1 UNK         0.0600 
    130 H130        1.0446  -13.7547  -49.8218 H         1 UNK         0.3000 
    131 H131        2.0777  -14.0062  -47.1612 H         1 UNK         0.0600 
    132 H132        2.1650  -16.4675  -47.7075 H         1 UNK         0.0800 
    133 H133        1.2946  -16.1677  -49.1882 H         1 UNK         0.0800 
    134 H134        5.2049  -16.9664  -50.0385 H         1 UNK         0.0800 
    135 H135        4.5522  -17.3903  -48.4741 H         1 UNK         0.0800 
    136 H136        3.3659  -16.9594  -52.0315 H         1 UNK         0.1150 
    137 H137        0.7330  -20.3412  -51.8015 H         1 UNK         0.1150 
    138 H138        3.1000  -19.2511  -48.4233 H         1 UNK         0.1150 
    139 H139        1.7290  -21.1515  -48.2832 H         1 UNK         0.0800 
    140 H140        0.2106  -20.8972  -49.1257 H         1 UNK         0.0800 
    141 H141       -0.1149  -24.3997  -49.7348 H         1 UNK         0.0800 
    142 H142       -0.3219  -23.1246  -48.5636 H         1 UNK         0.0800 
    143 H143        1.9157  -25.2077  -48.5428 H         1 UNK         0.0600 
    144 H144        1.4702  -22.8678  -46.7817 H         1 UNK         0.3000 
    145 H145        4.2154  -23.6159  -44.7132 H         1 UNK         0.0600 
    146 H146        4.2286  -21.4867  -46.9225 H         1 UNK         0.0600 
    147 H147        5.1570  -21.4179  -45.4253 H         1 UNK         0.0600 
    148 H148        5.5073  -22.6572  -46.6207 H         1 UNK         0.0600 
    149 H149        2.6990  -21.2326  -44.9777 H         1 UNK         0.3000 
    150 H150       -0.3662  -22.2345  -43.6391 H         1 UNK         0.0600 
    151 H151        0.8081  -22.2872  -41.4509 H         1 UNK         0.0600 
    152 H152        0.0388  -20.7260  -41.6918 H         1 UNK         0.0600 
    153 H153        1.7806  -20.8952  -41.9100 H         1 UNK         0.0600 
    154 H154        0.7525  -19.6389  -43.8311 H         1 UNK         0.3000 
    155 H155        0.7811  -19.1856  -47.3003 H         1 UNK         0.0600 
    156 H156       -1.7190  -19.1576  -47.0457 H         1 UNK         0.0600 
    157 H157       -1.0243  -17.5589  -47.1472 H         1 UNK         0.0600 
    158 H158       -1.5446  -18.1919  -45.5829 H         1 UNK         0.0600 
    159 H159        0.7184  -17.2236  -45.2842 H         1 UNK         0.3000 
    160 H160        3.8306  -17.7016  -43.7783 H         1 UNK         0.0600 
    161 H161        4.5594  -15.5290  -44.6015 H         1 UNK         0.0600 
    162 H162        3.2985  -15.4943  -45.8258 H         1 UNK         0.0600 
    163 H163        4.6161  -16.6545  -45.9486 H         1 UNK         0.0600 
    164 H164        2.0771  -15.4606  -43.7406 H         1 UNK         0.3000 
    165 H165       -0.4235  -16.1198  -42.2492 H         1 UNK         0.0600 
    166 H166        1.3197  -16.6056  -39.7790 H         1 UNK         0.0600 
    167 H167       -0.2949  -15.8972  -39.7578 H         1 UNK         0.0600 
    168 H168       -0.0700  -17.5570  -40.2830 H         1 UNK         0.0600 
    169 H169        0.2193  -14.0385  -42.1408 H         1 UNK         0.3000 
    170 H170        2.7685  -12.2252  -40.5820 H         1 UNK         0.0600 
    171 H171        2.4630  -12.4979  -43.6254 H         1 UNK         0.0600 
    172 H172        3.1529  -11.1156  -42.7738 H         1 UNK         0.0600 
    173 H173        3.9703  -12.6692  -42.7340 H         1 UNK         0.0600 
    174 H174        0.6269  -11.4900  -42.3532 H         1 UNK         0.3000 
    175 H175       -2.0728  -11.8777  -40.2139 H         1 UNK         0.0600 
    176 H176       -0.7726   -9.1396  -40.6742 H         1 UNK         0.0600 
    177 H177       -2.4636   -9.4320  -40.2633 H         1 UNK         0.0600 
    178 H178       -1.2006   -9.8088  -39.1042 H         1 UNK         0.0600 
    179 H179       -1.9844  -10.3102  -42.5193 H         1 UNK         0.3000 
    180 H180       -3.3493  -11.7515  -44.3752 H         1 UNK         0.0600 
    181 H181       -0.4305  -11.0223  -45.0339 H         1 UNK         0.0600 
    182 H182       -1.7004   -9.8961  -44.5618 H         1 UNK         0.0600 
    183 H183       -1.7900  -10.7146  -46.1074 H         1 UNK         0.0600 
    184 H184       -1.3876  -13.8432  -44.8504 H         1 UNK         0.3000 
    185 H185       -2.2894  -15.6514  -46.1519 H         1 UNK         0.0600 
    186 H186       -3.0801  -16.3719  -48.3854 H         1 UNK         0.0600 
    187 H187       -4.3713  -15.5559  -47.5195 H         1 UNK         0.0600 
    188 H188       -3.5117  -14.7148  -48.8041 H         1 UNK         0.0600 
    189 H189       -1.1098  -14.3519  -48.5342 H         1 UNK         0.3000 
    190 H190        0.7300  -24.7596  -45.4765 H         1 UNK         0.3000 
    191 H191       -0.4780  -25.8104  -44.0136 H         1 UNK         0.0600 
    192 H192       -0.7720  -28.1159  -46.0077 H         1 UNK         0.0600 
    193 H193        0.5557  -27.8985  -44.8684 H         1 UNK         0.0600 
    194 H194       -1.0738  -28.1873  -44.2795 H         1 UNK         0.0600 
    195 H195       -2.0885  -26.1054  -47.1674 H         1 UNK         0.3000 
    196 H196       -4.7981  -25.9153  -46.0367 H         1 UNK         0.0600 
    197 H197       -4.2637  -27.4481  -47.9385 H         1 UNK         0.0600 
    198 H198       -3.7968  -26.0705  -48.9331 H         1 UNK         0.0600 
    199 H199       -5.4663  -26.2606  -48.4059 H         1 UNK         0.0600 
    200 H200       -2.5816  -23.5872  -46.3217 H         1 UNK         0.3000 
    201 H201       -2.4755  -21.3845  -46.6002 H         1 UNK         0.0600 
    202 H202       -4.4350  -20.0103  -46.0285 H         1 UNK         0.0600 
    203 H203       -4.3234  -21.3833  -44.9404 H         1 UNK         0.0600 
    204 H204       -5.5107  -21.3842  -46.2420 H         1 UNK         0.0600 
    205 H205       -2.3718  -22.8264  -48.9278 H         1 UNK         0.3000 
    206 H206       -2.3951  -22.7713  -51.1455 H         1 UNK         0.0600 
    207 H207       -1.4918  -20.4275  -50.8186 H         1 UNK         0.0600 
    208 H208       -3.1252  -19.7991  -51.0080 H         1 UNK         0.0600 
    209 H209       -2.3413  -20.6500  -52.3344 H         1 UNK         0.0600 
    210 H210       -4.5837  -23.7575  -49.9082 H         1 UNK         0.3000 
    211 H211       -6.6269  -24.5359  -50.0870 H         1 UNK         0.0600 
    212 H212       -6.0948  -25.1207  -52.4227 H         1 UNK         0.0600 
    213 H213       -7.7790  -24.6487  -52.2820 H         1 UNK         0.0600 
    214 H214       -6.6170  -23.5313  -52.9770 H         1 UNK         0.0600 
    215 H215       -6.5472  -22.5428  -48.5680 H         1 UNK         0.3000 
    216 H216       -7.5472  -20.8555  -47.5309 H         1 UNK         0.0600 
    217 H217      -10.0163  -20.7574  -47.6001 H         1 UNK         0.0600 
    218 H218      -10.0502  -21.6957  -49.0865 H         1 UNK         0.0600 
    219 H219       -9.4779  -22.4289  -47.5889 H         1 UNK         0.0600 
    220 H220       -5.9584  -19.8579  -49.2980 H         1 UNK         0.3000 
    221 H221       -5.3020  -18.1056  -50.4065 H         1 UNK         0.0600 
    222 H222       -7.8473  -16.6800  -49.4835 H         1 UNK         0.0600 
    223 H223       -6.3880  -16.8763  -48.5132 H         1 UNK         0.0600 
    224 H224       -6.3413  -15.9263  -49.9878 H         1 UNK         0.0600 
    225 H225       -6.8711  -20.0818  -51.8981 H         1 UNK         0.3000 
    226 H226       -8.0899  -18.5982  -54.1232 H         1 UNK         0.0600 
    227 H227       -8.9972  -20.8076  -53.4135 H         1 UNK         0.0600 
    228 H228       -8.4143  -20.8671  -55.0689 H         1 UNK         0.0600 
    229 H229       -7.4480  -21.5678  -53.7780 H         1 UNK         0.0600 
    230 H230       -4.9655  -19.2281  -53.1478 H         1 UNK         0.3000 
    231 H231       -2.9434  -18.9205  -53.9724 H         1 UNK         0.0600 
    232 H232       -2.4992  -17.7261  -56.0454 H         1 UNK         0.0600 
    233 H233       -3.8596  -16.9604  -55.2418 H         1 UNK         0.0600 
    234 H234       -4.1285  -18.0053  -56.6376 H         1 UNK         0.0600 
    235 H235       -4.2071  -21.4700  -54.0078 H         1 UNK         0.3000 
    236 H236       -2.9279  -22.9633  -56.2222 H         1 UNK         0.0600 
    237 H237       -5.1435  -23.7037  -55.2923 H         1 UNK         0.0600 
    238 H238       -3.8912  -24.9237  -55.1030 H         1 UNK         0.0600 
    239 H239       -4.3817  -23.9562  -53.7223 H         1 UNK         0.0600 
    240 H240       -0.9629  -21.6271  -55.4727 H         1 UNK         0.3000 
    241 H241        0.3390  -22.1488  -53.0294 H         1 UNK         0.0600 
    242 H242        2.6604  -24.7981  -53.4302 H         1 UNK         0.3800 
    243 H243        2.0613  -23.5367  -52.3892 H         1 UNK         0.3800 
    244 H244        2.2594  -20.9174  -54.0440 H         1 UNK         0.0800 
    245 H245        1.5449  -21.0539  -55.6299 H         1 UNK         0.0800 
    246 H246        1.2596  -17.3158  -53.6069 H         1 UNK         0.0800 
    247 H247        2.5329  -18.3651  -54.1765 H         1 UNK         0.0800 
@<TRIPOS>BOND
     1    1    2 1    
     2    1  127 1    
     3    1  128 1    
     4    1  129 1    
     5    2    3 2    
     6    2    4 am   BACKBONE|DICT|INTERRES
     7    4    5 1    
     8    4  130 1    
     9    5    6 1    
    10    5   65 1    
    11    5  131 1    
    12    6    7 1    
    13    6  132 1    
    14    6  133 1    
    15    7    8 1    
    16    8    9 1    
    17    8  134 1    
    18    8  135 1    
    19    9   10 ar   
    20    9   14 ar   
    21   10   11 ar   
    22   10  136 1    
    23   11   12 ar   
    24   11  126 1    
    25   12   13 ar   
    26   12  137 1    
    27   13   14 ar   
    28   13   15 1    
    29   14  138 1    
    30   15   16 1    
    31   15  139 1    
    32   15  140 1    
    33   16   17 1    
    34   17   18 1    
    35   17  141 1    
    36   17  142 1    
    37   18   19 1    
    38   18   67 1    
    39   18  143 1    
    40   19   20 am   BACKBONE|DICT|INTERRES
    41   19  144 1    
    42   20   21 2    
    43   20   22 1    
    44   22   23 1    
    45   22   24 1    
    46   22  145 1    
    47   23  146 1    
    48   23  147 1    
    49   23  148 1    
    50   24   25 am   BACKBONE|DICT|INTERRES
    51   24  149 1    
    52   25   26 2    
    53   25   27 1    
    54   27   28 1    
    55   27   29 1    
    56   27  150 1    
    57   28  151 1    
    58   28  152 1    
    59   28  153 1    
    60   29   30 am   BACKBONE|DICT|INTERRES
    61   29  154 1    
    62   30   31 2    
    63   30   32 1    
    64   32   33 1    
    65   32   34 1    
    66   32  155 1    
    67   33  156 1    
    68   33  157 1    
    69   33  158 1    
    70   34   35 am   BACKBONE|DICT|INTERRES
    71   34  159 1    
    72   35   36 2    
    73   35   37 1    
    74   37   38 1    
    75   37   39 1    
    76   37  160 1    
    77   38  161 1    
    78   38  162 1    
    79   38  163 1    
    80   39   40 am   BACKBONE|DICT|INTERRES
    81   39  164 1    
    82   40   41 2    
    83   40   42 1    
    84   42   43 1    
    85   42   44 1    
    86   42  165 1    
    87   43  166 1    
    88   43  167 1    
    89   43  168 1    
    90   44   45 am   BACKBONE|DICT|INTERRES
    91   44  169 1    
    92   45   46 2    
    93   45   47 1    
    94   47   48 1    
    95   47   49 1    
    96   47  170 1    
    97   48  171 1    
    98   48  172 1    
    99   48  173 1    
   100   49   50 am   BACKBONE|DICT|INTERRES
   101   49  174 1    
   102   50   51 2    
   103   50   52 1    
   104   52   53 1    
   105   52   54 1    
   106   52  175 1    
   107   53  176 1    
   108   53  177 1    
   109   53  178 1    
   110   54   55 am   BACKBONE|DICT|INTERRES
   111   54  179 1    
   112   55   56 2    
   113   55   57 1    
   114   57   58 1    
   115   57   59 1    
   116   57  180 1    
   117   58  181 1    
   118   58  182 1    
   119   58  183 1    
   120   59   60 am   BACKBONE|DICT|INTERRES
   121   59  184 1    
   122   60   61 2    
   123   60   62 1    
   124   62   63 1    
   125   62   64 1    
   126   62  185 1    
   127   63  186 1    
   128   63  187 1    
   129   63  188 1    
   130   64   65 am   BACKBONE|DICT|INTERRES
   131   64  189 1    
   132   65   66 2    
   133   67   68 2    
   134   67   69 am   BACKBONE|DICT|INTERRES
   135   69   70 1    
   136   69  190 1    
   137   70   71 1    
   138   70   72 1    
   139   70  191 1    
   140   71  192 1    
   141   71  193 1    
   142   71  194 1    
   143   72   73 2    
   144   72   74 am   BACKBONE|DICT|INTERRES
   145   74   75 1    
   146   74  195 1    
   147   75   76 1    
   148   75   77 1    
   149   75  196 1    
   150   76  197 1    
   151   76  198 1    
   152   76  199 1    
   153   77   78 2    
   154   77   79 am   BACKBONE|DICT|INTERRES
   155   79   80 1    
   156   79  200 1    
   157   80   81 1    
   158   80   82 1    
   159   80  201 1    
   160   81  202 1    
   161   81  203 1    
   162   81  204 1    
   163   82   83 2    
   164   82   84 am   BACKBONE|DICT|INTERRES
   165   84   85 1    
   166   84  205 1    
   167   85   86 1    
   168   85   87 1    
   169   85  206 1    
   170   86  207 1    
   171   86  208 1    
   172   86  209 1    
   173   87   88 2    
   174   87   89 am   BACKBONE|DICT|INTERRES
   175   89   90 1    
   176   89  210 1    
   177   90   91 1    
   178   90   92 1    
   179   90  211 1    
   180   91  212 1    
   181   91  213 1    
   182   91  214 1    
   183   92   93 2    
   184   92   94 am   BACKBONE|DICT|INTERRES
   185   94   95 1    
   186   94  215 1    
   187   95   96 1    
   188   95   97 1    
   189   95  216 1    
   190   96  217 1    
   191   96  218 1    
   192   96  219 1    
   193   97   98 2    
   194   97   99 am   BACKBONE|DICT|INTERRES
   195   99  100 1    
   196   99  220 1    
   197  100  101 1    
   198  100  102 1    
   199  100  221 1    
   200  101  222 1    
   201  101  223 1    
   202  101  224 1    
   203  102  103 2    
   204  102  104 am   BACKBONE|DICT|INTERRES
   205  104  105 1    
   206  104  225 1    
   207  105  106 1    
   208  105  107 1    
   209  105  226 1    
   210  106  227 1    
   211  106  228 1    
   212  106  229 1    
   213  107  108 2    
   214  107  109 am   BACKBONE|DICT|INTERRES
   215  109  110 1    
   216  109  230 1    
   217  110  111 1    
   218  110  112 1    
   219  110  231 1    
   220  111  232 1    
   221  111  233 1    
   222  111  234 1    
   223  112  113 2    
   224  112  114 am   BACKBONE|DICT|INTERRES
   225  114  115 1    
   226  114  235 1    
   227  115  116 1    
   228  115  117 1    
   229  115  236 1    
   230  116  237 1    
   231  116  238 1    
   232  116  239 1    
   233  117  118 2    
   234  117  119 am   BACKBONE|DICT|INTERRES
   235  119  120 1    
   236  119  240 1    
   237  120  121 1    
   238  120  124 1    
   239  120  241 1    
   240  121  122 am   BACKBONE|DICT|INTERRES
   241  121  123 2    
   242  122  242 1    
   243  122  243 1    
   244  124  125 1    
   245  124  244 1    
   246  124  245 1    
   247  125  126 1    
   248  126  246 1    
   249  126  247 1    
@<TRIPOS>SUBSTRUCTURE
     1 UNK         1 GROUP             0       ****    0 ROOT    
