@<TRIPOS>MOLECULE
3R540
247   249    1
SMALL
USER_CHARGES


@<TRIPOS>ATOM
      1 CA          2.4901  -11.2598  -50.6601 C.3       0 UNK        -0.1800 
      2 C           3.1156  -11.5693  -49.3077 C.2       0 UNK         0.5000 
      3 O           3.6050  -10.6626  -48.6343 O.2       0 UNK        -0.5000 
      4 N           3.0903  -12.8446  -48.9000 N.am      1 UNK        -0.5000 
      5 CA          3.6437  -13.3355  -47.6303 C.3       1 UNK         0.1400 
      6 C6          4.0593  -14.8257  -47.7242 C.3       23 UNK        -0.0398 
      7 S7          2.6719  -15.9898  -47.9668 S.3       23 UNK        -0.2404 
      8 C8          2.8878  -16.5011  -49.6964 C.3       23 UNK        -0.0205 
      9 C9          1.9647  -17.6649  -50.0145 C.ar      23 UNK        -0.0193 
     10 C10         0.6416  -17.4355  -50.4022 C.ar      23 UNK        -0.1150 
     11 C11        -0.2154  -18.5084  -50.6651 C.ar      23 UNK        -0.0193 
     12 C12         0.2571  -19.8167  -50.5249 C.ar      23 UNK        -0.1150 
     13 C13         1.5820  -20.0601  -50.1488 C.ar      23 UNK        -0.0193 
     14 C14         2.4322  -18.9766  -49.9043 C.ar      23 UNK        -0.1150 
     15 C15         2.0859  -21.4956  -50.0381 C.3       23 UNK        -0.0205 
     16 S16         3.1264  -21.8225  -48.5720 S.3       23 UNK        -0.2404 
     17 C17         2.0606  -21.2924  -47.1884 C.3       23 UNK        -0.0398 
     18 CA          1.2114  -22.4445  -46.5999 C.3       11 UNK         0.1400 
     19 N           0.8866  -22.2211  -45.1903 N.am      11 UNK        -0.5000 
     20 C           0.3323  -23.1316  -44.3780 C.2       10 UNK         0.5000 
     21 O           0.0954  -24.2930  -44.7106 O.2       10 UNK        -0.5000 
     22 CA         -0.0610  -22.6518  -42.9682 C.3       10 UNK         0.1400 
     23 CB          1.1468  -22.6902  -42.0204 C.3       10 UNK        -0.1800 
     24 N          -0.6486  -21.3098  -42.9677 N.am      10 UNK        -0.5000 
     25 C          -1.7983  -20.9912  -43.5807 C.2       9 UNK         0.5000 
     26 O          -2.5001  -21.8041  -44.1806 O.2       9 UNK        -0.5000 
     27 CA         -2.2177  -19.5118  -43.5620 C.3       9 UNK         0.1400 
     28 CB         -2.8558  -19.1445  -42.2142 C.3       9 UNK        -0.1800 
     29 N          -1.1079  -18.6043  -43.8508 N.am      9 UNK        -0.5000 
     30 C          -0.4219  -18.5771  -45.0032 C.2       8 UNK         0.5000 
     31 O          -0.6715  -19.2999  -45.9675 O.2       8 UNK        -0.5000 
     32 CA          0.7861  -17.6257  -45.0638 C.3       8 UNK         0.1400 
     33 CB          0.3330  -16.1702  -45.2508 C.3       8 UNK        -0.1800 
     34 N           1.6295  -17.7260  -43.8731 N.am      8 UNK        -0.5000 
     35 C           2.2586  -18.8396  -43.4724 C.2       7 UNK         0.5000 
     36 O           2.2351  -19.9029  -44.0908 O.2       7 UNK        -0.5000 
     37 CA          2.9907  -18.7682  -42.1235 C.3       7 UNK         0.1400 
     38 CB          4.3776  -18.1265  -42.2816 C.3       7 UNK        -0.1800 
     39 N           2.2107  -18.0331  -41.1285 N.am      7 UNK        -0.5000 
     40 C           1.0848  -18.4931  -40.5649 C.2       6 UNK         0.5000 
     41 O           0.6057  -19.6027  -40.8004 O.2       6 UNK        -0.5000 
     42 CA          0.3525  -17.5365  -39.6058 C.3       6 UNK         0.1400 
     43 CB          0.9819  -17.5840  -38.2056 C.3       6 UNK        -0.1800 
     44 N           0.3390  -16.1536  -40.0869 N.am      6 UNK        -0.5000 
     45 C          -0.3217  -15.7450  -41.1788 C.2       5 UNK         0.5000 
     46 O          -1.0044  -16.4889  -41.8813 O.2       5 UNK        -0.5000 
     47 CA         -0.1657  -14.2668  -41.5788 C.3       5 UNK         0.1400 
     48 CB         -1.1841  -13.3983  -40.8256 C.3       5 UNK        -0.1800 
     49 N           1.1780  -13.7125  -41.3862 N.am      5 UNK        -0.5000 
     50 C           2.3133  -14.2170  -41.8885 C.2       4 UNK         0.5000 
     51 O           2.3798  -15.2970  -42.4768 O.2       4 UNK        -0.5000 
     52 CA          3.5568  -13.3230  -41.7575 C.3       4 UNK         0.1400 
     53 CB          4.8551  -14.0514  -42.1484 C.3       4 UNK        -0.1800 
     54 N           3.3634  -12.1873  -42.6513 N.am      4 UNK        -0.5000 
     55 C           3.0211  -10.9464  -42.2805 C.2       3 UNK         0.5000 
     56 O           2.9778  -10.5705  -41.1087 O.2       3 UNK        -0.5000 
     57 CA          2.6068   -9.9742  -43.4071 C.3       3 UNK         0.1400 
     58 CB          3.8214   -9.1784  -43.9078 C.3       3 UNK        -0.1800 
     59 N           1.9799  -10.6559  -44.5429 N.am      3 UNK        -0.5000 
     60 C           0.8304  -11.3435  -44.4826 C.2       2 UNK         0.5000 
     61 O           0.0821  -11.3236  -43.5055 O.2       2 UNK        -0.5000 
     62 CA          0.4577  -12.2302  -45.6898 C.3       2 UNK         0.1400 
     63 CB         -0.7395  -11.6342  -46.4460 C.3       2 UNK        -0.1800 
     64 N           1.5324  -12.4955  -46.6540 N.am      2 UNK        -0.5000 
     65 C           2.7271  -13.0591  -46.4138 C.2       1 UNK         0.5000 
     66 O           3.1233  -13.3510  -45.2859 O.2       1 UNK        -0.5000 
     67 C          -0.0596  -22.6945  -47.4355 C.2       11 UNK         0.5000 
     68 O          -0.1101  -23.6692  -48.1839 O.2       11 UNK        -0.5000 
     69 N          -1.0756  -21.8363  -47.2652 N.am      12 UNK        -0.5000 
     70 CA         -2.3688  -21.9366  -47.9410 C.3       12 UNK         0.1400 
     71 CB         -3.2152  -20.6981  -47.6136 C.3       12 UNK        -0.1800 
     72 C          -3.1279  -23.2336  -47.6039 C.2       12 UNK         0.5000 
     73 O          -3.6794  -23.8693  -48.5040 O.2       12 UNK        -0.5000 
     74 N          -3.0974  -23.6286  -46.3230 N.am      13 UNK        -0.5000 
     75 CA         -3.6826  -24.8679  -45.8079 C.3       13 UNK         0.1400 
     76 CB         -3.5803  -24.8831  -44.2756 C.3       13 UNK        -0.1800 
     77 C          -3.0597  -26.1461  -46.4014 C.2       13 UNK         0.5000 
     78 O          -3.7482  -27.1632  -46.4907 O.2       13 UNK        -0.5000 
     79 N          -1.7982  -26.0739  -46.8480 N.am      14 UNK        -0.5000 
     80 CA         -1.0788  -27.1450  -47.5405 C.3       14 UNK         0.1400 
     81 CB          0.4317  -26.9753  -47.2955 C.3       14 UNK        -0.1800 
     82 C          -1.4444  -27.2184  -49.0418 C.2       14 UNK         0.5000 
     83 O          -0.5571  -27.3301  -49.8894 O.2       14 UNK        -0.5000 
     84 N          -2.7531  -27.1714  -49.3341 N.am      15 UNK        -0.5000 
     85 CA         -3.3918  -27.2754  -50.6499 C.3       15 UNK         0.1400 
     86 CB         -3.2344  -28.7048  -51.2100 C.3       15 UNK        -0.1800 
     87 C          -2.9439  -26.1830  -51.6449 C.2       15 UNK         0.5000 
     88 O          -2.6734  -26.4819  -52.8099 O.2       15 UNK        -0.5000 
     89 N          -2.8864  -24.9322  -51.1729 N.am      16 UNK        -0.5000 
     90 CA         -2.5045  -23.7610  -51.9634 C.3       16 UNK         0.1400 
     91 CB         -1.0008  -23.4847  -51.7862 C.3       16 UNK        -0.1800 
     92 C          -3.3874  -22.5578  -51.5930 C.2       16 UNK         0.5000 
     93 O          -2.8968  -21.4350  -51.4893 O.2       16 UNK        -0.5000 
     94 N          -4.6758  -22.8257  -51.3538 N.am      17 UNK        -0.5000 
     95 CA         -5.6708  -21.8543  -50.9070 C.3       17 UNK         0.1400 
     96 CB         -6.9103  -22.6296  -50.4291 C.3       17 UNK        -0.1800 
     97 C          -6.0477  -20.8197  -51.9852 C.2       17 UNK         0.5000 
     98 O          -5.6580  -20.9448  -53.1516 O.2       17 UNK        -0.5000 
     99 N          -6.8480  -19.8256  -51.5785 N.am      18 UNK        -0.5000 
    100 CA        -7.5084  -18.8726  -52.4705 C.3       18 UNK         0.1400 
    101 CB        -8.2983  -17.8554  -51.6348 C.3       18 UNK        -0.1800 
    102 C         -8.4312  -19.5998  -53.4666 C.2       18 UNK         0.5000 
    103 O         -9.1519  -20.5171  -53.0688 O.2       18 UNK        -0.5000 
    104 N         -8.3363  -19.2171  -54.7448 N.am      19 UNK        -0.5000 
    105 CA        -8.9652  -19.8143  -55.9325 C.3       19 UNK         0.1400 
    106 CB       -10.5003  -19.8717  -55.8087 C.3       19 UNK        -0.1800 
    107 C         -8.3789  -21.1820  -56.3452 C.2       19 UNK         0.5000 
    108 O         -8.3802  -21.4905  -57.5375 O.2       19 UNK        -0.5000 
    109 N         -7.8630  -21.9636  -55.3863 N.am      20 UNK        -0.5000 
    110 CA        -7.1644  -23.2281  -55.6244 C.3       20 UNK         0.1400 
    111 CB        -7.0608  -24.0176  -54.3102 C.3       20 UNK        -0.1800 
    112 C         -5.7716  -23.0098  -56.2435 C.2       20 UNK         0.5000 
    113 O         -5.3952  -23.7388  -57.1622 O.2       20 UNK        -0.5000 
    114 N         -5.0496  -21.9980  -55.7464 N.am      21 UNK        -0.5000 
    115 CA        -3.7501  -21.5669  -56.2597 C.3       21 UNK         0.1400 
    116 CB        -2.6176  -22.2854  -55.5083 C.3       21 UNK        -0.1800 
    117 C         -3.5904  -20.0435  -56.1558 C.2       21 UNK         0.5000 
    118 O         -3.1095  -19.4216  -57.1034 O.2       21 UNK        -0.5000 
    119 N         -4.0090  -19.4664  -55.0229 N.am      22 UNK        -0.5000 
    120 CA        -3.8832  -18.0325  -54.7052 C.3       22 UNK         0.1400 
    121 C         -5.1191  -17.1827  -55.1275 C.2       22 UNK         0.5000 
    122 N         -5.9678  -17.6506  -56.0353 N.am      22 UNK        -0.7600 
    123 O         -5.3132  -16.0726  -54.6414 O.2       22 UNK        -0.5000 
    124 C124       -3.4731  -17.8226  -53.2225 C.3       23 UNK        -0.0398 
    125 S125       -1.7696  -18.4022  -52.9283 S.3       23 UNK        -0.2404 
    126 C126       -1.6443  -18.2558  -51.1204 C.3       23 UNK        -0.0205 
    127 H127        1.6740  -10.5470  -50.5419 H         1 UNK         0.0600 
    128 H128        2.0930  -12.1557  -51.1381 H         1 UNK         0.0600 
    129 H129        3.2338  -10.8210  -51.3252 H         1 UNK         0.0600 
    130 H130        2.6576  -13.5457  -49.4839 H         1 UNK         0.3000 
    131 H131        4.5602  -12.7744  -47.4350 H         1 UNK         0.0600 
    132 H132        4.7864  -14.9524  -48.5273 H         1 UNK         0.0800 
    133 H133        4.5842  -15.1225  -46.8144 H         1 UNK         0.0800 
    134 H134        2.6804  -15.6619  -50.3614 H         1 UNK         0.0800 
    135 H135        3.9259  -16.7892  -49.8694 H         1 UNK         0.0800 
    136 H136        0.2800  -16.4214  -50.4982 H         1 UNK         0.1150 
    137 H137       -0.4083  -20.6437  -50.7301 H         1 UNK         0.1150 
    138 H138        3.4578  -19.1538  -49.6128 H         1 UNK         0.1150 
    139 H139        1.2508  -22.1953  -50.0347 H         1 UNK         0.0800 
    140 H140        2.6669  -21.7247  -50.9320 H         1 UNK         0.0800 
    141 H141        1.4484  -20.4325  -47.4649 H         1 UNK         0.0800 
    142 H142        2.7464  -20.9203  -46.4273 H         1 UNK         0.0800 
    143 H143        1.8085  -23.3587  -46.6327 H         1 UNK         0.0600 
    144 H144        1.1016  -21.3014  -44.8153 H         1 UNK         0.3000 
    145 H145       -0.8140  -23.3427  -42.5835 H         1 UNK         0.0600 
    146 H146        0.8564  -22.4315  -41.0020 H         1 UNK         0.0600 
    147 H147        1.5875  -23.6874  -41.9896 H         1 UNK         0.0600 
    148 H148        1.9268  -21.9956  -42.3321 H         1 UNK         0.0600 
    149 H149       -0.1441  -20.5910  -42.4599 H         1 UNK         0.3000 
    150 H150       -2.9697  -19.3714  -44.3409 H         1 UNK         0.0600 
    151 H151       -3.6858  -19.8118  -41.9791 H         1 UNK         0.0600 
    152 H152       -3.2506  -18.1285  -42.2302 H         1 UNK         0.0600 
    153 H153       -2.1374  -19.2108  -41.3965 H         1 UNK         0.0600 
    154 H154       -0.8649  -17.9426  -43.1183 H         1 UNK         0.3000 
    155 H155        1.3949  -17.9106  -45.9242 H         1 UNK         0.0600 
    156 H156       -0.3326  -15.8452  -44.4521 H         1 UNK         0.0600 
    157 H157        1.1876  -15.4942  -45.2674 H         1 UNK         0.0600 
    158 H158       -0.1996  -16.0474  -46.1946 H         1 UNK         0.0600 
    159 H159        1.7461  -16.8811  -43.3193 H         1 UNK         0.3000 
    160 H160        3.1307  -19.7891  -41.7619 H         1 UNK         0.0600 
    161 H161        4.9063  -18.0877  -41.3292 H         1 UNK         0.0600 
    162 H162        4.3144  -17.1111  -42.6727 H         1 UNK         0.0600 
    163 H163        4.9936  -18.7030  -42.9727 H         1 UNK         0.0600 
    164 H164        2.4880  -17.0778  -40.9530 H         1 UNK         0.3000 
    165 H165       -0.6821  -17.8769  -39.5250 H         1 UNK         0.0600 
    166 H166        0.4198  -16.9722  -37.4999 H         1 UNK         0.0600 
    167 H167        0.9898  -18.6030  -37.8163 H         1 UNK         0.0600 
    168 H168        2.0127  -17.2274  -38.2132 H         1 UNK         0.0600 
    169 H169        0.8834  -15.4788  -39.5703 H         1 UNK         0.3000 
    170 H170       -0.3874  -14.1949  -42.6451 H         1 UNK         0.0600 
    171 H171       -2.1989  -13.7718  -40.9693 H         1 UNK         0.0600 
    172 H172       -0.9869  -13.3849  -39.7530 H         1 UNK         0.0600 
    173 H173       -1.1658  -12.3688  -41.1836 H         1 UNK         0.0600 
    174 H174        1.2201  -12.8047  -40.9453 H         1 UNK         0.3000 
    175 H175        3.6414  -13.0010  -40.7178 H         1 UNK         0.0600 
    176 H176        5.7190  -13.3949  -42.0452 H         1 UNK         0.0600 
    177 H177        4.8266  -14.4047  -43.1803 H         1 UNK         0.0600 
    178 H178        5.0247  -14.9169  -41.5071 H         1 UNK         0.0600 
    179 H179        3.3117  -12.4324  -43.6376 H         1 UNK         0.3000 
    180 H180        1.8812   -9.2722  -42.9912 H         1 UNK         0.0600 
    181 H181        4.5729   -9.8303  -44.3551 H         1 UNK         0.0600 
    182 H182        4.2993   -8.6393  -43.0887 H         1 UNK         0.0600 
    183 H183        3.5290   -8.4402  -44.6548 H         1 UNK         0.0600 
    184 H184        2.5257  -10.7227  -45.3894 H         1 UNK         0.3000 
    185 H185        0.1521  -13.1941  -45.2797 H         1 UNK         0.0600 
    186 H186       -1.5800  -11.4548  -45.7741 H         1 UNK         0.0600 
    187 H187       -0.4839  -10.6826  -46.9137 H         1 UNK         0.0600 
    188 H188       -1.0904  -12.3099  -47.2262 H         1 UNK         0.0600 
    189 H189        1.3200  -12.2788  -47.6164 H         1 UNK         0.3000 
    190 H190       -0.9469  -21.0332  -46.6537 H         1 UNK         0.3000 
    191 H191       -2.1699  -21.9390  -49.0121 H         1 UNK         0.0600 
    192 H192       -2.7323  -19.7886  -47.9717 H         1 UNK         0.0600 
    193 H193       -4.1962  -20.7535  -48.0838 H         1 UNK         0.0600 
    194 H194       -3.3736  -20.5923  -46.5403 H         1 UNK         0.0600 
    195 H195       -2.6651  -23.0167  -45.6350 H         1 UNK         0.3000 
    196 H196       -4.7404  -24.8677  -46.0781 H         1 UNK         0.0600 
    197 H197       -4.0184  -25.7922  -43.8616 H         1 UNK         0.0600 
    198 H198       -4.1120  -24.0388  -43.8365 H         1 UNK         0.0600 
    199 H199       -2.5431  -24.8362  -43.9426 H         1 UNK         0.0600 
    200 H200       -1.3138  -25.1879  -46.7791 H         1 UNK         0.3000 
    201 H201       -1.3702  -28.1006  -47.0999 H         1 UNK         0.0600 
    202 H202        0.6552  -26.9203  -46.2298 H         1 UNK         0.0600 
    203 H203        0.8196  -26.0714  -47.7645 H         1 UNK         0.0600 
    204 H204        0.9904  -27.8195  -47.7010 H         1 UNK         0.0600 
    205 H205       -3.3864  -27.0838  -48.5476 H         1 UNK         0.3000 
    206 H206       -4.4566  -27.1075  -50.4822 H         1 UNK         0.0600 
    207 H207       -3.5944  -29.4486  -50.4992 H         1 UNK         0.0600 
    208 H208       -3.8092  -28.8315  -52.1282 H         1 UNK         0.0600 
    209 H209       -2.1942  -28.9370  -51.4404 H         1 UNK         0.0600 
    210 H210       -3.1366  -24.7468  -50.2041 H         1 UNK         0.3000 
    211 H211       -2.6937  -23.9538  -53.0206 H         1 UNK         0.0600 
    212 H212       -0.7641  -23.2572  -50.7477 H         1 UNK         0.0600 
    213 H213       -0.6793  -22.6386  -52.3947 H         1 UNK         0.0600 
    214 H214       -0.4029  -24.3460  -52.0841 H         1 UNK         0.0600 
    215 H215       -4.9934  -23.7764  -51.4634 H         1 UNK         0.3000 
    216 H216       -5.2525  -21.3097  -50.0601 H         1 UNK         0.0600 
    217 H217       -7.6619  -21.9625  -50.0057 H         1 UNK         0.0600 
    218 H218       -6.6480  -23.3478  -49.6515 H         1 UNK         0.0600 
    219 H219       -7.3830  -23.1767  -51.2456 H         1 UNK         0.0600 
    220 H220       -7.1462  -19.8062  -50.6146 H         1 UNK         0.3000 
    221 H221       -6.7331  -18.3391  -53.0208 H         1 UNK         0.0600 
    222 H222       -7.6445  -17.3132  -50.9513 H         1 UNK         0.0600 
    223 H223       -8.7815  -17.1168  -52.2757 H         1 UNK         0.0600 
    224 H224       -9.0779  -18.3381  -51.0439 H         1 UNK         0.0600 
    225 H225       -7.6729  -18.4829  -54.9571 H         1 UNK         0.3000 
    226 H226       -8.7364  -19.1293  -56.7505 H         1 UNK         0.0600 
    227 H227      -10.9118  -18.8993  -55.5382 H         1 UNK         0.0600 
    228 H228      -10.9528  -20.1636  -56.7571 H         1 UNK         0.0600 
    229 H229      -10.8260  -20.5958  -55.0618 H         1 UNK         0.0600 
    230 H230       -7.9358  -21.6483  -54.4272 H         1 UNK         0.3000 
    231 H231       -7.7563  -23.8188  -56.3268 H         1 UNK         0.0600 
    232 H232       -6.4556  -23.4944  -53.5714 H         1 UNK         0.0600 
    233 H233       -6.5995  -24.9916  -54.4779 H         1 UNK         0.0600 
    234 H234       -8.0448  -24.1933  -53.8754 H         1 UNK         0.0600 
    235 H235       -5.4230  -21.4839  -54.9535 H         1 UNK         0.3000 
    236 H236       -3.6785  -21.8231  -57.3191 H         1 UNK         0.0600 
    237 H237       -2.7221  -23.3687  -55.5706 H         1 UNK         0.0600 
    238 H238       -1.6460  -22.0261  -55.9302 H         1 UNK         0.0600 
    239 H239       -2.5998  -22.0049  -54.4553 H         1 UNK         0.0600 
    240 H240       -4.4115  -20.0415  -54.2894 H         1 UNK         0.3000 
    241 H241       -3.0738  -17.6169  -55.3083 H         1 UNK         0.0600 
    242 H242       -5.7567  -18.5061  -56.5242 H         1 UNK         0.3800 
    243 H243       -6.7016  -17.0441  -56.3678 H         1 UNK         0.3800 
    244 H244       -3.5057  -16.7676  -52.9457 H         1 UNK         0.0800 
    245 H245       -4.1581  -18.3437  -52.5523 H         1 UNK         0.0800 
    246 H246       -2.3194  -18.9691  -50.6456 H         1 UNK         0.0800 
    247 H247       -1.9714  -17.2624  -50.8100 H         1 UNK         0.0800 
@<TRIPOS>BOND
     1    1    2 1    
     2    1  127 1    
     3    1  128 1    
     4    1  129 1    
     5    2    3 2    
     6    2    4 am   BACKBONE|DICT|INTERRES
     7    4    5 1    
     8    4  130 1    
     9    5    6 1    
    10    5   65 1    
    11    5  131 1    
    12    6    7 1    
    13    6  132 1    
    14    6  133 1    
    15    7    8 1    
    16    8    9 1    
    17    8  134 1    
    18    8  135 1    
    19    9   10 ar   
    20    9   14 ar   
    21   10   11 ar   
    22   10  136 1    
    23   11   12 ar   
    24   11  126 1    
    25   12   13 ar   
    26   12  137 1    
    27   13   14 ar   
    28   13   15 1    
    29   14  138 1    
    30   15   16 1    
    31   15  139 1    
    32   15  140 1    
    33   16   17 1    
    34   17   18 1    
    35   17  141 1    
    36   17  142 1    
    37   18   19 1    
    38   18   67 1    
    39   18  143 1    
    40   19   20 am   BACKBONE|DICT|INTERRES
    41   19  144 1    
    42   20   21 2    
    43   20   22 1    
    44   22   23 1    
    45   22   24 1    
    46   22  145 1    
    47   23  146 1    
    48   23  147 1    
    49   23  148 1    
    50   24   25 am   BACKBONE|DICT|INTERRES
    51   24  149 1    
    52   25   26 2    
    53   25   27 1    
    54   27   28 1    
    55   27   29 1    
    56   27  150 1    
    57   28  151 1    
    58   28  152 1    
    59   28  153 1    
    60   29   30 am   BACKBONE|DICT|INTERRES
    61   29  154 1    
    62   30   31 2    
    63   30   32 1    
    64   32   33 1    
    65   32   34 1    
    66   32  155 1    
    67   33  156 1    
    68   33  157 1    
    69   33  158 1    
    70   34   35 am   BACKBONE|DICT|INTERRES
    71   34  159 1    
    72   35   36 2    
    73   35   37 1    
    74   37   38 1    
    75   37   39 1    
    76   37  160 1    
    77   38  161 1    
    78   38  162 1    
    79   38  163 1    
    80   39   40 am   BACKBONE|DICT|INTERRES
    81   39  164 1    
    82   40   41 2    
    83   40   42 1    
    84   42   43 1    
    85   42   44 1    
    86   42  165 1    
    87   43  166 1    
    88   43  167 1    
    89   43  168 1    
    90   44   45 am   BACKBONE|DICT|INTERRES
    91   44  169 1    
    92   45   46 2    
    93   45   47 1    
    94   47   48 1    
    95   47   49 1    
    96   47  170 1    
    97   48  171 1    
    98   48  172 1    
    99   48  173 1    
   100   49   50 am   BACKBONE|DICT|INTERRES
   101   49  174 1    
   102   50   51 2    
   103   50   52 1    
   104   52   53 1    
   105   52   54 1    
   106   52  175 1    
   107   53  176 1    
   108   53  177 1    
   109   53  178 1    
   110   54   55 am   BACKBONE|DICT|INTERRES
   111   54  179 1    
   112   55   56 2    
   113   55   57 1    
   114   57   58 1    
   115   57   59 1    
   116   57  180 1    
   117   58  181 1    
   118   58  182 1    
   119   58  183 1    
   120   59   60 am   BACKBONE|DICT|INTERRES
   121   59  184 1    
   122   60   61 2    
   123   60   62 1    
   124   62   63 1    
   125   62   64 1    
   126   62  185 1    
   127   63  186 1    
   128   63  187 1    
   129   63  188 1    
   130   64   65 am   BACKBONE|DICT|INTERRES
   131   64  189 1    
   132   65   66 2    
   133   67   68 2    
   134   67   69 am   BACKBONE|DICT|INTERRES
   135   69   70 1    
   136   69  190 1    
   137   70   71 1    
   138   70   72 1    
   139   70  191 1    
   140   71  192 1    
   141   71  193 1    
   142   71  194 1    
   143   72   73 2    
   144   72   74 am   BACKBONE|DICT|INTERRES
   145   74   75 1    
   146   74  195 1    
   147   75   76 1    
   148   75   77 1    
   149   75  196 1    
   150   76  197 1    
   151   76  198 1    
   152   76  199 1    
   153   77   78 2    
   154   77   79 am   BACKBONE|DICT|INTERRES
   155   79   80 1    
   156   79  200 1    
   157   80   81 1    
   158   80   82 1    
   159   80  201 1    
   160   81  202 1    
   161   81  203 1    
   162   81  204 1    
   163   82   83 2    
   164   82   84 am   BACKBONE|DICT|INTERRES
   165   84   85 1    
   166   84  205 1    
   167   85   86 1    
   168   85   87 1    
   169   85  206 1    
   170   86  207 1    
   171   86  208 1    
   172   86  209 1    
   173   87   88 2    
   174   87   89 am   BACKBONE|DICT|INTERRES
   175   89   90 1    
   176   89  210 1    
   177   90   91 1    
   178   90   92 1    
   179   90  211 1    
   180   91  212 1    
   181   91  213 1    
   182   91  214 1    
   183   92   93 2    
   184   92   94 am   BACKBONE|DICT|INTERRES
   185   94   95 1    
   186   94  215 1    
   187   95   96 1    
   188   95   97 1    
   189   95  216 1    
   190   96  217 1    
   191   96  218 1    
   192   96  219 1    
   193   97   98 2    
   194   97   99 am   BACKBONE|DICT|INTERRES
   195   99  100 1    
   196   99  220 1    
   197  100  101 1    
   198  100  102 1    
   199  100  221 1    
   200  101  222 1    
   201  101  223 1    
   202  101  224 1    
   203  102  103 2    
   204  102  104 am   BACKBONE|DICT|INTERRES
   205  104  105 1    
   206  104  225 1    
   207  105  106 1    
   208  105  107 1    
   209  105  226 1    
   210  106  227 1    
   211  106  228 1    
   212  106  229 1    
   213  107  108 2    
   214  107  109 am   BACKBONE|DICT|INTERRES
   215  109  110 1    
   216  109  230 1    
   217  110  111 1    
   218  110  112 1    
   219  110  231 1    
   220  111  232 1    
   221  111  233 1    
   222  111  234 1    
   223  112  113 2    
   224  112  114 am   BACKBONE|DICT|INTERRES
   225  114  115 1    
   226  114  235 1    
   227  115  116 1    
   228  115  117 1    
   229  115  236 1    
   230  116  237 1    
   231  116  238 1    
   232  116  239 1    
   233  117  118 2    
   234  117  119 am   BACKBONE|DICT|INTERRES
   235  119  120 1    
   236  119  240 1    
   237  120  121 1    
   238  120  124 1    
   239  120  241 1    
   240  121  122 am   BACKBONE|DICT|INTERRES
   241  121  123 2    
   242  122  242 1    
   243  122  243 1    
   244  124  125 1    
   245  124  244 1    
   246  124  245 1    
   247  125  126 1    
   248  126  246 1    
   249  126  247 1    
@<TRIPOS>SUBSTRUCTURE
     1 UNK         1 GROUP             0       ****    0 ROOT    
