@<TRIPOS>MOLECULE
3R540
247   249    1
SMALL
USER_CHARGES


@<TRIPOS>ATOM
      1 CA         -1.7256  -17.0106  -48.1427 C.3       0 UNK        -0.1800 
      2 C          -1.3836  -15.5262  -48.1608 C.2       0 UNK         0.5000 
      3 O          -2.2786  -14.6892  -48.2812 O.2       0 UNK        -0.5000 
      4 N          -0.0926  -15.1968  -48.0317 N.am      1 UNK        -0.5000 
      5 CA          0.4466  -13.8351  -47.9623 C.3       1 UNK         0.1400 
      6 C6          1.9571  -13.8110  -48.3073 C.3       23 UNK        -0.0398 
      7 S7          2.2709  -13.9940  -50.0952 S.3       23 UNK        -0.2404 
      8 C8          2.7435  -15.7522  -50.2634 C.3       23 UNK        -0.0205 
      9 C9          1.5894  -16.7166  -50.5444 C.ar      23 UNK        -0.0193 
     10 C10         0.4326  -16.3143  -51.2233 C.ar      23 UNK        -0.1150 
     11 C11        -0.5755  -17.2323  -51.5268 C.ar      23 UNK        -0.0193 
     12 C12        -0.4224  -18.5690  -51.1527 C.ar      23 UNK        -0.1150 
     13 C13         0.7275  -18.9975  -50.4831 C.ar      23 UNK        -0.0193 
     14 C14         1.7262  -18.0605  -50.1815 C.ar      23 UNK        -0.1150 
     15 C15         0.8688  -20.4887  -50.1752 C.3       23 UNK        -0.0205 
     16 S16         2.1149  -20.9375  -48.9220 S.3       23 UNK        -0.2404 
     17 C17         1.2330  -20.5531  -47.3750 C.3       23 UNK        -0.0398 
     18 CA          0.7429  -21.8339  -46.6482 C.3       11 UNK         0.1400 
     19 N           0.8683  -21.7190  -45.1923 N.am      11 UNK        -0.5000 
     20 C           0.7933  -22.7466  -44.3356 C.2       10 UNK         0.5000 
     21 O           0.6281  -23.9145  -44.6853 O.2       10 UNK        -0.5000 
     22 CA          0.8893  -22.4124  -42.8356 C.3       10 UNK         0.1400 
     23 CB          2.3522  -22.2443  -42.3975 C.3       10 UNK        -0.1800 
     24 N           0.1301  -21.2127  -42.4855 N.am      10 UNK        -0.5000 
     25 C          -1.2084  -21.1390  -42.4999 C.2       9 UNK         0.5000 
     26 O          -1.9440  -22.0911  -42.7597 O.2       9 UNK        -0.5000 
     27 CA         -1.8293  -19.7610  -42.2073 C.3       9 UNK         0.1400 
     28 CB         -1.9413  -19.5286  -40.6932 C.3       9 UNK        -0.1800 
     29 N          -1.0855  -18.6556  -42.8114 N.am      9 UNK        -0.5000 
     30 C          -0.8951  -18.4884  -44.1280 C.2       8 UNK         0.5000 
     31 O          -1.3334  -19.2445  -44.9915 O.2       8 UNK        -0.5000 
     32 CA         -0.0150  -17.3032  -44.5484 C.3       8 UNK         0.1400 
     33 CB         -0.7931  -15.9895  -44.3965 C.3       8 UNK        -0.1800 
     34 N           1.2279  -17.2347  -43.7801 N.am      8 UNK        -0.5000 
     35 C           2.1499  -18.2053  -43.7047 C.2       7 UNK         0.5000 
     36 O           2.0699  -19.2741  -44.3071 O.2       7 UNK        -0.5000 
     37 CA          3.3348  -17.9621  -42.7578 C.3       7 UNK         0.1400 
     38 CB          4.4338  -17.1429  -43.4515 C.3       7 UNK        -0.1800 
     39 N           2.9048  -17.2843  -41.5362 N.am      7 UNK        -0.5000 
     40 C           2.2349  -17.8806  -40.5403 C.2       6 UNK         0.5000 
     41 O           1.9681  -19.0830  -40.5190 O.2       6 UNK        -0.5000 
     42 CA          1.7533  -16.9714  -39.3933 C.3       6 UNK         0.1400 
     43 CB          2.8746  -16.7538  -38.3663 C.3       6 UNK        -0.1800 
     44 N           1.2671  -15.6718  -39.8639 N.am      6 UNK        -0.5000 
     45 C           0.1600  -15.5065  -40.6006 C.2       5 UNK         0.5000 
     46 O          -0.5794  -16.4332  -40.9331 O.2       5 UNK        -0.5000 
     47 CA         -0.1598  -14.0756  -41.0794 C.3       5 UNK         0.1400 
     48 CB         -0.9913  -13.3319  -40.0243 C.3       5 UNK        -0.1800 
     49 N           0.9991  -13.2521  -41.4460 N.am      5 UNK        -0.5000 
     50 C           1.9718  -13.5939  -42.3020 C.2       4 UNK         0.5000 
     51 O           2.0846  -14.7164  -42.7926 O.2       4 UNK        -0.5000 
     52 CA          2.9322  -12.4702  -42.7181 C.3       4 UNK         0.1400 
     53 CB          4.1629  -12.9945  -43.4797 C.3       4 UNK        -0.1800 
     54 N           2.1834  -11.5754  -43.5908 N.am      4 UNK        -0.5000 
     55 C           1.8842  -10.2956  -43.3367 C.2       3 UNK         0.5000 
     56 O           2.3184   -9.6699  -42.3689 O.2       3 UNK        -0.5000 
     57 CA          0.9047   -9.6035  -44.3103 C.3       3 UNK         0.1400 
     58 CB          1.6767   -8.8486  -45.4029 C.3       3 UNK        -0.1800 
     59 N          -0.0328  -10.5339  -44.9463 N.am      3 UNK        -0.5000 
     60 C          -0.9435  -11.2705  -44.2948 C.2       2 UNK         0.5000 
     61 O          -1.1894  -11.1369  -43.0956 O.2       2 UNK        -0.5000 
     62 CA         -1.6905  -12.3606  -45.0915 C.3       2 UNK         0.1400 
     63 CB         -3.1359  -11.9210  -45.3694 C.3       2 UNK        -0.1800 
     64 N          -1.0850  -12.7952  -46.3584 N.am      2 UNK        -0.5000 
     65 C           0.1648  -13.2331  -46.5689 C.2       1 UNK         0.5000 
     66 O           1.0551  -13.2039  -45.7184 O.2       1 UNK        -0.5000 
     67 C          -0.6882  -22.2299  -47.0741 C.2       11 UNK         0.5000 
     68 O          -0.8542  -23.0620  -47.9649 O.2       11 UNK        -0.5000 
     69 N          -1.6956  -21.6541  -46.4021 N.am      12 UNK        -0.5000 
     70 CA         -3.1193  -21.9199  -46.6123 C.3       12 UNK         0.1400 
     71 CB         -3.9469  -20.8641  -45.8645 C.3       12 UNK        -0.1800 
     72 C          -3.5663  -23.3374  -46.2085 C.2       12 UNK         0.5000 
     73 O          -4.6072  -23.7909  -46.6845 O.2       12 UNK        -0.5000 
     74 N          -2.7860  -24.0257  -45.3640 N.am      13 UNK        -0.5000 
     75 CA         -3.0138  -25.4055  -44.9282 C.3       13 UNK         0.1400 
     76 CB         -2.3052  -25.6264  -43.5797 C.3       13 UNK        -0.1800 
     77 C          -2.5908  -26.4301  -46.0059 C.2       13 UNK         0.5000 
     78 O          -1.7769  -27.3174  -45.7422 O.2       13 UNK        -0.5000 
     79 N          -3.1547  -26.2846  -47.2074 N.am      14 UNK        -0.5000 
     80 CA         -2.9434  -27.1154  -48.3858 C.3       14 UNK         0.1400 
     81 CB         -1.6187  -26.7305  -49.0692 C.3       14 UNK        -0.1800 
     82 C          -4.1343  -26.9134  -49.3334 C.2       14 UNK         0.5000 
     83 O          -4.8524  -25.9169  -49.2051 O.2       14 UNK        -0.5000 
     84 N          -4.3171  -27.8481  -50.2760 N.am      15 UNK        -0.5000 
     85 CA         -5.3704  -27.8357  -51.2961 C.3       15 UNK         0.1400 
     86 CB         -5.2588  -29.1089  -52.1501 C.3       15 UNK        -0.1800 
     87 C          -5.2974  -26.5693  -52.1696 C.2       15 UNK         0.5000 
     88 O          -4.3627  -26.4299  -52.9611 O.2       15 UNK        -0.5000 
     89 N          -6.2363  -25.6391  -51.9394 N.am      16 UNK        -0.5000 
     90 CA         -6.2960  -24.2837  -52.5030 C.3       16 UNK         0.1400 
     91 CB         -6.6888  -24.3345  -53.9919 C.3       16 UNK        -0.1800 
     92 C          -5.0014  -23.4790  -52.2519 C.2       16 UNK         0.5000 
     93 O          -4.5156  -22.7819  -53.1463 O.2       16 UNK        -0.5000 
     94 N          -4.4180  -23.6575  -51.0565 N.am      17 UNK        -0.5000 
     95 CA         -3.1359  -23.1027  -50.6042 C.3       17 UNK         0.1400 
     96 CB         -3.2328  -21.5649  -50.4995 C.3       17 UNK        -0.1800 
     97 C          -1.9248  -23.5468  -51.4592 C.2       17 UNK         0.5000 
     98 O          -0.8733  -22.9135  -51.3911 O.2       17 UNK        -0.5000 
     99 N          -2.1031  -24.5921  -52.2861 N.am      18 UNK        -0.5000 
    100 CA        -1.1891  -25.0691  -53.3302 C.3       18 UNK         0.1400 
    101 CB         0.0776  -25.6870  -52.7027 C.3       18 UNK        -0.1800 
    102 C         -0.8673  -24.0006  -54.4035 C.2       18 UNK         0.5000 
    103 O          0.1737  -24.0885  -55.0575 O.2       18 UNK        -0.5000 
    104 N         -1.7534  -23.0062  -54.5610 N.am      19 UNK        -0.5000 
    105 CA        -1.5238  -21.8045  -55.3655 C.3       19 UNK         0.1400 
    106 CB        -0.9057  -20.7177  -54.4627 C.3       19 UNK        -0.1800 
    107 C         -2.8078  -21.3038  -56.0511 C.2       19 UNK         0.5000 
    108 O         -2.8433  -20.1523  -56.4866 O.2       19 UNK        -0.5000 
    109 N         -3.8572  -22.1416  -56.0986 N.am      20 UNK        -0.5000 
    110 CA        -5.2136  -21.8223  -56.5749 C.3       20 UNK         0.1400 
    111 CB        -5.2191  -21.6148  -58.1035 C.3       20 UNK        -0.1800 
    112 C         -5.8435  -20.6367  -55.8061 C.2       20 UNK         0.5000 
    113 O         -6.5163  -19.7900  -56.3988 O.2       20 UNK        -0.5000 
    114 N         -5.5343  -20.5646  -54.5017 N.am      21 UNK        -0.5000 
    115 CA        -5.8301  -19.4874  -53.5502 C.3       21 UNK         0.1400 
    116 CB        -7.3412  -19.4493  -53.2468 C.3       21 UNK        -0.1800 
    117 C         -5.2756  -18.1041  -53.9666 C.2       21 UNK         0.5000 
    118 O         -5.7433  -17.0859  -53.4547 O.2       21 UNK        -0.5000 
    119 N         -4.3088  -18.0874  -54.8968 N.am      22 UNK        -0.5000 
    120 CA        -3.8057  -16.9043  -55.6130 C.3       22 UNK         0.1400 
    121 C         -4.8795  -16.1960  -56.4989 C.2       22 UNK         0.5000 
    122 N         -5.9441  -16.8744  -56.9157 N.am      22 UNK        -0.7600 
    123 O         -4.7393  -15.0255  -56.8440 O.2       22 UNK        -0.5000 
    124 C124       -3.0057  -15.9302  -54.7040 C.3       23 UNK        -0.0398 
    125 S125       -1.4763  -16.6947  -54.0658 S.3       23 UNK        -0.2404 
    126 C126       -1.8140  -16.7774  -52.2820 C.3       23 UNK        -0.0205 
    127 H127       -2.3128  -17.2526  -47.2569 H         1 UNK         0.0600 
    128 H128       -2.3126  -17.2719  -49.0229 H         1 UNK         0.0600 
    129 H129       -0.8301  -17.6323  -48.1370 H         1 UNK         0.0600 
    130 H130        0.5931  -15.9329  -47.9562 H         1 UNK         0.3000 
    131 H131       -0.0754  -13.2129  -48.6927 H         1 UNK         0.0600 
    132 H132        2.3967  -12.8529  -48.0231 H         1 UNK         0.0800 
    133 H133        2.5042  -14.5661  -47.7406 H         1 UNK         0.0800 
    134 H134        3.2951  -16.0657  -49.3760 H         1 UNK         0.0800 
    135 H135        3.4439  -15.8300  -51.0957 H         1 UNK         0.0800 
    136 H136        0.3153  -15.2883  -51.5403 H         1 UNK         0.1150 
    137 H137       -1.1915  -19.2851  -51.4065 H         1 UNK         0.1150 
    138 H138        2.6356  -18.3758  -49.6913 H         1 UNK         0.1150 
    139 H139       -0.0925  -20.8921  -49.8591 H         1 UNK         0.0800 
    140 H140        1.1237  -21.0002  -51.1042 H         1 UNK         0.0800 
    141 H141        0.4252  -19.8399  -47.5506 H         1 UNK         0.0800 
    142 H142        1.9567  -20.0215  -46.7580 H         1 UNK         0.0800 
    143 H143        1.3956  -22.6615  -46.9357 H         1 UNK         0.0600 
    144 H144        1.0645  -20.7917  -44.8239 H         1 UNK         0.3000 
    145 H145        0.4671  -23.2530  -42.2805 H         1 UNK         0.0600 
    146 H146        2.4230  -22.0516  -41.3268 H         1 UNK         0.0600 
    147 H147        2.9264  -23.1480  -42.6050 H         1 UNK         0.0600 
    148 H148        2.8406  -21.4201  -42.9171 H         1 UNK         0.0600 
    149 H149        0.6619  -20.3830  -42.2597 H         1 UNK         0.3000 
    150 H150       -2.8357  -19.7545  -42.6304 H         1 UNK         0.0600 
    151 H151       -2.4973  -20.3345  -40.2126 H         1 UNK         0.0600 
    152 H152       -2.4647  -18.5973  -40.4760 H         1 UNK         0.0600 
    153 H153       -0.9592  -19.4768  -40.2211 H         1 UNK         0.0600 
    154 H154       -0.7163  -17.9561  -42.1734 H         1 UNK         0.3000 
    155 H155        0.2583  -17.4278  -45.5979 H         1 UNK         0.0600 
    156 H156       -1.3065  -15.9247  -43.4382 H         1 UNK         0.0600 
    157 H157       -1.5527  -15.8931  -45.1717 H         1 UNK         0.0600 
    158 H158       -0.1302  -15.1314  -44.4686 H         1 UNK         0.0600 
    159 H159        1.4179  -16.3610  -43.2944 H         1 UNK         0.3000 
    160 H160        3.7562  -18.9330  -42.4886 H         1 UNK         0.0600 
    161 H161        5.2836  -16.9813  -42.7883 H         1 UNK         0.0600 
    162 H162        4.0721  -16.1674  -43.7770 H         1 UNK         0.0600 
    163 H163        4.8049  -17.6636  -44.3351 H         1 UNK         0.0600 
    164 H164        2.9970  -16.2773  -41.5263 H         1 UNK         0.3000 
    165 H165        0.9274  -17.4811  -38.8923 H         1 UNK         0.0600 
    166 H166        2.5196  -16.1786  -37.5110 H         1 UNK         0.0600 
    167 H167        3.2442  -17.7067  -37.9851 H         1 UNK         0.0600 
    168 H168        3.7225  -16.2226  -38.8005 H         1 UNK         0.0600 
    169 H169        1.8240  -14.8606  -39.6389 H         1 UNK         0.3000 
    170 H170       -0.7720  -14.1660  -41.9775 H         1 UNK         0.0600 
    171 H171       -1.8762  -13.9062  -39.7464 H         1 UNK         0.0600 
    172 H172       -0.4175  -13.1503  -39.1148 H         1 UNK         0.0600 
    173 H173       -1.3371  -12.3695  -40.4023 H         1 UNK         0.0600 
    174 H174        0.9760  -12.2967  -41.1194 H         1 UNK         0.3000 
    175 H175        3.2716  -11.9603  -41.8144 H         1 UNK         0.0600 
    176 H176        3.8799  -13.5065  -44.4008 H         1 UNK         0.0600 
    177 H177        4.8354  -12.1791  -43.7456 H         1 UNK         0.0600 
    178 H178        4.7289  -13.6996  -42.8700 H         1 UNK         0.0600 
    179 H179        1.7471  -12.0298  -44.3905 H         1 UNK         0.3000 
    180 H180        0.3231   -8.8797  -43.7356 H         1 UNK         0.0600 
    181 H181        2.2611   -9.5282  -46.0246 H         1 UNK         0.0600 
    182 H182        2.3681   -8.1274  -44.9650 H         1 UNK         0.0600 
    183 H183        1.0001   -8.2943  -46.0536 H         1 UNK         0.0600 
    184 H184        0.1040  -10.7137  -45.9296 H         1 UNK         0.3000 
    185 H185       -1.7286  -13.2377  -44.4440 H         1 UNK         0.0600 
    186 H186       -3.6432  -11.6276  -44.4492 H         1 UNK         0.0600 
    187 H187       -3.1709  -11.0697  -46.0502 H         1 UNK         0.0600 
    188 H188       -3.7163  -12.7305  -45.8129 H         1 UNK         0.0600 
    189 H189       -1.7396  -12.9392  -47.1185 H         1 UNK         0.3000 
    190 H190       -1.4765  -20.9289  -45.7219 H         1 UNK         0.3000 
    191 H191       -3.3234  -21.8124  -47.6775 H         1 UNK         0.0600 
    192 H192       -3.7526  -20.8904  -44.7918 H         1 UNK         0.0600 
    193 H193       -5.0157  -21.0258  -46.0102 H         1 UNK         0.0600 
    194 H194       -3.7206  -19.8598  -46.2230 H         1 UNK         0.0600 
    195 H195       -1.9385  -23.5861  -45.0317 H         1 UNK         0.3000 
    196 H196       -4.0836  -25.5443  -44.7591 H         1 UNK         0.0600 
    197 H197       -2.5170  -26.6209  -43.1853 H         1 UNK         0.0600 
    198 H198       -2.6402  -24.9042  -42.8349 H         1 UNK         0.0600 
    199 H199       -1.2232  -25.5337  -43.6717 H         1 UNK         0.0600 
    200 H200       -3.8438  -25.5466  -47.3360 H         1 UNK         0.3000 
    201 H201       -2.9151  -28.1649  -48.0858 H         1 UNK         0.0600 
    202 H202       -0.7663  -26.9271  -48.4188 H         1 UNK         0.0600 
    203 H203       -1.5954  -25.6727  -49.3318 H         1 UNK         0.0600 
    204 H204       -1.4647  -27.3023  -49.9847 H         1 UNK         0.0600 
    205 H205       -3.6662  -28.6183  -50.3261 H         1 UNK         0.3000 
    206 H206       -6.3345  -27.8568  -50.7839 H         1 UNK         0.0600 
    207 H207       -5.3852  -30.0048  -51.5419 H         1 UNK         0.0600 
    208 H208       -6.0295  -29.1294  -52.9217 H         1 UNK         0.0600 
    209 H209       -4.2918  -29.1769  -52.6506 H         1 UNK         0.0600 
    210 H210       -6.9273  -25.8372  -51.2286 H         1 UNK         0.3000 
    211 H211       -7.0892  -23.7595  -51.9683 H         1 UNK         0.0600 
    212 H212       -5.8917  -24.7514  -54.6085 H         1 UNK         0.0600 
    213 H213       -6.9124  -23.3348  -54.3636 H         1 UNK         0.0600 
    214 H214       -7.5820  -24.9403  -54.1441 H         1 UNK         0.0600 
    215 H215       -4.8497  -24.3123  -50.4100 H         1 UNK         0.3000 
    216 H216       -2.9722  -23.5021  -49.6028 H         1 UNK         0.0600 
    217 H217       -3.2394  -21.0906  -51.4814 H         1 UNK         0.0600 
    218 H218       -2.3868  -21.1582  -49.9467 H         1 UNK         0.0600 
    219 H219       -4.1370  -21.2583  -49.9739 H         1 UNK         0.0600 
    220 H220       -3.0107  -25.0452  -52.2929 H         1 UNK         0.3000 
    221 H221       -1.7195  -25.8663  -53.8524 H         1 UNK         0.0600 
    222 H222        0.6958  -24.9341  -52.2130 H         1 UNK         0.0600 
    223 H223       -0.1787  -26.4439  -51.9621 H         1 UNK         0.0600 
    224 H224        0.6937  -26.1732  -53.4598 H         1 UNK         0.0600 
    225 H225       -2.5839  -23.0011  -53.9782 H         1 UNK         0.3000 
    226 H226       -0.8222  -22.0269  -56.1717 H         1 UNK         0.0600 
    227 H227        0.0139  -21.0669  -53.9928 H         1 UNK         0.0600 
    228 H228       -0.6559  -19.8208  -55.0308 H         1 UNK         0.0600 
    229 H229       -1.5923  -20.4225  -53.6683 H         1 UNK         0.0600 
    230 H230       -3.7389  -23.0636  -55.7037 H         1 UNK         0.3000 
    231 H231       -5.8324  -22.6938  -56.3622 H         1 UNK         0.0600 
    232 H232       -4.7729  -22.4656  -58.6181 H         1 UNK         0.0600 
    233 H233       -4.6680  -20.7200  -58.3946 H         1 UNK         0.0600 
    234 H234       -6.2373  -21.5071  -58.4792 H         1 UNK         0.0600 
    235 H235       -4.9970  -21.3367  -54.1105 H         1 UNK         0.3000 
    236 H236       -5.3132  -19.7522  -52.6268 H         1 UNK         0.0600 
    237 H237       -7.5627  -18.7551  -52.4355 H         1 UNK         0.0600 
    238 H238       -7.9188  -19.1326  -54.1158 H         1 UNK         0.0600 
    239 H239       -7.7056  -20.4299  -52.9406 H         1 UNK         0.0600 
    240 H240       -3.9778  -18.9697  -55.2703 H         1 UNK         0.3000 
    241 H241       -3.0997  -17.2999  -56.3441 H         1 UNK         0.0600 
    242 H242       -6.0772  -17.8497  -56.6667 H         1 UNK         0.3800 
    243 H243       -6.6268  -16.4131  -57.4956 H         1 UNK         0.3800 
    244 H244       -2.6958  -15.0475  -55.2652 H         1 UNK         0.0800 
    245 H245       -3.6228  -15.5608  -53.8845 H         1 UNK         0.0800 
    246 H246       -2.1236  -15.7963  -51.9184 H         1 UNK         0.0800 
    247 H247       -2.6485  -17.4566  -52.1005 H         1 UNK         0.0800 
@<TRIPOS>BOND
     1    1    2 1    
     2    1  127 1    
     3    1  128 1    
     4    1  129 1    
     5    2    3 2    
     6    2    4 am   BACKBONE|DICT|INTERRES
     7    4    5 1    
     8    4  130 1    
     9    5    6 1    
    10    5   65 1    
    11    5  131 1    
    12    6    7 1    
    13    6  132 1    
    14    6  133 1    
    15    7    8 1    
    16    8    9 1    
    17    8  134 1    
    18    8  135 1    
    19    9   10 ar   
    20    9   14 ar   
    21   10   11 ar   
    22   10  136 1    
    23   11   12 ar   
    24   11  126 1    
    25   12   13 ar   
    26   12  137 1    
    27   13   14 ar   
    28   13   15 1    
    29   14  138 1    
    30   15   16 1    
    31   15  139 1    
    32   15  140 1    
    33   16   17 1    
    34   17   18 1    
    35   17  141 1    
    36   17  142 1    
    37   18   19 1    
    38   18   67 1    
    39   18  143 1    
    40   19   20 am   BACKBONE|DICT|INTERRES
    41   19  144 1    
    42   20   21 2    
    43   20   22 1    
    44   22   23 1    
    45   22   24 1    
    46   22  145 1    
    47   23  146 1    
    48   23  147 1    
    49   23  148 1    
    50   24   25 am   BACKBONE|DICT|INTERRES
    51   24  149 1    
    52   25   26 2    
    53   25   27 1    
    54   27   28 1    
    55   27   29 1    
    56   27  150 1    
    57   28  151 1    
    58   28  152 1    
    59   28  153 1    
    60   29   30 am   BACKBONE|DICT|INTERRES
    61   29  154 1    
    62   30   31 2    
    63   30   32 1    
    64   32   33 1    
    65   32   34 1    
    66   32  155 1    
    67   33  156 1    
    68   33  157 1    
    69   33  158 1    
    70   34   35 am   BACKBONE|DICT|INTERRES
    71   34  159 1    
    72   35   36 2    
    73   35   37 1    
    74   37   38 1    
    75   37   39 1    
    76   37  160 1    
    77   38  161 1    
    78   38  162 1    
    79   38  163 1    
    80   39   40 am   BACKBONE|DICT|INTERRES
    81   39  164 1    
    82   40   41 2    
    83   40   42 1    
    84   42   43 1    
    85   42   44 1    
    86   42  165 1    
    87   43  166 1    
    88   43  167 1    
    89   43  168 1    
    90   44   45 am   BACKBONE|DICT|INTERRES
    91   44  169 1    
    92   45   46 2    
    93   45   47 1    
    94   47   48 1    
    95   47   49 1    
    96   47  170 1    
    97   48  171 1    
    98   48  172 1    
    99   48  173 1    
   100   49   50 am   BACKBONE|DICT|INTERRES
   101   49  174 1    
   102   50   51 2    
   103   50   52 1    
   104   52   53 1    
   105   52   54 1    
   106   52  175 1    
   107   53  176 1    
   108   53  177 1    
   109   53  178 1    
   110   54   55 am   BACKBONE|DICT|INTERRES
   111   54  179 1    
   112   55   56 2    
   113   55   57 1    
   114   57   58 1    
   115   57   59 1    
   116   57  180 1    
   117   58  181 1    
   118   58  182 1    
   119   58  183 1    
   120   59   60 am   BACKBONE|DICT|INTERRES
   121   59  184 1    
   122   60   61 2    
   123   60   62 1    
   124   62   63 1    
   125   62   64 1    
   126   62  185 1    
   127   63  186 1    
   128   63  187 1    
   129   63  188 1    
   130   64   65 am   BACKBONE|DICT|INTERRES
   131   64  189 1    
   132   65   66 2    
   133   67   68 2    
   134   67   69 am   BACKBONE|DICT|INTERRES
   135   69   70 1    
   136   69  190 1    
   137   70   71 1    
   138   70   72 1    
   139   70  191 1    
   140   71  192 1    
   141   71  193 1    
   142   71  194 1    
   143   72   73 2    
   144   72   74 am   BACKBONE|DICT|INTERRES
   145   74   75 1    
   146   74  195 1    
   147   75   76 1    
   148   75   77 1    
   149   75  196 1    
   150   76  197 1    
   151   76  198 1    
   152   76  199 1    
   153   77   78 2    
   154   77   79 am   BACKBONE|DICT|INTERRES
   155   79   80 1    
   156   79  200 1    
   157   80   81 1    
   158   80   82 1    
   159   80  201 1    
   160   81  202 1    
   161   81  203 1    
   162   81  204 1    
   163   82   83 2    
   164   82   84 am   BACKBONE|DICT|INTERRES
   165   84   85 1    
   166   84  205 1    
   167   85   86 1    
   168   85   87 1    
   169   85  206 1    
   170   86  207 1    
   171   86  208 1    
   172   86  209 1    
   173   87   88 2    
   174   87   89 am   BACKBONE|DICT|INTERRES
   175   89   90 1    
   176   89  210 1    
   177   90   91 1    
   178   90   92 1    
   179   90  211 1    
   180   91  212 1    
   181   91  213 1    
   182   91  214 1    
   183   92   93 2    
   184   92   94 am   BACKBONE|DICT|INTERRES
   185   94   95 1    
   186   94  215 1    
   187   95   96 1    
   188   95   97 1    
   189   95  216 1    
   190   96  217 1    
   191   96  218 1    
   192   96  219 1    
   193   97   98 2    
   194   97   99 am   BACKBONE|DICT|INTERRES
   195   99  100 1    
   196   99  220 1    
   197  100  101 1    
   198  100  102 1    
   199  100  221 1    
   200  101  222 1    
   201  101  223 1    
   202  101  224 1    
   203  102  103 2    
   204  102  104 am   BACKBONE|DICT|INTERRES
   205  104  105 1    
   206  104  225 1    
   207  105  106 1    
   208  105  107 1    
   209  105  226 1    
   210  106  227 1    
   211  106  228 1    
   212  106  229 1    
   213  107  108 2    
   214  107  109 am   BACKBONE|DICT|INTERRES
   215  109  110 1    
   216  109  230 1    
   217  110  111 1    
   218  110  112 1    
   219  110  231 1    
   220  111  232 1    
   221  111  233 1    
   222  111  234 1    
   223  112  113 2    
   224  112  114 am   BACKBONE|DICT|INTERRES
   225  114  115 1    
   226  114  235 1    
   227  115  116 1    
   228  115  117 1    
   229  115  236 1    
   230  116  237 1    
   231  116  238 1    
   232  116  239 1    
   233  117  118 2    
   234  117  119 am   BACKBONE|DICT|INTERRES
   235  119  120 1    
   236  119  240 1    
   237  120  121 1    
   238  120  124 1    
   239  120  241 1    
   240  121  122 am   BACKBONE|DICT|INTERRES
   241  121  123 2    
   242  122  242 1    
   243  122  243 1    
   244  124  125 1    
   245  124  244 1    
   246  124  245 1    
   247  125  126 1    
   248  126  246 1    
   249  126  247 1    
@<TRIPOS>SUBSTRUCTURE
     1 UNK         1 GROUP             0       ****    0 ROOT    
