@<TRIPOS>MOLECULE
3R540
247   249    1
SMALL
USER_CHARGES


@<TRIPOS>ATOM
      1 CA         -3.5946  -12.3168  -41.6362 C.3       0 UNK        -0.1800 
      2 C          -2.5822  -12.6555  -42.7214 C.2       0 UNK         0.5000 
      3 O          -1.4800  -13.0970  -42.4011 O.2       0 UNK        -0.5000 
      4 N          -2.9676  -12.4601  -43.9912 N.am      1 UNK        -0.5000 
      5 CA         -2.1737  -12.6470  -45.2133 C.3       1 UNK         0.1400 
      6 C6         -1.4756  -14.0323  -45.2950 C.3       23 UNK        -0.0398 
      7 S7         -0.9989  -14.4935  -46.9958 S.3       23 UNK        -0.2404 
      8 C8         -1.7391  -16.1468  -47.1263 C.3       23 UNK        -0.0205 
      9 C9         -1.3548  -16.8339  -48.4259 C.ar      23 UNK        -0.0193 
     10 C10        -2.3225  -17.0920  -49.4025 C.ar      23 UNK        -0.1150 
     11 C11        -1.9776  -17.7588  -50.5814 C.ar      23 UNK        -0.0193 
     12 C12        -0.6489  -18.1281  -50.7958 C.ar      23 UNK        -0.1150 
     13 C13         0.3170  -17.9136  -49.8124 C.ar      23 UNK        -0.0193 
     14 C14        -0.0379  -17.2589  -48.6299 C.ar      23 UNK        -0.1150 
     15 C15         1.7282  -18.4330  -50.0275 C.3       23 UNK        -0.0205 
     16 S16         1.7729  -20.2547  -49.9720 S.3       23 UNK        -0.2404 
     17 C17         1.5761  -20.5524  -48.1865 C.3       23 UNK        -0.0398 
     18 CA          0.9001  -21.9076  -47.8521 C.3       11 UNK         0.1400 
     19 N           1.2667  -22.3767  -46.5142 N.am      11 UNK        -0.5000 
     20 C           2.3700  -23.0951  -46.2568 C.2       10 UNK         0.5000 
     21 O           3.1128  -23.5266  -47.1399 O.2       10 UNK        -0.5000 
     22 CA          2.7233  -23.3717  -44.7817 C.3       10 UNK         0.1400 
     23 CB          4.2423  -23.3444  -44.5313 C.3       10 UNK        -0.1800 
     24 N           2.0859  -22.4100  -43.8848 N.am      10 UNK        -0.5000 
     25 C           1.4297  -22.7231  -42.7604 C.2       9 UNK         0.5000 
     26 O           1.3188  -23.8762  -42.3423 O.2       9 UNK        -0.5000 
     27 CA          0.7751  -21.5777  -41.9554 C.3       9 UNK         0.1400 
     28 CB          1.5285  -21.3584  -40.6338 C.3       9 UNK        -0.1800 
     29 N           0.6776  -20.2920  -42.6504 N.am      9 UNK        -0.5000 
     30 C           0.0265  -20.0560  -43.7967 C.2       8 UNK         0.5000 
     31 O          -0.5768  -20.9168  -44.4394 O.2       8 UNK        -0.5000 
     32 CA          0.1603  -18.6362  -44.3762 C.3       8 UNK         0.1400 
     33 CB         -0.8332  -17.6864  -43.6923 C.3       8 UNK        -0.1800 
     34 N           1.5186  -18.0916  -44.2752 N.am      8 UNK        -0.5000 
     35 C           2.6310  -18.6885  -44.7354 C.2       7 UNK         0.5000 
     36 O           2.6453  -19.7968  -45.2682 O.2       7 UNK        -0.5000 
     37 CA          3.9535  -17.9379  -44.5368 C.3       7 UNK         0.1400 
     38 CB          4.0910  -16.8139  -45.5699 C.3       7 UNK        -0.1800 
     39 N           4.0379  -17.3902  -43.1857 N.am      7 UNK        -0.5000 
     40 C           4.4039  -18.1087  -42.1144 C.2       6 UNK         0.5000 
     41 O           4.8097  -19.2697  -42.1738 O.2       6 UNK        -0.5000 
     42 CA          4.2723  -17.4275  -40.7391 C.3       6 UNK         0.1400 
     43 CB          5.5600  -16.6674  -40.3873 C.3       6 UNK        -0.1800 
     44 N           3.1361  -16.5095  -40.6565 N.am      6 UNK        -0.5000 
     45 C           1.8489  -16.8679  -40.7639 C.2       5 UNK         0.5000 
     46 O           1.4694  -18.0281  -40.9228 O.2       5 UNK        -0.5000 
     47 CA          0.8139  -15.7291  -40.7272 C.3       5 UNK         0.1400 
     48 CB          0.3398  -15.4794  -39.2882 C.3       5 UNK        -0.1800 
     49 N           1.2937  -14.4701  -41.3015 N.am      5 UNK        -0.5000 
     50 C           1.6896  -14.2941  -42.5695 C.2       4 UNK         0.5000 
     51 O           1.7762  -15.2129  -43.3906 O.2       4 UNK        -0.5000 
     52 CA          2.0323  -12.8405  -42.9505 C.3       4 UNK         0.1400 
     53 CB          3.2861  -12.3338  -42.2067 C.3       4 UNK        -0.1800 
     54 N           2.1311  -12.6258  -44.3976 N.am      4 UNK        -0.5000 
     55 C           3.0973  -13.0114  -45.2463 C.2       3 UNK         0.5000 
     56 O           4.1458  -13.5533  -44.8964 O.2       3 UNK        -0.5000 
     57 CA          2.8631  -12.7456  -46.7510 C.3       3 UNK         0.1400 
     58 CB          2.8337  -14.0623  -47.5450 C.3       3 UNK        -0.1800 
     59 N           1.6196  -12.0204  -47.0183 N.am      3 UNK        -0.5000 
     60 C           1.4718  -10.6891  -46.9656 C.2       2 UNK         0.5000 
     61 O           2.3971   -9.9046  -46.7569 O.2       2 UNK        -0.5000 
     62 CA          0.0369  -10.1490  -47.1407 C.3       2 UNK         0.1400 
     63 CB         -0.2216   -9.7710  -48.6069 C.3       2 UNK        -0.1800 
     64 N          -0.9875  -11.1038  -46.7031 N.am      2 UNK        -0.5000 
     65 C          -1.1699  -11.4939  -45.4339 C.2       1 UNK         0.5000 
     66 O          -0.5367  -11.0192  -44.4895 O.2       1 UNK        -0.5000 
     67 C          -0.6309  -21.9112  -48.0030 C.2       11 UNK         0.5000 
     68 O          -1.1644  -22.7529  -48.7263 O.2       11 UNK        -0.5000 
     69 N          -1.3263  -21.0332  -47.2683 N.am      12 UNK        -0.5000 
     70 CA         -2.7920  -20.9850  -47.2098 C.3       12 UNK         0.1400 
     71 CB         -3.2337  -19.6644  -46.5646 C.3       12 UNK        -0.1800 
     72 C          -3.3865  -22.1779  -46.4403 C.2       12 UNK         0.5000 
     73 O          -4.4636  -22.6597  -46.7878 O.2       12 UNK        -0.5000 
     74 N          -2.6614  -22.6445  -45.4157 N.am      13 UNK        -0.5000 
     75 CA         -2.9992  -23.8343  -44.6371 C.3       13 UNK         0.1400 
     76 CB         -2.2198  -23.7969  -43.3162 C.3       13 UNK        -0.1800 
     77 C          -2.7136  -25.1476  -45.3922 C.2       13 UNK         0.5000 
     78 O          -3.3033  -26.1732  -45.0502 O.2       13 UNK        -0.5000 
     79 N          -1.8176  -25.1052  -46.3912 N.am      14 UNK        -0.5000 
     80 CA         -1.4670  -26.2525  -47.2311 C.3       14 UNK         0.1400 
     81 CB         -0.1426  -25.9805  -47.9619 C.3       14 UNK        -0.1800 
     82 C          -2.5917  -26.6015  -48.2229 C.2       14 UNK         0.5000 
     83 O          -2.8995  -27.7808  -48.4011 O.2       14 UNK        -0.5000 
     84 N          -3.2100  -25.5713  -48.8107 N.am      15 UNK        -0.5000 
     85 CA         -4.4023  -25.6584  -49.6445 C.3       15 UNK         0.1400 
     86 CB         -4.0578  -26.1797  -51.0520 C.3       15 UNK        -0.1800 
     87 C          -5.0224  -24.2602  -49.7150 C.2       15 UNK         0.5000 
     88 O          -4.2938  -23.2902  -49.9145 O.2       15 UNK        -0.5000 
     89 N          -6.3494  -24.1764  -49.5754 N.am      16 UNK        -0.5000 
     90 CA         -7.1013  -22.9161  -49.5667 C.3       16 UNK         0.1400 
     91 CB         -8.3703  -23.1154  -48.7210 C.3       16 UNK        -0.1800 
     92 C          -7.4576  -22.3990  -50.9774 C.2       16 UNK         0.5000 
     93 O          -8.1288  -21.3720  -51.0943 O.2       16 UNK        -0.5000 
     94 N          -7.0436  -23.1284  -52.0221 N.am      17 UNK        -0.5000 
     95 CA         -7.3099  -22.8526  -53.4320 C.3       17 UNK         0.1400 
     96 CB         -7.0050  -24.1250  -54.2430 C.3       17 UNK        -0.1800 
     97 C          -6.5201  -21.6349  -53.9501 C.2       17 UNK         0.5000 
     98 O          -5.5371  -21.7975  -54.6745 O.2       17 UNK        -0.5000 
     99 N          -6.9652  -20.4265  -53.5853 N.am      18 UNK        -0.5000 
    100 CA        -6.3689  -19.1453  -53.9811 C.3       18 UNK         0.1400 
    101 CB        -7.1173  -18.0004  -53.2849 C.3       18 UNK        -0.1800 
    102 C         -6.3137  -18.9196  -55.5048 C.2       18 UNK         0.5000 
    103 O         -5.3828  -18.2745  -55.9865 O.2       18 UNK        -0.5000 
    104 N         -7.2615  -19.5150  -56.2429 N.am      19 UNK        -0.5000 
    105 CA        -7.2888  -19.5563  -57.7084 C.3       19 UNK         0.1400 
    106 CB        -8.6348  -20.1407  -58.1628 C.3       19 UNK        -0.1800 
    107 C         -6.1197  -20.3532  -58.3284 C.2       19 UNK         0.5000 
    108 O         -5.7542  -20.0934  -59.4750 O.2       19 UNK        -0.5000 
    109 N         -5.5451  -21.2866  -57.5578 N.am      20 UNK        -0.5000 
    110 CA        -4.3580  -22.0712  -57.9007 C.3       20 UNK         0.1400 
    111 CB        -4.6331  -23.5452  -57.5539 C.3       20 UNK        -0.1800 
    112 C         -3.1009  -21.5497  -57.1702 C.2       20 UNK         0.5000 
    113 O         -2.0713  -22.2247  -57.1910 O.2       20 UNK        -0.5000 
    114 N         -3.2052  -20.3686  -56.5394 N.am      21 UNK        -0.5000 
    115 CA        -2.1937  -19.6930  -55.7211 C.3       21 UNK         0.1400 
    116 CB        -0.9428  -19.3360  -56.5520 C.3       21 UNK        -0.1800 
    117 C         -1.8645  -20.4333  -54.4066 C.2       21 UNK         0.5000 
    118 O         -0.7445  -20.3148  -53.9068 O.2       21 UNK        -0.5000 
    119 N         -2.8587  -21.1377  -53.8474 N.am      22 UNK        -0.5000 
    120 CA        -2.7955  -21.8749  -52.5740 C.3       22 UNK         0.1400 
    121 C         -1.8059  -23.0834  -52.6182 C.2       22 UNK         0.5000 
    122 N         -1.2629  -23.5429  -51.4972 N.am      22 UNK        -0.7600 
    123 O         -1.5593  -23.6636  -53.6734 O.2       22 UNK        -0.5000 
    124 C124       -2.5960  -20.9339  -51.3521 C.3       23 UNK        -0.0398 
    125 S125       -3.9030  -19.6655  -51.1717 S.3       23 UNK        -0.2404 
    126 C126       -3.0406  -18.1182  -51.6078 C.3       23 UNK        -0.0205 
    127 H127       -3.8081  -13.2002  -41.0344 H         1 UNK         0.0600 
    128 H128       -4.5342  -11.9546  -42.0541 H         1 UNK         0.0600 
    129 H129       -3.1942  -11.5446  -40.9794 H         1 UNK         0.0600 
    130 H130       -3.8904  -12.0803  -44.1505 H         1 UNK         0.3000 
    131 H131       -2.9076  -12.5976  -46.0197 H         1 UNK         0.0600 
    132 H132       -0.5848  -14.0689  -44.6661 H         1 UNK         0.0800 
    133 H133       -2.1464  -14.7966  -44.9007 H         1 UNK         0.0800 
    134 H134       -1.4031  -16.7618  -46.2933 H         1 UNK         0.0800 
    135 H135       -2.8233  -16.0640  -47.0358 H         1 UNK         0.0800 
    136 H136       -3.3499  -16.8004  -49.2358 H         1 UNK         0.1150 
    137 H137       -0.3704  -18.6358  -51.7090 H         1 UNK         0.1150 
    138 H138        0.7047  -17.0853  -47.8636 H         1 UNK         0.1150 
    139 H139        2.0881  -18.0987  -51.0016 H         1 UNK         0.0800 
    140 H140        2.4168  -18.0238  -49.2864 H         1 UNK         0.0800 
    141 H141        1.0595  -19.7211  -47.7072 H         1 UNK         0.0800 
    142 H142        2.5877  -20.5379  -47.7794 H         1 UNK         0.0800 
    143 H143        1.2601  -22.6432  -48.5755 H         1 UNK         0.0600 
    144 H144        0.6932  -22.0591  -45.7424 H         1 UNK         0.3000 
    145 H145        2.3603  -24.3804  -44.5751 H         1 UNK         0.0600 
    146 H146        4.4732  -23.5646  -43.4889 H         1 UNK         0.0600 
    147 H147        4.6666  -22.3679  -44.7688 H         1 UNK         0.0600 
    148 H148        4.7591  -24.0878  -45.1392 H         1 UNK         0.0600 
    149 H149        2.1532  -21.4372  -44.1692 H         1 UNK         0.3000 
    150 H150       -0.2414  -21.8974  -41.7197 H         1 UNK         0.0600 
    151 H151        1.6153  -22.2868  -40.0678 H         1 UNK         0.0600 
    152 H152        1.0087  -20.6412  -39.9984 H         1 UNK         0.0600 
    153 H153        2.5375  -20.9816  -40.8077 H         1 UNK         0.0600 
    154 H154        1.1284  -19.5060  -42.1901 H         1 UNK         0.3000 
    155 H155       -0.0828  -18.6812  -45.4389 H         1 UNK         0.0600 
    156 H156       -1.8593  -17.9367  -43.9624 H         1 UNK         0.0600 
    157 H157       -0.6614  -16.6491  -43.9785 H         1 UNK         0.0600 
    158 H158       -0.7642  -17.7498  -42.6071 H         1 UNK         0.0600 
    159 H159        1.6059  -17.1663  -43.8665 H         1 UNK         0.3000 
    160 H160        4.7738  -18.6416  -44.6948 H         1 UNK         0.0600 
    161 H161        3.2775  -16.0945  -45.4832 H         1 UNK         0.0600 
    162 H162        4.0707  -17.2110  -46.5856 H         1 UNK         0.0600 
    163 H163        5.0303  -16.2746  -45.4471 H         1 UNK         0.0600 
    164 H164        3.6715  -16.4566  -43.0522 H         1 UNK         0.3000 
    165 H165        4.1223  -18.2127  -39.9950 H         1 UNK         0.0600 
    166 H166        5.5096  -16.2495  -39.3817 H         1 UNK         0.0600 
    167 H167        6.4257  -17.3303  -40.4195 H         1 UNK         0.0600 
    168 H168        5.7472  -15.8486  -41.0833 H         1 UNK         0.0600 
    169 H169        3.3490  -15.5305  -40.5354 H         1 UNK         0.3000 
    170 H170       -0.0493  -16.0417  -41.3146 H         1 UNK         0.0600 
    171 H171        1.1506  -15.1207  -38.6530 H         1 UNK         0.0600 
    172 H172       -0.4622  -14.7412  -39.2604 H         1 UNK         0.0600 
    173 H173       -0.0483  -16.3954  -38.8405 H         1 UNK         0.0600 
    174 H174        1.2307  -13.6605  -40.7018 H         1 UNK         0.3000 
    175 H175        1.1889  -12.2271  -42.6302 H         1 UNK         0.0600 
    176 H176        4.1475  -12.9832  -42.3652 H         1 UNK         0.0600 
    177 H177        3.5581  -11.3291  -42.5302 H         1 UNK         0.0600 
    178 H178        3.1128  -12.2884  -41.1312 H         1 UNK         0.0600 
    179 H179        1.3234  -12.1670  -44.7970 H         1 UNK         0.3000 
    180 H180        3.7059  -12.1527  -47.1120 H         1 UNK         0.0600 
    181 H181        2.6535  -13.8825  -48.6050 H         1 UNK         0.0600 
    182 H182        2.0560  -14.7352  -47.1822 H         1 UNK         0.0600 
    183 H183        3.7868  -14.5859  -47.4660 H         1 UNK         0.0600 
    184 H184        0.8038  -12.5879  -47.2018 H         1 UNK         0.3000 
    185 H185       -0.0545   -9.2469  -46.5320 H         1 UNK         0.0600 
    186 H186        0.5108   -9.0422  -48.9569 H         1 UNK         0.0600 
    187 H187       -0.1602  -10.6395  -49.2639 H         1 UNK         0.0600 
    188 H188       -1.2079   -9.3237  -48.7313 H         1 UNK         0.0600 
    189 H189       -1.5320  -11.5407  -47.4337 H         1 UNK         0.3000 
    190 H190       -0.8371  -20.4245  -46.6304 H         1 UNK         0.3000 
    191 H191       -3.1860  -21.0152  -48.2271 H         1 UNK         0.0600 
    192 H192       -2.8820  -18.8126  -47.1416 H         1 UNK         0.0600 
    193 H193       -2.8572  -19.5650  -45.5465 H         1 UNK         0.0600 
    194 H194       -4.3214  -19.5967  -46.5214 H         1 UNK         0.0600 
    195 H195       -1.8318  -22.1297  -45.1336 H         1 UNK         0.3000 
    196 H196       -4.0661  -23.8076  -44.4052 H         1 UNK         0.0600 
    197 H197       -2.4163  -22.8774  -42.7646 H         1 UNK         0.0600 
    198 H198       -1.1472  -23.8636  -43.4918 H         1 UNK         0.0600 
    199 H199       -2.4993  -24.6314  -42.6719 H         1 UNK         0.0600 
    200 H200       -1.4070  -24.2168  -46.6355 H         1 UNK         0.3000 
    201 H201       -1.3153  -27.1164  -46.5802 H         1 UNK         0.0600 
    202 H202        0.6528  -25.7261  -47.2612 H         1 UNK         0.0600 
    203 H203       -0.2308  -25.1662  -48.6801 H         1 UNK         0.0600 
    204 H204        0.1810  -26.8635  -48.5140 H         1 UNK         0.0600 
    205 H205       -2.8996  -24.6250  -48.6220 H         1 UNK         0.3000 
    206 H206       -5.1132  -26.3387  -49.1708 H         1 UNK         0.0600 
    207 H207       -3.3249  -25.5430  -51.5474 H         1 UNK         0.0600 
    208 H208       -3.6503  -27.1897  -51.0153 H         1 UNK         0.0600 
    209 H209       -4.9452  -26.2125  -51.6849 H         1 UNK         0.0600 
    210 H210       -6.8873  -25.0190  -49.4302 H         1 UNK         0.3000 
    211 H211       -6.4959  -22.1437  -49.0865 H         1 UNK         0.0600 
    212 H212       -9.0314  -23.8651  -49.1575 H         1 UNK         0.0600 
    213 H213       -8.9369  -22.1872  -48.6355 H         1 UNK         0.0600 
    214 H214       -8.1217  -23.4336  -47.7083 H         1 UNK         0.0600 
    215 H215       -6.4842  -23.9436  -51.8245 H         1 UNK         0.3000 
    216 H216       -8.3727  -22.6307  -53.5474 H         1 UNK         0.0600 
    217 H217       -7.1964  -23.9672  -55.3054 H         1 UNK         0.0600 
    218 H218       -7.6318  -24.9571  -53.9220 H         1 UNK         0.0600 
    219 H219       -5.9630  -24.4310  -54.1392 H         1 UNK         0.0600 
    220 H220       -7.7216  -20.3904  -52.9112 H         1 UNK         0.3000 
    221 H221       -5.3371  -19.1415  -53.6285 H         1 UNK         0.0600 
    222 H222       -8.1695  -17.9750  -53.5706 H         1 UNK         0.0600 
    223 H223       -7.0646  -18.1004  -52.2004 H         1 UNK         0.0600 
    224 H224       -6.6814  -17.0341  -53.5423 H         1 UNK         0.0600 
    225 H225       -7.9889  -20.0239  -55.7622 H         1 UNK         0.3000 
    226 H226       -7.2175  -18.5303  -58.0755 H         1 UNK         0.0600 
    227 H227       -9.4692  -19.5425  -57.7961 H         1 UNK         0.0600 
    228 H228       -8.7050  -20.1604  -59.2512 H         1 UNK         0.0600 
    229 H229       -8.7704  -21.1627  -57.8066 H         1 UNK         0.0600 
    230 H230       -5.8762  -21.4118  -56.6072 H         1 UNK         0.3000 
    231 H231       -4.1579  -22.0066  -58.9719 H         1 UNK         0.0600 
    232 H232       -3.8090  -24.1843  -57.8729 H         1 UNK         0.0600 
    233 H233       -5.5333  -23.9065  -58.0512 H         1 UNK         0.0600 
    234 H234       -4.7618  -23.6889  -56.4807 H         1 UNK         0.0600 
    235 H235       -4.0931  -19.8851  -56.5943 H         1 UNK         0.3000 
    236 H236       -2.6503  -18.7509  -55.4145 H         1 UNK         0.0600 
    237 H237       -0.3696  -20.2219  -56.8259 H         1 UNK         0.0600 
    238 H238       -1.2137  -18.8127  -57.4689 H         1 UNK         0.0600 
    239 H239       -0.2765  -18.6798  -55.9908 H         1 UNK         0.0600 
    240 H240       -3.7361  -21.2344  -54.3487 H         1 UNK         0.3000 
    241 H241       -3.7773  -22.3362  -52.4657 H         1 UNK         0.0600 
    242 H242       -1.4513  -23.1382  -50.5849 H         1 UNK         0.3800 
    243 H243       -0.6432  -24.3333  -51.5594 H         1 UNK         0.3800 
    244 H244       -1.6079  -20.4847  -51.3861 H         1 UNK         0.0800 
    245 H245       -2.6148  -21.5053  -50.4293 H         1 UNK         0.0800 
    246 H246       -2.6007  -18.2089  -52.6011 H         1 UNK         0.0800 
    247 H247       -3.7739  -17.3132  -51.6722 H         1 UNK         0.0800 
@<TRIPOS>BOND
     1    1    2 1    
     2    1  127 1    
     3    1  128 1    
     4    1  129 1    
     5    2    3 2    
     6    2    4 am   BACKBONE|DICT|INTERRES
     7    4    5 1    
     8    4  130 1    
     9    5    6 1    
    10    5   65 1    
    11    5  131 1    
    12    6    7 1    
    13    6  132 1    
    14    6  133 1    
    15    7    8 1    
    16    8    9 1    
    17    8  134 1    
    18    8  135 1    
    19    9   10 ar   
    20    9   14 ar   
    21   10   11 ar   
    22   10  136 1    
    23   11   12 ar   
    24   11  126 1    
    25   12   13 ar   
    26   12  137 1    
    27   13   14 ar   
    28   13   15 1    
    29   14  138 1    
    30   15   16 1    
    31   15  139 1    
    32   15  140 1    
    33   16   17 1    
    34   17   18 1    
    35   17  141 1    
    36   17  142 1    
    37   18   19 1    
    38   18   67 1    
    39   18  143 1    
    40   19   20 am   BACKBONE|DICT|INTERRES
    41   19  144 1    
    42   20   21 2    
    43   20   22 1    
    44   22   23 1    
    45   22   24 1    
    46   22  145 1    
    47   23  146 1    
    48   23  147 1    
    49   23  148 1    
    50   24   25 am   BACKBONE|DICT|INTERRES
    51   24  149 1    
    52   25   26 2    
    53   25   27 1    
    54   27   28 1    
    55   27   29 1    
    56   27  150 1    
    57   28  151 1    
    58   28  152 1    
    59   28  153 1    
    60   29   30 am   BACKBONE|DICT|INTERRES
    61   29  154 1    
    62   30   31 2    
    63   30   32 1    
    64   32   33 1    
    65   32   34 1    
    66   32  155 1    
    67   33  156 1    
    68   33  157 1    
    69   33  158 1    
    70   34   35 am   BACKBONE|DICT|INTERRES
    71   34  159 1    
    72   35   36 2    
    73   35   37 1    
    74   37   38 1    
    75   37   39 1    
    76   37  160 1    
    77   38  161 1    
    78   38  162 1    
    79   38  163 1    
    80   39   40 am   BACKBONE|DICT|INTERRES
    81   39  164 1    
    82   40   41 2    
    83   40   42 1    
    84   42   43 1    
    85   42   44 1    
    86   42  165 1    
    87   43  166 1    
    88   43  167 1    
    89   43  168 1    
    90   44   45 am   BACKBONE|DICT|INTERRES
    91   44  169 1    
    92   45   46 2    
    93   45   47 1    
    94   47   48 1    
    95   47   49 1    
    96   47  170 1    
    97   48  171 1    
    98   48  172 1    
    99   48  173 1    
   100   49   50 am   BACKBONE|DICT|INTERRES
   101   49  174 1    
   102   50   51 2    
   103   50   52 1    
   104   52   53 1    
   105   52   54 1    
   106   52  175 1    
   107   53  176 1    
   108   53  177 1    
   109   53  178 1    
   110   54   55 am   BACKBONE|DICT|INTERRES
   111   54  179 1    
   112   55   56 2    
   113   55   57 1    
   114   57   58 1    
   115   57   59 1    
   116   57  180 1    
   117   58  181 1    
   118   58  182 1    
   119   58  183 1    
   120   59   60 am   BACKBONE|DICT|INTERRES
   121   59  184 1    
   122   60   61 2    
   123   60   62 1    
   124   62   63 1    
   125   62   64 1    
   126   62  185 1    
   127   63  186 1    
   128   63  187 1    
   129   63  188 1    
   130   64   65 am   BACKBONE|DICT|INTERRES
   131   64  189 1    
   132   65   66 2    
   133   67   68 2    
   134   67   69 am   BACKBONE|DICT|INTERRES
   135   69   70 1    
   136   69  190 1    
   137   70   71 1    
   138   70   72 1    
   139   70  191 1    
   140   71  192 1    
   141   71  193 1    
   142   71  194 1    
   143   72   73 2    
   144   72   74 am   BACKBONE|DICT|INTERRES
   145   74   75 1    
   146   74  195 1    
   147   75   76 1    
   148   75   77 1    
   149   75  196 1    
   150   76  197 1    
   151   76  198 1    
   152   76  199 1    
   153   77   78 2    
   154   77   79 am   BACKBONE|DICT|INTERRES
   155   79   80 1    
   156   79  200 1    
   157   80   81 1    
   158   80   82 1    
   159   80  201 1    
   160   81  202 1    
   161   81  203 1    
   162   81  204 1    
   163   82   83 2    
   164   82   84 am   BACKBONE|DICT|INTERRES
   165   84   85 1    
   166   84  205 1    
   167   85   86 1    
   168   85   87 1    
   169   85  206 1    
   170   86  207 1    
   171   86  208 1    
   172   86  209 1    
   173   87   88 2    
   174   87   89 am   BACKBONE|DICT|INTERRES
   175   89   90 1    
   176   89  210 1    
   177   90   91 1    
   178   90   92 1    
   179   90  211 1    
   180   91  212 1    
   181   91  213 1    
   182   91  214 1    
   183   92   93 2    
   184   92   94 am   BACKBONE|DICT|INTERRES
   185   94   95 1    
   186   94  215 1    
   187   95   96 1    
   188   95   97 1    
   189   95  216 1    
   190   96  217 1    
   191   96  218 1    
   192   96  219 1    
   193   97   98 2    
   194   97   99 am   BACKBONE|DICT|INTERRES
   195   99  100 1    
   196   99  220 1    
   197  100  101 1    
   198  100  102 1    
   199  100  221 1    
   200  101  222 1    
   201  101  223 1    
   202  101  224 1    
   203  102  103 2    
   204  102  104 am   BACKBONE|DICT|INTERRES
   205  104  105 1    
   206  104  225 1    
   207  105  106 1    
   208  105  107 1    
   209  105  226 1    
   210  106  227 1    
   211  106  228 1    
   212  106  229 1    
   213  107  108 2    
   214  107  109 am   BACKBONE|DICT|INTERRES
   215  109  110 1    
   216  109  230 1    
   217  110  111 1    
   218  110  112 1    
   219  110  231 1    
   220  111  232 1    
   221  111  233 1    
   222  111  234 1    
   223  112  113 2    
   224  112  114 am   BACKBONE|DICT|INTERRES
   225  114  115 1    
   226  114  235 1    
   227  115  116 1    
   228  115  117 1    
   229  115  236 1    
   230  116  237 1    
   231  116  238 1    
   232  116  239 1    
   233  117  118 2    
   234  117  119 am   BACKBONE|DICT|INTERRES
   235  119  120 1    
   236  119  240 1    
   237  120  121 1    
   238  120  124 1    
   239  120  241 1    
   240  121  122 am   BACKBONE|DICT|INTERRES
   241  121  123 2    
   242  122  242 1    
   243  122  243 1    
   244  124  125 1    
   245  124  244 1    
   246  124  245 1    
   247  125  126 1    
   248  126  246 1    
   249  126  247 1    
@<TRIPOS>SUBSTRUCTURE
     1 UNK         1 GROUP             0       ****    0 ROOT    
