@<TRIPOS>MOLECULE
3R540
247   249    1
SMALL
USER_CHARGES


@<TRIPOS>ATOM
      1 CA         -2.3213  -13.9063  -47.1609 C.3       0 UNK        -0.1800 
      2 C          -0.9623  -13.9773  -47.8402 C.2       0 UNK         0.5000 
      3 O          -0.3286  -15.0324  -47.8302 O.2       0 UNK        -0.5000 
      4 N          -0.5219  -12.8543  -48.4250 N.am      1 UNK        -0.5000 
      5 CA          0.7263  -12.6306  -49.1751 C.3       1 UNK         0.1400 
      6 C6          0.8594  -13.4960  -50.4553 C.3       23 UNK        -0.0398 
      7 S7         -0.3380  -13.0174  -51.7505 S.3       23 UNK        -0.2404 
      8 C8         -1.6096  -14.3184  -51.6464 C.3       23 UNK        -0.0205 
      9 C9         -1.0527  -15.7043  -51.9372 C.ar      23 UNK        -0.0193 
     10 C10        -0.6314  -16.0475  -53.2253 C.ar      23 UNK        -0.1150 
     11 C11        -0.0946  -17.3133  -53.4858 C.ar      23 UNK        -0.0193 
     12 C12         0.0022  -18.2441  -52.4457 C.ar      23 UNK        -0.1150 
     13 C13        -0.4324  -17.9150  -51.1583 C.ar      23 UNK        -0.0193 
     14 C14        -0.9575  -16.6458  -50.9110 C.ar      23 UNK        -0.1150 
     15 C15        -0.3535  -18.9273  -50.0307 C.3       23 UNK        -0.0205 
     16 S16         1.3115  -18.9979  -49.2950 S.3       23 UNK        -0.2404 
     17 C17         0.9242  -19.2599  -47.5292 C.3       23 UNK        -0.0398 
     18 CA          0.6300  -20.7372  -47.1600 C.3       11 UNK         0.1400 
     19 N           0.7940  -20.9932  -45.7277 N.am      11 UNK        -0.5000 
     20 C           0.6940  -22.1938  -45.1377 C.2       10 UNK         0.5000 
     21 O           0.5297  -23.2501  -45.7495 O.2       10 UNK        -0.5000 
     22 CA          0.7210  -22.2079  -43.5981 C.3       10 UNK         0.1400 
     23 CB          2.1605  -22.1188  -43.0708 C.3       10 UNK        -0.1800 
     24 N          -0.0914  -21.1374  -43.0148 N.am      10 UNK        -0.5000 
     25 C          -1.4206  -21.0340  -43.1647 C.2       9 UNK         0.5000 
     26 O          -2.1057  -21.8607  -43.7665 O.2       9 UNK        -0.5000 
     27 CA         -2.0956  -19.7780  -42.5861 C.3       9 UNK         0.1400 
     28 CB         -2.3143  -19.9246  -41.0731 C.3       9 UNK        -0.1800 
     29 N          -1.3434  -18.5540  -42.8632 N.am      9 UNK        -0.5000 
     30 C          -1.1184  -18.0577  -44.0884 C.2       8 UNK         0.5000 
     31 O          -1.5660  -18.5574  -45.1195 O.2       8 UNK        -0.5000 
     32 CA         -0.1864  -16.8360  -44.1870 C.3       8 UNK         0.1400 
     33 CB         -0.9344  -15.5379  -43.8560 C.3       8 UNK        -0.1800 
     34 N           0.9918  -16.9629  -43.3280 N.am      8 UNK        -0.5000 
     35 C           1.9199  -17.9218  -43.4616 C.2       7 UNK         0.5000 
     36 O           1.9095  -18.7627  -44.3587 O.2       7 UNK        -0.5000 
     37 CA          3.0172  -17.9839  -42.3892 C.3       7 UNK         0.1400 
     38 CB          4.1393  -16.9905  -42.7067 C.3       7 UNK        -0.1800 
     39 N           2.4812  -17.7201  -41.0554 N.am      7 UNK        -0.5000 
     40 C           1.7085  -18.5817  -40.3794 C.2       6 UNK         0.5000 
     41 O           1.3917  -19.6937  -40.8029 O.2       6 UNK        -0.5000 
     42 CA          1.1659  -18.1004  -39.0218 C.3       6 UNK         0.1400 
     43 CB          2.2212  -18.2781  -37.9199 C.3       6 UNK        -0.1800 
     44 N           0.7259  -16.7046  -39.0541 N.am      6 UNK        -0.5000 
     45 C          -0.3058  -16.2560  -39.7824 C.2       5 UNK         0.5000 
     46 O          -1.0042  -16.9771  -40.4926 O.2       5 UNK        -0.5000 
     47 CA         -0.5883  -14.7446  -39.7384 C.3       5 UNK         0.1400 
     48 CB         -1.5536  -14.4132  -38.5906 C.3       5 UNK        -0.1800 
     49 N           0.6131  -13.9153  -39.6148 N.am      5 UNK        -0.5000 
     50 C           1.6084  -13.8579  -40.5101 C.2       4 UNK         0.5000 
     51 O           1.6722  -14.5826  -41.5065 O.2       4 UNK        -0.5000 
     52 CA          2.7047  -12.8179  -40.2088 C.3       4 UNK         0.1400 
     53 CB          3.8203  -13.4143  -39.3268 C.3       4 UNK        -0.1800 
     54 N           3.2199  -12.1721  -41.4230 N.am      4 UNK        -0.5000 
     55 C           4.0704  -12.6579  -42.3371 C.2       3 UNK         0.5000 
     56 O           4.6947  -13.7144  -42.2312 O.2       3 UNK        -0.5000 
     57 CA          4.2942  -11.7820  -43.5819 C.3       3 UNK         0.1400 
     58 CB          5.6610  -11.0822  -43.5188 C.3       3 UNK        -0.1800 
     59 N           4.2249  -12.5931  -44.7959 N.am      3 UNK        -0.5000 
     60 C           3.0848  -13.0333  -45.3405 C.2       2 UNK         0.5000 
     61 O           1.9636  -12.7388  -44.9177 O.2       2 UNK        -0.5000 
     62 CA          3.2271  -13.9740  -46.5515 C.3       2 UNK         0.1400 
     63 CB          3.2236  -15.4415  -46.1000 C.3       2 UNK        -0.1800 
     64 N           2.1430  -13.7755  -47.5096 N.am      2 UNK        -0.5000 
     65 C           2.0039  -12.7131  -48.3089 C.2       1 UNK         0.5000 
     66 O           2.8381  -11.8090  -48.3815 O.2       1 UNK        -0.5000 
     67 C          -0.7665  -21.1737  -47.6421 C.2       11 UNK         0.5000 
     68 O          -0.8591  -21.9348  -48.6027 O.2       11 UNK        -0.5000 
     69 N          -1.8223  -20.7126  -46.9550 N.am      12 UNK        -0.5000 
     70 CA         -3.2157  -21.0389  -47.2566 C.3       12 UNK         0.1400 
     71 CB         -4.1528  -20.2609  -46.3222 C.3       12 UNK        -0.1800 
     72 C          -3.5106  -22.5458  -47.1920 C.2       12 UNK         0.5000 
     73 O          -4.1870  -23.0586  -48.0826 O.2       12 UNK        -0.5000 
     74 N          -2.9704  -23.2298  -46.1743 N.am      13 UNK        -0.5000 
     75 CA         -3.0546  -24.6807  -46.0106 C.3       13 UNK         0.1400 
     76 CB         -2.4743  -25.0829  -44.6464 C.3       13 UNK        -0.1800 
     77 C          -2.3621  -25.4458  -47.1530 C.2       13 UNK         0.5000 
     78 O          -2.9615  -26.3635  -47.7154 O.2       13 UNK        -0.5000 
     79 N          -1.1381  -25.0271  -47.5084 N.am      14 UNK        -0.5000 
     80 CA         -0.3660  -25.5730  -48.6291 C.3       14 UNK         0.1400 
     81 CB          1.0513  -24.9808  -48.6113 C.3       14 UNK        -0.1800 
     82 C          -1.0409  -25.3358  -49.9945 C.2       14 UNK         0.5000 
     83 O          -1.0031  -26.2138  -50.8565 O.2       14 UNK        -0.5000 
     84 N          -1.6858  -24.1730  -50.1419 N.am      15 UNK        -0.5000 
     85 CA         -2.4707  -23.7601  -51.3035 C.3       15 UNK         0.1400 
     86 CB         -2.4311  -22.2253  -51.3999 C.3       15 UNK        -0.1800 
     87 C          -3.9193  -24.2940  -51.3005 C.2       15 UNK         0.5000 
     88 O          -4.7382  -23.7808  -52.0617 O.2       15 UNK        -0.5000 
     89 N          -4.2229  -25.2974  -50.4619 N.am      16 UNK        -0.5000 
     90 CA         -5.4949  -26.0245  -50.3760 C.3       16 UNK         0.1400 
     91 CB         -5.7102  -26.8772  -51.6441 C.3       16 UNK        -0.1800 
     92 C          -6.6929  -25.1059  -50.0570 C.2       16 UNK         0.5000 
     93 O          -7.6744  -25.0770  -50.8016 O.2       16 UNK        -0.5000 
     94 N          -6.5623  -24.3625  -48.9508 N.am      17 UNK        -0.5000 
     95 CA         -7.4673  -23.3189  -48.4595 C.3       17 UNK         0.1400 
     96 CB         -8.8917  -23.8559  -48.2014 C.3       17 UNK        -0.1800 
     97 C          -7.4240  -22.0607  -49.3493 C.2       17 UNK         0.5000 
     98 O          -8.4652  -21.4741  -49.6494 O.2       17 UNK        -0.5000 
     99 N          -6.1973  -21.6693  -49.7267 N.am      18 UNK        -0.5000 
    100 CA        -5.8375  -20.4809  -50.5063 C.3       18 UNK         0.1400 
    101 CB        -6.0659  -19.2022  -49.6732 C.3       18 UNK        -0.1800 
    102 C         -6.5128  -20.4282  -51.8923 C.2       18 UNK         0.5000 
    103 O         -7.1294  -19.4197  -52.2447 O.2       18 UNK        -0.5000 
    104 N         -6.3840  -21.5182  -52.6601 N.am      19 UNK        -0.5000 
    105 CA        -6.8254  -21.5967  -54.0519 C.3       19 UNK         0.1400 
    106 CB        -6.7638  -23.0595  -54.5189 C.3       19 UNK        -0.1800 
    107 C         -5.9622  -20.7072  -54.9669 C.2       19 UNK         0.5000 
    108 O         -4.7769  -20.5023  -54.6914 O.2       19 UNK        -0.5000 
    109 N         -6.5600  -20.2351  -56.0691 N.am      20 UNK        -0.5000 
    110 CA        -5.9397  -19.3417  -57.0570 C.3       20 UNK         0.1400 
    111 CB        -7.0121  -18.8970  -58.0638 C.3       20 UNK        -0.1800 
    112 C         -4.7233  -19.9409  -57.7946 C.2       20 UNK         0.5000 
    113 O         -3.9218  -19.1902  -58.3515 O.2       20 UNK        -0.5000 
    114 N         -4.6000  -21.2744  -57.7740 N.am      21 UNK        -0.5000 
    115 CA        -3.4517  -22.0234  -58.2828 C.3       21 UNK         0.1400 
    116 CB        -3.8649  -23.4949  -58.4465 C.3       21 UNK        -0.1800 
    117 C         -2.1953  -21.9130  -57.3913 C.2       21 UNK         0.5000 
    118 O         -1.1093  -22.2600  -57.8588 O.2       21 UNK        -0.5000 
    119 N         -2.3565  -21.4491  -56.1418 N.am      22 UNK        -0.5000 
    120 CA        -1.3170  -21.3546  -55.1016 C.3       22 UNK         0.1400 
    121 C         -0.8007  -22.7509  -54.6256 C.2       22 UNK         0.5000 
    122 N          0.2755  -22.8134  -53.8509 N.am      22 UNK        -0.7600 
    123 O         -1.3919  -23.7916  -54.9060 O.2       22 UNK        -0.5000 
    124 C124       -0.1715  -20.3666  -55.4743 C.3       23 UNK        -0.0398 
    125 S125       -0.7655  -18.6730  -55.8246 S.3       23 UNK        -0.2404 
    126 C126        0.4124  -17.6505  -54.8816 C.3       23 UNK        -0.0205 
    127 H127       -2.8346  -14.8653  -47.2364 H         1 UNK         0.0600 
    128 H128       -2.9558  -13.1471  -47.6189 H         1 UNK         0.0600 
    129 H129       -2.2004  -13.6622  -46.1059 H         1 UNK         0.0600 
    130 H130       -1.1044  -12.0318  -48.3540 H         1 UNK         0.3000 
    131 H131        0.6706  -11.5897  -49.4988 H         1 UNK         0.0600 
    132 H132        1.8498  -13.3698  -50.8966 H         1 UNK         0.0800 
    133 H133        0.7783  -14.5571  -50.2217 H         1 UNK         0.0800 
    134 H134       -2.0765  -14.2844  -50.6613 H         1 UNK         0.0800 
    135 H135       -2.3998  -14.0955  -52.3645 H         1 UNK         0.0800 
    136 H136       -0.7039  -15.3181  -54.0199 H         1 UNK         0.1150 
    137 H137        0.4207  -19.2222  -52.6305 H         1 UNK         0.1150 
    138 H138       -1.2853  -16.3889  -49.9136 H         1 UNK         0.1150 
    139 H139       -1.0949  -18.6821  -49.2687 H         1 UNK         0.0800 
    140 H140       -0.6189  -19.9145  -50.4084 H         1 UNK         0.0800 
    141 H141        0.1189  -18.5916  -47.2204 H         1 UNK         0.0800 
    142 H142        1.8047  -18.9213  -46.9825 H         1 UNK         0.0800 
    143 H143        1.3637  -21.3658  -47.6692 H         1 UNK         0.0600 
    144 H144        0.9863  -20.1817  -45.1452 H         1 UNK         0.3000 
    145 H145        0.2997  -23.1601  -43.2690 H         1 UNK         0.0600 
    146 H146        2.1870  -22.1944  -41.9836 H         1 UNK         0.0600 
    147 H147        2.7719  -22.9295  -43.4688 H         1 UNK         0.0600 
    148 H148        2.6374  -21.1801  -43.3520 H         1 UNK         0.0600 
    149 H149        0.3979  -20.4396  -42.4650 H         1 UNK         0.3000 
    150 H150       -3.0742  -19.6801  -43.0602 H         1 UNK         0.0600 
    151 H151       -2.8776  -20.8303  -40.8451 H         1 UNK         0.0600 
    152 H152       -2.8790  -19.0817  -40.6743 H         1 UNK         0.0600 
    153 H153       -1.3693  -19.9791  -40.5320 H         1 UNK         0.0600 
    154 H154       -0.9895  -18.0485  -42.0552 H         1 UNK         0.3000 
    155 H155        0.1578  -16.7700  -45.2212 H         1 UNK         0.0600 
    156 H156       -1.2817  -15.5247  -42.8237 H         1 UNK         0.0600 
    157 H157       -0.2971  -14.6662  -44.0092 H         1 UNK         0.0600 
    158 H158       -1.8093  -15.4222  -44.4959 H         1 UNK         0.0600 
    159 H159        1.0986  -16.2792  -42.5860 H         1 UNK         0.3000 
    160 H160        3.4441  -18.9890  -42.3945 H         1 UNK         0.0600 
    161 H161        4.8925  -16.9682  -41.9191 H         1 UNK         0.0600 
    162 H162        3.7462  -15.9821  -42.8287 H         1 UNK         0.0600 
    163 H163        4.6439  -17.2599  -43.6350 H         1 UNK         0.0600 
    164 H164        2.6462  -16.8011  -40.6709 H         1 UNK         0.3000 
    165 H165        0.3029  -18.7210  -38.7711 H         1 UNK         0.0600 
    166 H166        1.8171  -18.0171  -36.9417 H         1 UNK         0.0600 
    167 H167        2.5571  -19.3145  -37.8656 H         1 UNK         0.0600 
    168 H168        3.0999  -17.6568  -38.0973 H         1 UNK         0.0600 
    169 H169        1.2493  -16.0430  -38.5002 H         1 UNK         0.3000 
    170 H170       -1.0761  -14.4758  -40.6770 H         1 UNK         0.0600 
    171 H171       -1.1100  -14.6247  -37.6168 H         1 UNK         0.0600 
    172 H172       -1.8421  -13.3620  -38.6080 H         1 UNK         0.0600 
    173 H173       -2.4695  -15.0007  -38.6687 H         1 UNK         0.0600 
    174 H174        0.6441  -13.2995  -38.8149 H         1 UNK         0.3000 
    175 H175        2.2415  -12.0100  -39.6401 H         1 UNK         0.0600 
    176 H176        4.6234  -12.6958  -39.1629 H         1 UNK         0.0600 
    177 H177        4.2549  -14.3130  -39.7652 H         1 UNK         0.0600 
    178 H178        3.4303  -13.6942  -38.3477 H         1 UNK         0.0600 
    179 H179        2.7755  -11.2904  -41.6376 H         1 UNK         0.3000 
    180 H180        3.5197  -11.0132  -43.6283 H         1 UNK         0.0600 
    181 H181        6.4812  -11.8004  -43.4829 H         1 UNK         0.0600 
    182 H182        5.7360  -10.4542  -42.6301 H         1 UNK         0.0600 
    183 H183        5.8154  -10.4388  -44.3852 H         1 UNK         0.0600 
    184 H184        5.1065  -12.9141  -45.1683 H         1 UNK         0.3000 
    185 H185        4.1737  -13.7666  -47.0550 H         1 UNK         0.0600 
    186 H186        4.0521  -15.6413  -45.4204 H         1 UNK         0.0600 
    187 H187        2.3007  -15.6937  -45.5789 H         1 UNK         0.0600 
    188 H188        3.3256  -16.1196  -46.9475 H         1 UNK         0.0600 
    189 H189        1.3738  -14.4408  -47.4848 H         1 UNK         0.3000 
    190 H190       -1.6681  -20.0615  -46.1877 H         1 UNK         0.3000 
    191 H191       -3.4109  -20.7105  -48.2790 H         1 UNK         0.0600 
    192 H192       -4.0196  -19.1851  -46.4380 H         1 UNK         0.0600 
    193 H193       -5.1978  -20.4853  -46.5398 H         1 UNK         0.0600 
    194 H194       -3.9751  -20.5087  -45.2758 H         1 UNK         0.0600 
    195 H195       -2.4687  -22.7181  -45.4531 H         1 UNK         0.3000 
    196 H196       -4.1116  -24.9543  -46.0218 H         1 UNK         0.0600 
    197 H197       -2.5374  -26.1613  -44.4968 H         1 UNK         0.0600 
    198 H198       -3.0215  -24.6084  -43.8317 H         1 UNK         0.0600 
    199 H199       -1.4261  -24.7979  -44.5532 H         1 UNK         0.0600 
    200 H200       -0.7057  -24.2709  -46.9859 H         1 UNK         0.3000 
    201 H201       -0.2853  -26.6521  -48.4832 H         1 UNK         0.0600 
    202 H202        1.5619  -25.2097  -47.6758 H         1 UNK         0.0600 
    203 H203        1.0367  -23.8965  -48.7261 H         1 UNK         0.0600 
    204 H204        1.6562  -25.3893  -49.4216 H         1 UNK         0.0600 
    205 H205       -1.5995  -23.4837  -49.3990 H         1 UNK         0.3000 
    206 H206       -1.9997  -24.1627  -52.2013 H         1 UNK         0.0600 
    207 H207       -1.4082  -21.8734  -51.5294 H         1 UNK         0.0600 
    208 H208       -3.0080  -21.8569  -52.2490 H         1 UNK         0.0600 
    209 H209       -2.8294  -21.7626  -50.4981 H         1 UNK         0.0600 
    210 H210       -3.5017  -25.6111  -49.8251 H         1 UNK         0.3000 
    211 H211       -5.3995  -26.7101  -49.5326 H         1 UNK         0.0600 
    212 H212       -5.8355  -26.2585  -52.5335 H         1 UNK         0.0600 
    213 H213       -6.6016  -27.4984  -51.5498 H         1 UNK         0.0600 
    214 H214       -4.8663  -27.5451  -51.8170 H         1 UNK         0.0600 
    215 H215       -5.6639  -24.3888  -48.4798 H         1 UNK         0.3000 
    216 H216       -7.0644  -23.0115  -47.4933 H         1 UNK         0.0600 
    217 H217       -9.4945  -23.1141  -47.6764 H         1 UNK         0.0600 
    218 H218       -8.8695  -24.7526  -47.5822 H         1 UNK         0.0600 
    219 H219       -9.4139  -24.0979  -49.1270 H         1 UNK         0.0600 
    220 H220       -5.4217  -22.2438  -49.4127 H         1 UNK         0.3000 
    221 H221       -4.7680  -20.5484  -50.7002 H         1 UNK         0.0600 
    222 H222       -7.1216  -19.0477  -49.4487 H         1 UNK         0.0600 
    223 H223       -5.5255  -19.2427  -48.7287 H         1 UNK         0.0600 
    224 H224       -5.7123  -18.3196  -50.2077 H         1 UNK         0.0600 
    225 H225       -5.8392  -22.3092  -52.3225 H         1 UNK         0.3000 
    226 H226       -7.8620  -21.2571  -54.1007 H         1 UNK         0.0600 
    227 H227       -7.3305  -23.7112  -53.8530 H         1 UNK         0.0600 
    228 H228       -7.1837  -23.1705  -55.5191 H         1 UNK         0.0600 
    229 H229       -5.7377  -23.4285  -54.5517 H         1 UNK         0.0600 
    230 H230       -7.5294  -20.4674  -56.2321 H         1 UNK         0.3000 
    231 H231       -5.5847  -18.4577  -56.5233 H         1 UNK         0.0600 
    232 H232       -7.4255  -19.7451  -58.6110 H         1 UNK         0.0600 
    233 H233       -6.5979  -18.2038  -58.7972 H         1 UNK         0.0600 
    234 H234       -7.8347  -18.3843  -57.5648 H         1 UNK         0.0600 
    235 H235       -5.3135  -21.8079  -57.3008 H         1 UNK         0.3000 
    236 H236       -3.1908  -21.6293  -59.2672 H         1 UNK         0.0600 
    237 H237       -4.7136  -23.5950  -59.1233 H         1 UNK         0.0600 
    238 H238       -3.0481  -24.0867  -58.8620 H         1 UNK         0.0600 
    239 H239       -4.1403  -23.9429  -57.4907 H         1 UNK         0.0600 
    240 H240       -3.2864  -21.1835  -55.8354 H         1 UNK         0.3000 
    241 H241       -1.8308  -20.9413  -54.2334 H         1 UNK         0.0600 
    242 H242        0.7888  -21.9945  -53.5704 H         1 UNK         0.3800 
    243 H243        0.5913  -23.7194  -53.5426 H         1 UNK         0.3800 
    244 H244        0.5596  -20.3123  -54.6695 H         1 UNK         0.0800 
    245 H245        0.3798  -20.7238  -56.3446 H         1 UNK         0.0800 
    246 H246        0.5856  -16.7309  -55.4427 H         1 UNK         0.0800 
    247 H247        1.3843  -18.1419  -54.8198 H         1 UNK         0.0800 
@<TRIPOS>BOND
     1    1    2 1    
     2    1  127 1    
     3    1  128 1    
     4    1  129 1    
     5    2    3 2    
     6    2    4 am   BACKBONE|DICT|INTERRES
     7    4    5 1    
     8    4  130 1    
     9    5    6 1    
    10    5   65 1    
    11    5  131 1    
    12    6    7 1    
    13    6  132 1    
    14    6  133 1    
    15    7    8 1    
    16    8    9 1    
    17    8  134 1    
    18    8  135 1    
    19    9   10 ar   
    20    9   14 ar   
    21   10   11 ar   
    22   10  136 1    
    23   11   12 ar   
    24   11  126 1    
    25   12   13 ar   
    26   12  137 1    
    27   13   14 ar   
    28   13   15 1    
    29   14  138 1    
    30   15   16 1    
    31   15  139 1    
    32   15  140 1    
    33   16   17 1    
    34   17   18 1    
    35   17  141 1    
    36   17  142 1    
    37   18   19 1    
    38   18   67 1    
    39   18  143 1    
    40   19   20 am   BACKBONE|DICT|INTERRES
    41   19  144 1    
    42   20   21 2    
    43   20   22 1    
    44   22   23 1    
    45   22   24 1    
    46   22  145 1    
    47   23  146 1    
    48   23  147 1    
    49   23  148 1    
    50   24   25 am   BACKBONE|DICT|INTERRES
    51   24  149 1    
    52   25   26 2    
    53   25   27 1    
    54   27   28 1    
    55   27   29 1    
    56   27  150 1    
    57   28  151 1    
    58   28  152 1    
    59   28  153 1    
    60   29   30 am   BACKBONE|DICT|INTERRES
    61   29  154 1    
    62   30   31 2    
    63   30   32 1    
    64   32   33 1    
    65   32   34 1    
    66   32  155 1    
    67   33  156 1    
    68   33  157 1    
    69   33  158 1    
    70   34   35 am   BACKBONE|DICT|INTERRES
    71   34  159 1    
    72   35   36 2    
    73   35   37 1    
    74   37   38 1    
    75   37   39 1    
    76   37  160 1    
    77   38  161 1    
    78   38  162 1    
    79   38  163 1    
    80   39   40 am   BACKBONE|DICT|INTERRES
    81   39  164 1    
    82   40   41 2    
    83   40   42 1    
    84   42   43 1    
    85   42   44 1    
    86   42  165 1    
    87   43  166 1    
    88   43  167 1    
    89   43  168 1    
    90   44   45 am   BACKBONE|DICT|INTERRES
    91   44  169 1    
    92   45   46 2    
    93   45   47 1    
    94   47   48 1    
    95   47   49 1    
    96   47  170 1    
    97   48  171 1    
    98   48  172 1    
    99   48  173 1    
   100   49   50 am   BACKBONE|DICT|INTERRES
   101   49  174 1    
   102   50   51 2    
   103   50   52 1    
   104   52   53 1    
   105   52   54 1    
   106   52  175 1    
   107   53  176 1    
   108   53  177 1    
   109   53  178 1    
   110   54   55 am   BACKBONE|DICT|INTERRES
   111   54  179 1    
   112   55   56 2    
   113   55   57 1    
   114   57   58 1    
   115   57   59 1    
   116   57  180 1    
   117   58  181 1    
   118   58  182 1    
   119   58  183 1    
   120   59   60 am   BACKBONE|DICT|INTERRES
   121   59  184 1    
   122   60   61 2    
   123   60   62 1    
   124   62   63 1    
   125   62   64 1    
   126   62  185 1    
   127   63  186 1    
   128   63  187 1    
   129   63  188 1    
   130   64   65 am   BACKBONE|DICT|INTERRES
   131   64  189 1    
   132   65   66 2    
   133   67   68 2    
   134   67   69 am   BACKBONE|DICT|INTERRES
   135   69   70 1    
   136   69  190 1    
   137   70   71 1    
   138   70   72 1    
   139   70  191 1    
   140   71  192 1    
   141   71  193 1    
   142   71  194 1    
   143   72   73 2    
   144   72   74 am   BACKBONE|DICT|INTERRES
   145   74   75 1    
   146   74  195 1    
   147   75   76 1    
   148   75   77 1    
   149   75  196 1    
   150   76  197 1    
   151   76  198 1    
   152   76  199 1    
   153   77   78 2    
   154   77   79 am   BACKBONE|DICT|INTERRES
   155   79   80 1    
   156   79  200 1    
   157   80   81 1    
   158   80   82 1    
   159   80  201 1    
   160   81  202 1    
   161   81  203 1    
   162   81  204 1    
   163   82   83 2    
   164   82   84 am   BACKBONE|DICT|INTERRES
   165   84   85 1    
   166   84  205 1    
   167   85   86 1    
   168   85   87 1    
   169   85  206 1    
   170   86  207 1    
   171   86  208 1    
   172   86  209 1    
   173   87   88 2    
   174   87   89 am   BACKBONE|DICT|INTERRES
   175   89   90 1    
   176   89  210 1    
   177   90   91 1    
   178   90   92 1    
   179   90  211 1    
   180   91  212 1    
   181   91  213 1    
   182   91  214 1    
   183   92   93 2    
   184   92   94 am   BACKBONE|DICT|INTERRES
   185   94   95 1    
   186   94  215 1    
   187   95   96 1    
   188   95   97 1    
   189   95  216 1    
   190   96  217 1    
   191   96  218 1    
   192   96  219 1    
   193   97   98 2    
   194   97   99 am   BACKBONE|DICT|INTERRES
   195   99  100 1    
   196   99  220 1    
   197  100  101 1    
   198  100  102 1    
   199  100  221 1    
   200  101  222 1    
   201  101  223 1    
   202  101  224 1    
   203  102  103 2    
   204  102  104 am   BACKBONE|DICT|INTERRES
   205  104  105 1    
   206  104  225 1    
   207  105  106 1    
   208  105  107 1    
   209  105  226 1    
   210  106  227 1    
   211  106  228 1    
   212  106  229 1    
   213  107  108 2    
   214  107  109 am   BACKBONE|DICT|INTERRES
   215  109  110 1    
   216  109  230 1    
   217  110  111 1    
   218  110  112 1    
   219  110  231 1    
   220  111  232 1    
   221  111  233 1    
   222  111  234 1    
   223  112  113 2    
   224  112  114 am   BACKBONE|DICT|INTERRES
   225  114  115 1    
   226  114  235 1    
   227  115  116 1    
   228  115  117 1    
   229  115  236 1    
   230  116  237 1    
   231  116  238 1    
   232  116  239 1    
   233  117  118 2    
   234  117  119 am   BACKBONE|DICT|INTERRES
   235  119  120 1    
   236  119  240 1    
   237  120  121 1    
   238  120  124 1    
   239  120  241 1    
   240  121  122 am   BACKBONE|DICT|INTERRES
   241  121  123 2    
   242  122  242 1    
   243  122  243 1    
   244  124  125 1    
   245  124  244 1    
   246  124  245 1    
   247  125  126 1    
   248  126  246 1    
   249  126  247 1    
@<TRIPOS>SUBSTRUCTURE
     1 UNK         1 GROUP             0       ****    0 ROOT    
