@<TRIPOS>MOLECULE
3R540
247   249    1
SMALL
USER_CHARGES


@<TRIPOS>ATOM
      1 CA         -3.0073   -9.6414  -51.5956 C.3       0 UNK        -0.1800 
      2 C          -2.4240  -10.5993  -50.5661 C.2       0 UNK         0.5000 
      3 O          -1.2027  -10.7131  -50.4585 O.2       0 UNK        -0.5000 
      4 N          -3.2905  -11.2920  -49.8169 N.am      1 UNK        -0.5000 
      5 CA         -2.9172  -12.2064  -48.7351 C.3       1 UNK         0.1400 
      6 C6         -4.1099  -13.1123  -48.3398 C.3       23 UNK        -0.0398 
      7 S7         -3.6711  -14.4357  -47.1575 S.3       23 UNK        -0.2404 
      8 C8         -5.1603  -15.4765  -47.2136 C.3       23 UNK        -0.0205 
      9 C9         -5.0372  -16.5652  -48.2666 C.ar      23 UNK        -0.0193 
     10 C10        -5.4365  -16.3284  -49.5849 C.ar      23 UNK        -0.1150 
     11 C11        -5.3097  -17.3273  -50.5536 C.ar      23 UNK        -0.0193 
     12 C12        -4.8101  -18.5807  -50.1890 C.ar      23 UNK        -0.1150 
     13 C13        -4.4216  -18.8338  -48.8702 C.ar      23 UNK        -0.0193 
     14 C14        -4.5247  -17.8175  -47.9168 C.ar      23 UNK        -0.1150 
     15 C15        -3.8719  -20.1976  -48.4868 C.3       23 UNK        -0.0205 
     16 S16        -5.1059  -21.2101  -47.6156 S.3       23 UNK        -0.2404 
     17 C17        -4.5753  -21.0221  -45.8785 C.3       23 UNK        -0.0398 
     18 CA         -3.5222  -22.0636  -45.4134 C.3       11 UNK         0.1400 
     19 N          -2.9435  -21.6640  -44.1223 N.am      11 UNK        -0.5000 
     20 C          -2.1202  -22.3721  -43.3337 C.2       10 UNK         0.5000 
     21 O          -1.7789  -23.5332  -43.5572 O.2       10 UNK        -0.5000 
     22 CA         -1.5957  -21.6392  -42.0892 C.3       10 UNK         0.1400 
     23 CB         -0.5290  -22.4371  -41.3171 C.3       10 UNK        -0.1800 
     24 N          -1.0315  -20.3591  -42.5023 N.am      10 UNK        -0.5000 
     25 C          -1.3305  -19.1696  -41.9689 C.2       9 UNK         0.5000 
     26 O          -2.1218  -19.0152  -41.0382 O.2       9 UNK        -0.5000 
     27 CA         -0.6337  -17.9377  -42.5758 C.3       9 UNK         0.1400 
     28 CB          0.6511  -17.6220  -41.7938 C.3       9 UNK        -0.1800 
     29 N          -0.3126  -18.0730  -43.9994 N.am      9 UNK        -0.5000 
     30 C          -1.2205  -18.1509  -44.9852 C.2       8 UNK         0.5000 
     31 O          -2.4347  -18.2102  -44.7922 O.2       8 UNK        -0.5000 
     32 CA         -0.6854  -18.1709  -46.4252 C.3       8 UNK         0.1400 
     33 CB         -0.2656  -16.7587  -46.8596 C.3       8 UNK        -0.1800 
     34 N           0.4610  -19.0662  -46.5445 N.am      8 UNK        -0.5000 
     35 C           0.4434  -20.2755  -47.1218 C.2       7 UNK         0.5000 
     36 O          -0.5351  -20.7690  -47.6840 O.2       7 UNK        -0.5000 
     37 CA          1.7582  -21.0759  -47.0708 C.3       7 UNK         0.1400 
     38 CB          2.6094  -20.7687  -48.3130 C.3       7 UNK        -0.1800 
     39 N           2.5626  -20.8316  -45.8728 N.am      7 UNK        -0.5000 
     40 C           2.1517  -20.9930  -44.6066 C.2       6 UNK         0.5000 
     41 O           1.0388  -21.4101  -44.2922 O.2       6 UNK        -0.5000 
     42 CA          3.1280  -20.5495  -43.5021 C.3       6 UNK         0.1400 
     43 CB          3.9629  -21.7439  -43.0183 C.3       6 UNK        -0.1800 
     44 N           4.0269  -19.4573  -43.8959 N.am      6 UNK        -0.5000 
     45 C           3.6494  -18.2527  -44.3466 C.2       5 UNK         0.5000 
     46 O           2.4739  -17.9185  -44.5319 O.2       5 UNK        -0.5000 
     47 CA          4.7803  -17.2819  -44.7012 C.3       5 UNK         0.1400 
     48 CB          5.3367  -17.5843  -46.1038 C.3       5 UNK        -0.1800 
     49 N           4.2587  -15.9224  -44.6614 N.am      5 UNK        -0.5000 
     50 C           4.9756  -14.8189  -44.4234 C.2       4 UNK         0.5000 
     51 O           6.1912  -14.8248  -44.2236 O.2       4 UNK        -0.5000 
     52 CA          4.2159  -13.4794  -44.4105 C.3       4 UNK         0.1400 
     53 CB          4.4013  -12.7443  -45.7472 C.3       4 UNK        -0.1800 
     54 N           2.7829  -13.6321  -44.1598 N.am      4 UNK        -0.5000 
     55 C           2.2178  -13.8321  -42.9637 C.2       3 UNK         0.5000 
     56 O           2.8642  -13.9354  -41.9201 O.2       3 UNK        -0.5000 
     57 CA          0.6723  -13.9013  -42.9389 C.3       3 UNK         0.1400 
     58 CB          0.0978  -13.8956  -41.5104 C.3       3 UNK        -0.1800 
     59 N           0.0452  -12.8158  -43.7014 N.am      3 UNK        -0.5000 
     60 C          -0.0625  -12.7746  -45.0336 C.2       2 UNK         0.5000 
     61 O           0.3877  -13.6508  -45.7776 O.2       2 UNK        -0.5000 
     62 CA         -0.7395  -11.5421  -45.6434 C.3       2 UNK         0.1400 
     63 CB          0.2749  -10.4093  -45.8757 C.3       2 UNK        -0.1800 
     64 N          -1.3176  -11.9651  -46.9092 N.am      2 UNK        -0.5000 
     65 C          -2.3701  -11.4217  -47.5225 C.2       1 UNK         0.5000 
     66 O          -2.9282  -10.3858  -47.1508 O.2       1 UNK        -0.5000 
     67 C          -4.0905  -23.5022  -45.4346 C.2       11 UNK         0.5000 
     68 O          -3.7928  -24.2592  -46.3598 O.2       11 UNK        -0.5000 
     69 N          -4.8614  -23.8647  -44.3994 N.am      12 UNK        -0.5000 
     70 CA         -5.4819  -25.1833  -44.2559 C.3       12 UNK         0.1400 
     71 CB         -6.5092  -25.1372  -43.1149 C.3       12 UNK        -0.1800 
     72 C          -4.4669  -26.3193  -44.0247 C.2       12 UNK         0.5000 
     73 O          -4.6455  -27.4092  -44.5688 O.2       12 UNK        -0.5000 
     74 N          -3.4151  -26.0441  -43.2415 N.am      13 UNK        -0.5000 
     75 CA         -2.3345  -26.9886  -42.9471 C.3       13 UNK         0.1400 
     76 CB         -1.5996  -26.5438  -41.6738 C.3       13 UNK        -0.1800 
     77 C          -1.3515  -27.1182  -44.1233 C.2       13 UNK         0.5000 
     78 O          -0.8494  -28.2115  -44.3847 O.2       13 UNK        -0.5000 
     79 N          -1.1223  -26.0027  -44.8276 N.am      14 UNK        -0.5000 
     80 CA         -0.2890  -25.9065  -46.0253 C.3       14 UNK         0.1400 
     81 CB          0.0622  -24.4293  -46.2549 C.3       14 UNK        -0.1800 
     82 C          -0.9412  -26.5042  -47.2891 C.2       14 UNK         0.5000 
     83 O          -0.2690  -26.5975  -48.3160 O.2       14 UNK        -0.5000 
     84 N          -2.2288  -26.8716  -47.2042 N.am      15 UNK        -0.5000 
     85 CA         -3.0777  -27.3982  -48.2775 C.3       15 UNK         0.1400 
     86 CB         -2.5723  -28.7728  -48.7639 C.3       15 UNK        -0.1800 
     87 C          -3.2772  -26.3778  -49.4175 C.2       15 UNK         0.5000 
     88 O          -3.2225  -26.7359  -50.5954 O.2       15 UNK        -0.5000 
     89 N          -3.5100  -25.1183  -49.0232 N.am      16 UNK        -0.5000 
     90 CA         -3.7719  -23.9497  -49.8626 C.3       16 UNK         0.1400 
     91 CB         -5.1236  -24.0858  -50.5925 C.3       16 UNK        -0.1800 
     92 C          -2.6055  -23.5769  -50.7967 C.2       16 UNK         0.5000 
     93 O          -2.8349  -23.1792  -51.9381 O.2       16 UNK        -0.5000 
     94 N          -1.3691  -23.6844  -50.2907 N.am      17 UNK        -0.5000 
     95 CA         -0.1314  -23.4210  -51.0322 C.3       17 UNK         0.1400 
     96 CB          1.0720  -23.6950  -50.1202 C.3       17 UNK        -0.1800 
     97 C          -0.0405  -22.0095  -51.6488 C.2       17 UNK         0.5000 
     98 O           0.4402  -21.8732  -52.7747 O.2       17 UNK        -0.5000 
     99 N          -0.5369  -20.9912  -50.9301 N.am      18 UNK        -0.5000 
    100 CA        -0.5796  -19.6048  -51.4051 C.3       18 UNK         0.1400 
    101 CB        -0.7674  -18.6488  -50.2189 C.3       18 UNK        -0.1800 
    102 C         -1.6334  -19.3346  -52.4978 C.2       18 UNK         0.5000 
    103 O         -1.5537  -18.2895  -53.1433 O.2       18 UNK        -0.5000 
    104 N         -2.5752  -20.2627  -52.7399 N.am      19 UNK        -0.5000 
    105 CA        -3.6111  -20.1153  -53.7717 C.3       19 UNK         0.1400 
    106 CB        -4.6605  -21.2268  -53.6408 C.3       19 UNK        -0.1800 
    107 C         -3.0507  -20.0555  -55.2067 C.2       19 UNK         0.5000 
    108 O         -3.6963  -19.4834  -56.0858 O.2       19 UNK        -0.5000 
    109 N         -1.8352  -20.5855  -55.4045 N.am      20 UNK        -0.5000 
    110 CA        -1.0533  -20.4570  -56.6337 C.3       20 UNK         0.1400 
    111 CB         0.1849  -21.3602  -56.5311 C.3       20 UNK        -0.1800 
    112 C         -0.6385  -19.0031  -56.9448 C.2       20 UNK         0.5000 
    113 O         -0.4799  -18.6655  -58.1185 O.2       20 UNK        -0.5000 
    114 N         -0.4846  -18.1688  -55.9051 N.am      21 UNK        -0.5000 
    115 CA        -0.2344  -16.7335  -56.0352 C.3       21 UNK         0.1400 
    116 CB         0.5510  -16.2299  -54.8138 C.3       21 UNK        -0.1800 
    117 C         -1.5471  -15.9480  -56.2057 C.2       21 UNK         0.5000 
    118 O         -1.5613  -14.9566  -56.9367 O.2       21 UNK        -0.5000 
    119 N         -2.6216  -16.4025  -55.5437 N.am      22 UNK        -0.5000 
    120 CA        -3.9777  -15.8392  -55.6676 C.3       22 UNK         0.1400 
    121 C         -4.5910  -16.0246  -57.0838 C.2       22 UNK         0.5000 
    122 N         -4.4529  -17.1946  -57.6959 N.am      22 UNK        -0.7600 
    123 O         -5.1953  -15.1040  -57.6271 O.2       22 UNK        -0.5000 
    124 C124       -4.9603  -16.3897  -54.6023 C.3       23 UNK        -0.0398 
    125 S125       -4.3587  -16.2206  -52.8909 S.3       23 UNK        -0.2404 
    126 C126       -5.7064  -17.0504  -51.9937 C.3       23 UNK        -0.0205 
    127 H127       -4.0975   -9.6502  -51.5867 H         1 UNK         0.0600 
    128 H128       -2.6735   -9.9168  -52.5960 H         1 UNK         0.0600 
    129 H129       -2.6741   -8.6237  -51.3919 H         1 UNK         0.0600 
    130 H130       -4.2802  -11.1282  -49.9320 H         1 UNK         0.3000 
    131 H131       -2.1222  -12.8516  -49.1168 H         1 UNK         0.0600 
    132 H132       -4.9227  -12.5192  -47.9167 H         1 UNK         0.0800 
    133 H133       -4.5101  -13.5819  -49.2380 H         1 UNK         0.0800 
    134 H134       -6.0445  -14.8641  -47.3964 H         1 UNK         0.0800 
    135 H135       -5.3047  -15.9296  -46.2315 H         1 UNK         0.0800 
    136 H136       -5.8345  -15.3637  -49.8644 H         1 UNK         0.1150 
    137 H137       -4.7177  -19.3574  -50.9344 H         1 UNK         0.1150 
    138 H138       -4.2110  -17.9997  -46.8992 H         1 UNK         0.1150 
    139 H139       -2.9864  -20.0781  -47.8659 H         1 UNK         0.0800 
    140 H140       -3.5431  -20.7311  -49.3792 H         1 UNK         0.0800 
    141 H141       -5.4632  -21.0689  -45.2459 H         1 UNK         0.0800 
    142 H142       -4.1831  -20.0137  -45.7508 H         1 UNK         0.0800 
    143 H143       -2.6938  -22.0421  -46.1246 H         1 UNK         0.0600 
    144 H144       -3.1304  -20.7110  -43.8429 H         1 UNK         0.3000 
    145 H145       -2.4531  -21.4897  -41.4303 H         1 UNK         0.0600 
    146 H146       -0.1550  -21.8710  -40.4640 H         1 UNK         0.0600 
    147 H147       -0.9432  -23.3680  -40.9302 H         1 UNK         0.0600 
    148 H148        0.3226  -22.6902  -41.9498 H         1 UNK         0.0600 
    149 H149       -0.3740  -20.4126  -43.2748 H         1 UNK         0.3000 
    150 H150       -1.3120  -17.0882  -42.4719 H         1 UNK         0.0600 
    151 H151        1.3344  -18.4696  -41.7832 H         1 UNK         0.0600 
    152 H152        0.4235  -17.3753  -40.7561 H         1 UNK         0.0600 
    153 H153        1.1865  -16.7755  -42.2206 H         1 UNK         0.0600 
    154 H154        0.6746  -18.0264  -44.2388 H         1 UNK         0.3000 
    155 H155       -1.4951  -18.4949  -47.0800 H         1 UNK         0.0600 
    156 H156        0.5664  -16.3822  -46.2631 H         1 UNK         0.0600 
    157 H157       -1.0910  -16.0543  -46.7518 H         1 UNK         0.0600 
    158 H158        0.0401  -16.7415  -47.9053 H         1 UNK         0.0600 
    159 H159        1.3115  -18.7674  -46.0833 H         1 UNK         0.3000 
    160 H160        1.4981  -22.1331  -47.0797 H         1 UNK         0.0600 
    161 H161        2.9782  -19.7422  -48.3027 H         1 UNK         0.0600 
    162 H162        2.0333  -20.8952  -49.2305 H         1 UNK         0.0600 
    163 H163        3.4698  -21.4349  -48.3761 H         1 UNK         0.0600 
    164 H164        3.4960  -20.4793  -46.0228 H         1 UNK         0.3000 
    165 H165        2.5274  -20.1987  -42.6625 H         1 UNK         0.0600 
    166 H166        4.5869  -21.4709  -42.1671 H         1 UNK         0.0600 
    167 H167        4.6144  -22.1253  -43.8055 H         1 UNK         0.0600 
    168 H168        3.3202  -22.5650  -42.6971 H         1 UNK         0.0600 
    169 H169        5.0143  -19.6439  -43.7933 H         1 UNK         0.3000 
    170 H170        5.5725  -17.3906  -43.9573 H         1 UNK         0.0600 
    171 H171        5.7336  -18.5985  -46.1612 H         1 UNK         0.0600 
    172 H172        4.5663  -17.4876  -46.8702 H         1 UNK         0.0600 
    173 H173        6.1499  -16.9055  -46.3613 H         1 UNK         0.0600 
    174 H174        3.2554  -15.8530  -44.7705 H         1 UNK         0.3000 
    175 H175        4.6464  -12.8628  -43.6186 H         1 UNK         0.0600 
    176 H176        3.9791  -13.3100  -46.5788 H         1 UNK         0.0600 
    177 H177        3.9206  -11.7659  -45.7290 H         1 UNK         0.0600 
    178 H178        5.4584  -12.5826  -45.9620 H         1 UNK         0.0600 
    179 H179        2.1654  -13.5827  -44.9644 H         1 UNK         0.3000 
    180 H180        0.3930  -14.8504  -43.4014 H         1 UNK         0.0600 
    181 H181        0.3271  -12.9653  -40.9894 H         1 UNK         0.0600 
    182 H182        0.5055  -14.7133  -40.9152 H         1 UNK         0.0600 
    183 H183       -0.9855  -14.0166  -41.5217 H         1 UNK         0.0600 
    184 H184       -0.3055  -12.0390  -43.1593 H         1 UNK         0.3000 
    185 H185       -1.5320  -11.2042  -44.9722 H         1 UNK         0.0600 
    186 H186       -0.2029   -9.5354  -46.3188 H         1 UNK         0.0600 
    187 H187        0.7279  -10.0907  -44.9362 H         1 UNK         0.0600 
    188 H188        1.0810  -10.7228  -46.5405 H         1 UNK         0.0600 
    189 H189       -0.9348  -12.8413  -47.2452 H         1 UNK         0.3000 
    190 H190       -5.0400  -23.1942  -43.6664 H         1 UNK         0.3000 
    191 H191       -6.0160  -25.4043  -45.1827 H         1 UNK         0.0600 
    192 H192       -7.0053  -26.1016  -42.9969 H         1 UNK         0.0600 
    193 H193       -7.2847  -24.3968  -43.3120 H         1 UNK         0.0600 
    194 H194       -6.0421  -24.8895  -42.1609 H         1 UNK         0.0600 
    195 H195       -3.2924  -25.0988  -42.9052 H         1 UNK         0.3000 
    196 H196       -2.7702  -27.9726  -42.7609 H         1 UNK         0.0600 
    197 H197       -1.1075  -25.5808  -41.8095 H         1 UNK         0.0600 
    198 H198       -2.2848  -26.4570  -40.8305 H         1 UNK         0.0600 
    199 H199       -0.8313  -27.2665  -41.3965 H         1 UNK         0.0600 
    200 H200       -1.5264  -25.1316  -44.4906 H         1 UNK         0.3000 
    201 H201        0.6375  -26.4553  -45.8452 H         1 UNK         0.0600 
    202 H202       -0.8243  -23.8295  -46.4648 H         1 UNK         0.0600 
    203 H203        0.7426  -24.3248  -47.0994 H         1 UNK         0.0600 
    204 H204        0.5565  -23.9993  -45.3832 H         1 UNK         0.0600 
    205 H205       -2.6934  -26.7113  -46.3212 H         1 UNK         0.3000 
    206 H206       -4.0627  -27.5516  -47.8340 H         1 UNK         0.0600 
    207 H207       -2.4506  -29.4646  -47.9304 H         1 UNK         0.0600 
    208 H208       -3.2811  -29.2242  -49.4590 H         1 UNK         0.0600 
    209 H209       -1.6148  -28.6965  -49.2797 H         1 UNK         0.0600 
    210 H210       -3.5377  -24.9325  -48.0210 H         1 UNK         0.3000 
    211 H211       -3.8570  -23.1189  -49.1690 H         1 UNK         0.0600 
    212 H212       -5.3934  -23.1552  -51.0920 H         1 UNK         0.0600 
    213 H213       -5.9262  -24.3189  -49.8929 H         1 UNK         0.0600 
    214 H214       -5.0978  -24.8694  -51.3502 H         1 UNK         0.0600 
    215 H215       -1.2660  -24.0431  -49.3530 H         1 UNK         0.3000 
    216 H216       -0.0949  -24.1329  -51.8593 H         1 UNK         0.0600 
    217 H217        1.0231  -23.0988  -49.2109 H         1 UNK         0.0600 
    218 H218        2.0116  -23.4595  -50.6219 H         1 UNK         0.0600 
    219 H219        1.1147  -24.7447  -49.8298 H         1 UNK         0.0600 
    220 H220       -0.8866  -21.1690  -49.9974 H         1 UNK         0.3000 
    221 H221        0.3892  -19.3737  -51.8533 H         1 UNK         0.0600 
    222 H222        0.0926  -18.6850  -49.5520 H         1 UNK         0.0600 
    223 H223       -1.6564  -18.8903  -49.6403 H         1 UNK         0.0600 
    224 H224       -0.8670  -17.6150  -50.5529 H         1 UNK         0.0600 
    225 H225       -2.5559  -21.1445  -52.2397 H         1 UNK         0.3000 
    226 H226       -4.1132  -19.1669  -53.5839 H         1 UNK         0.0600 
    227 H227       -4.2465  -22.2038  -53.8906 H         1 UNK         0.0600 
    228 H228       -5.0630  -21.2753  -52.6294 H         1 UNK         0.0600 
    229 H229       -5.4987  -21.0486  -54.3155 H         1 UNK         0.0600 
    230 H230       -1.3782  -21.0351  -54.6230 H         1 UNK         0.3000 
    231 H231       -1.6695  -20.8097  -57.4632 H         1 UNK         0.0600 
    232 H232        0.8255  -21.0704  -55.6969 H         1 UNK         0.0600 
    233 H233        0.7845  -21.3074  -57.4408 H         1 UNK         0.0600 
    234 H234       -0.0982  -22.4033  -56.3890 H         1 UNK         0.0600 
    235 H235       -0.6773  -18.5028  -54.9678 H         1 UNK         0.3000 
    236 H236        0.3809  -16.5549  -56.9197 H         1 UNK         0.0600 
    237 H237        1.4773  -16.7891  -54.6817 H         1 UNK         0.0600 
    238 H238        0.8192  -15.1796  -54.9337 H         1 UNK         0.0600 
    239 H239       -0.0264  -16.3133  -53.8932 H         1 UNK         0.0600 
    240 H240       -2.5118  -17.1854  -54.9137 H         1 UNK         0.3000 
    241 H241       -3.8884  -14.7641  -55.4988 H         1 UNK         0.0600 
    242 H242       -4.8433  -17.3248  -58.6153 H         1 UNK         0.3800 
    243 H243       -4.0281  -17.9822  -57.2130 H         1 UNK         0.3800 
    244 H244       -5.1736  -17.4422  -54.7932 H         1 UNK         0.0800 
    245 H245       -5.9172  -15.8691  -54.6721 H         1 UNK         0.0800 
    246 H246       -5.9676  -17.9839  -52.4940 H         1 UNK         0.0800 
    247 H247       -6.5999  -16.4250  -52.0225 H         1 UNK         0.0800 
@<TRIPOS>BOND
     1    1    2 1    
     2    1  127 1    
     3    1  128 1    
     4    1  129 1    
     5    2    3 2    
     6    2    4 am   BACKBONE|DICT|INTERRES
     7    4    5 1    
     8    4  130 1    
     9    5    6 1    
    10    5   65 1    
    11    5  131 1    
    12    6    7 1    
    13    6  132 1    
    14    6  133 1    
    15    7    8 1    
    16    8    9 1    
    17    8  134 1    
    18    8  135 1    
    19    9   10 ar   
    20    9   14 ar   
    21   10   11 ar   
    22   10  136 1    
    23   11   12 ar   
    24   11  126 1    
    25   12   13 ar   
    26   12  137 1    
    27   13   14 ar   
    28   13   15 1    
    29   14  138 1    
    30   15   16 1    
    31   15  139 1    
    32   15  140 1    
    33   16   17 1    
    34   17   18 1    
    35   17  141 1    
    36   17  142 1    
    37   18   19 1    
    38   18   67 1    
    39   18  143 1    
    40   19   20 am   BACKBONE|DICT|INTERRES
    41   19  144 1    
    42   20   21 2    
    43   20   22 1    
    44   22   23 1    
    45   22   24 1    
    46   22  145 1    
    47   23  146 1    
    48   23  147 1    
    49   23  148 1    
    50   24   25 am   BACKBONE|DICT|INTERRES
    51   24  149 1    
    52   25   26 2    
    53   25   27 1    
    54   27   28 1    
    55   27   29 1    
    56   27  150 1    
    57   28  151 1    
    58   28  152 1    
    59   28  153 1    
    60   29   30 am   BACKBONE|DICT|INTERRES
    61   29  154 1    
    62   30   31 2    
    63   30   32 1    
    64   32   33 1    
    65   32   34 1    
    66   32  155 1    
    67   33  156 1    
    68   33  157 1    
    69   33  158 1    
    70   34   35 am   BACKBONE|DICT|INTERRES
    71   34  159 1    
    72   35   36 2    
    73   35   37 1    
    74   37   38 1    
    75   37   39 1    
    76   37  160 1    
    77   38  161 1    
    78   38  162 1    
    79   38  163 1    
    80   39   40 am   BACKBONE|DICT|INTERRES
    81   39  164 1    
    82   40   41 2    
    83   40   42 1    
    84   42   43 1    
    85   42   44 1    
    86   42  165 1    
    87   43  166 1    
    88   43  167 1    
    89   43  168 1    
    90   44   45 am   BACKBONE|DICT|INTERRES
    91   44  169 1    
    92   45   46 2    
    93   45   47 1    
    94   47   48 1    
    95   47   49 1    
    96   47  170 1    
    97   48  171 1    
    98   48  172 1    
    99   48  173 1    
   100   49   50 am   BACKBONE|DICT|INTERRES
   101   49  174 1    
   102   50   51 2    
   103   50   52 1    
   104   52   53 1    
   105   52   54 1    
   106   52  175 1    
   107   53  176 1    
   108   53  177 1    
   109   53  178 1    
   110   54   55 am   BACKBONE|DICT|INTERRES
   111   54  179 1    
   112   55   56 2    
   113   55   57 1    
   114   57   58 1    
   115   57   59 1    
   116   57  180 1    
   117   58  181 1    
   118   58  182 1    
   119   58  183 1    
   120   59   60 am   BACKBONE|DICT|INTERRES
   121   59  184 1    
   122   60   61 2    
   123   60   62 1    
   124   62   63 1    
   125   62   64 1    
   126   62  185 1    
   127   63  186 1    
   128   63  187 1    
   129   63  188 1    
   130   64   65 am   BACKBONE|DICT|INTERRES
   131   64  189 1    
   132   65   66 2    
   133   67   68 2    
   134   67   69 am   BACKBONE|DICT|INTERRES
   135   69   70 1    
   136   69  190 1    
   137   70   71 1    
   138   70   72 1    
   139   70  191 1    
   140   71  192 1    
   141   71  193 1    
   142   71  194 1    
   143   72   73 2    
   144   72   74 am   BACKBONE|DICT|INTERRES
   145   74   75 1    
   146   74  195 1    
   147   75   76 1    
   148   75   77 1    
   149   75  196 1    
   150   76  197 1    
   151   76  198 1    
   152   76  199 1    
   153   77   78 2    
   154   77   79 am   BACKBONE|DICT|INTERRES
   155   79   80 1    
   156   79  200 1    
   157   80   81 1    
   158   80   82 1    
   159   80  201 1    
   160   81  202 1    
   161   81  203 1    
   162   81  204 1    
   163   82   83 2    
   164   82   84 am   BACKBONE|DICT|INTERRES
   165   84   85 1    
   166   84  205 1    
   167   85   86 1    
   168   85   87 1    
   169   85  206 1    
   170   86  207 1    
   171   86  208 1    
   172   86  209 1    
   173   87   88 2    
   174   87   89 am   BACKBONE|DICT|INTERRES
   175   89   90 1    
   176   89  210 1    
   177   90   91 1    
   178   90   92 1    
   179   90  211 1    
   180   91  212 1    
   181   91  213 1    
   182   91  214 1    
   183   92   93 2    
   184   92   94 am   BACKBONE|DICT|INTERRES
   185   94   95 1    
   186   94  215 1    
   187   95   96 1    
   188   95   97 1    
   189   95  216 1    
   190   96  217 1    
   191   96  218 1    
   192   96  219 1    
   193   97   98 2    
   194   97   99 am   BACKBONE|DICT|INTERRES
   195   99  100 1    
   196   99  220 1    
   197  100  101 1    
   198  100  102 1    
   199  100  221 1    
   200  101  222 1    
   201  101  223 1    
   202  101  224 1    
   203  102  103 2    
   204  102  104 am   BACKBONE|DICT|INTERRES
   205  104  105 1    
   206  104  225 1    
   207  105  106 1    
   208  105  107 1    
   209  105  226 1    
   210  106  227 1    
   211  106  228 1    
   212  106  229 1    
   213  107  108 2    
   214  107  109 am   BACKBONE|DICT|INTERRES
   215  109  110 1    
   216  109  230 1    
   217  110  111 1    
   218  110  112 1    
   219  110  231 1    
   220  111  232 1    
   221  111  233 1    
   222  111  234 1    
   223  112  113 2    
   224  112  114 am   BACKBONE|DICT|INTERRES
   225  114  115 1    
   226  114  235 1    
   227  115  116 1    
   228  115  117 1    
   229  115  236 1    
   230  116  237 1    
   231  116  238 1    
   232  116  239 1    
   233  117  118 2    
   234  117  119 am   BACKBONE|DICT|INTERRES
   235  119  120 1    
   236  119  240 1    
   237  120  121 1    
   238  120  124 1    
   239  120  241 1    
   240  121  122 am   BACKBONE|DICT|INTERRES
   241  121  123 2    
   242  122  242 1    
   243  122  243 1    
   244  124  125 1    
   245  124  244 1    
   246  124  245 1    
   247  125  126 1    
   248  126  246 1    
   249  126  247 1    
@<TRIPOS>SUBSTRUCTURE
     1 UNK         1 GROUP             0       ****    0 ROOT    
