@<TRIPOS>MOLECULE
3R540
247   249    1
SMALL
USER_CHARGES


@<TRIPOS>ATOM
      1 CA         -2.2891   -9.6875  -50.4094 C.3       0 UNK        -0.1800 
      2 C          -1.1188  -10.0136  -49.4920 C.2       0 UNK         0.5000 
      3 O          -0.1317   -9.2774  -49.4712 O.2       0 UNK        -0.5000 
      4 N          -1.2220  -11.1169  -48.7425 N.am      1 UNK        -0.5000 
      5 CA         -0.2220  -11.5661  -47.7691 C.3       1 UNK         0.1400 
      6 C6         -0.4603  -13.0283  -47.3151 C.3       23 UNK        -0.0398 
      7 S7         -0.5265  -14.2457  -48.6718 S.3       23 UNK        -0.2404 
      8 C8         -2.3022  -14.6365  -48.6663 C.3       23 UNK        -0.0205 
      9 C9         -2.6145  -15.8767  -49.4851 C.ar      23 UNK        -0.0193 
     10 C10        -2.8599  -15.7784  -50.8590 C.ar      23 UNK        -0.1150 
     11 C11        -3.2060  -16.9136  -51.5989 C.ar      23 UNK        -0.0193 
     12 C12        -3.3160  -18.1460  -50.9494 C.ar      23 UNK        -0.1150 
     13 C13        -3.0568  -18.2599  -49.5807 C.ar      23 UNK        -0.0193 
     14 C14        -2.6965  -17.1222  -48.8557 C.ar      23 UNK        -0.1150 
     15 C15        -3.1473  -19.6144  -48.8955 C.3       23 UNK        -0.0205 
     16 S16        -4.5302  -19.7076  -47.7093 S.3       23 UNK        -0.2404 
     17 C17        -3.6289  -19.9065  -46.1336 C.3       23 UNK        -0.0398 
     18 CA         -3.1196  -21.3589  -45.9285 C.3       11 UNK         0.1400 
     19 N          -1.7395  -21.3984  -45.4297 N.am      11 UNK        -0.5000 
     20 C          -0.9705  -22.4958  -45.3718 C.2       10 UNK         0.5000 
     21 O          -1.3758  -23.6176  -45.6720 O.2       10 UNK        -0.5000 
     22 CA          0.4837  -22.3329  -44.8986 C.3       10 UNK         0.1400 
     23 CB          1.4305  -22.3645  -46.1076 C.3       10 UNK        -0.1800 
     24 N           0.7214  -21.1134  -44.1243 N.am      10 UNK        -0.5000 
     25 C           0.2322  -20.8750  -42.8992 C.2       9 UNK         0.5000 
     26 O          -0.4763  -21.6707  -42.2810 O.2       9 UNK        -0.5000 
     27 CA          0.5556  -19.5011  -42.2811 C.3       9 UNK         0.1400 
     28 CB          1.9771  -19.4807  -41.6992 C.3       9 UNK        -0.1800 
     29 N           0.4054  -18.4012  -43.2351 N.am      9 UNK        -0.5000 
     30 C          -0.7530  -18.0383  -43.8046 C.2       8 UNK         0.5000 
     31 O          -1.8348  -18.5756  -43.5663 O.2       8 UNK        -0.5000 
     32 CA         -0.6814  -16.9185  -44.8564 C.3       8 UNK         0.1400 
     33 CB         -0.6167  -15.5364  -44.1881 C.3       8 UNK        -0.1800 
     34 N           0.4550  -17.0932  -45.7611 N.am      8 UNK        -0.5000 
     35 C           0.5575  -18.0865  -46.6569 C.2       7 UNK         0.5000 
     36 O          -0.3120  -18.9367  -46.8376 O.2       7 UNK        -0.5000 
     37 CA          1.8721  -18.1726  -47.4519 C.3       7 UNK         0.1400 
     38 CB          1.8381  -17.2253  -48.6599 C.3       7 UNK        -0.1800 
     39 N           3.0494  -17.8791  -46.6324 N.am      7 UNK        -0.5000 
     40 C           3.4662  -18.6348  -45.6057 C.2       6 UNK         0.5000 
     41 O           2.9187  -19.6786  -45.2582 O.2       6 UNK        -0.5000 
     42 CA          4.6633  -18.1071  -44.7951 C.3       6 UNK         0.1400 
     43 CB          5.9883  -18.5336  -45.4442 C.3       6 UNK        -0.1800 
     44 N           4.6436  -16.6520  -44.6333 N.am      6 UNK        -0.5000 
     45 C           3.6815  -15.9738  -43.9946 C.2       5 UNK         0.5000 
     46 O           2.6966  -16.5049  -43.4747 O.2       5 UNK        -0.5000 
     47 CA          3.8138  -14.4417  -44.0134 C.3       5 UNK         0.1400 
     48 CB          3.1280  -13.8814  -45.2684 C.3       5 UNK        -0.1800 
     49 N           3.2411  -13.8155  -42.8197 N.am      5 UNK        -0.5000 
     50 C           3.7669  -13.9283  -41.5894 C.2       4 UNK         0.5000 
     51 O           4.7938  -14.5686  -41.3554 O.2       4 UNK        -0.5000 
     52 CA          3.0773  -13.1870  -40.4241 C.3       4 UNK         0.1400 
     53 CB          4.0650  -12.2397  -39.7209 C.3       4 UNK        -0.1800 
     54 N           1.9201  -12.4005  -40.8489 N.am      4 UNK        -0.5000 
     55 C           0.6439  -12.7995  -40.7844 C.2       3 UNK         0.5000 
     56 O           0.2864  -13.8892  -40.3367 O.2       3 UNK        -0.5000 
     57 CA         -0.4150  -11.8120  -41.3205 C.3       3 UNK         0.1400 
     58 CB         -1.0390  -11.0159  -40.1641 C.3       3 UNK        -0.1800 
     59 N           0.0922  -10.8713  -42.3288 N.am      3 UNK        -0.5000 
     60 C           0.5690  -11.2379  -43.5243 C.2       2 UNK         0.5000 
     61 O           0.6846  -12.4150  -43.8716 O.2       2 UNK        -0.5000 
     62 CA          1.0410  -10.1168  -44.4696 C.3       2 UNK         0.1400 
     63 CB          2.5009   -9.7432  -44.1681 C.3       2 UNK        -0.1800 
     64 N           0.9399  -10.5677  -45.8579 N.am      2 UNK        -0.5000 
     65 C          -0.2198  -10.6612  -46.5193 C.2       1 UNK         0.5000 
     66 O          -1.2705  -10.1411  -46.1323 O.2       1 UNK        -0.5000 
     67 C          -4.1085  -22.2380  -45.1245 C.2       11 UNK         0.5000 
     68 O          -5.1598  -22.6043  -45.6484 O.2       11 UNK        -0.5000 
     69 N          -3.7373  -22.6227  -43.8955 N.am      12 UNK        -0.5000 
     70 CA         -4.4461  -23.6156  -43.0875 C.3       12 UNK         0.1400 
     71 CB         -3.8610  -23.6050  -41.6675 C.3       12 UNK        -0.1800 
     72 C          -4.3988  -25.0428  -43.6783 C.2       12 UNK         0.5000 
     73 O          -5.3198  -25.8240  -43.4357 O.2       12 UNK        -0.5000 
     74 N          -3.3476  -25.3665  -44.4458 N.am      13 UNK        -0.5000 
     75 CA         -3.1307  -26.6730  -45.0662 C.3       13 UNK         0.1400 
     76 CB         -1.6175  -26.9449  -45.1483 C.3       13 UNK        -0.1800 
     77 C          -3.8167  -26.7374  -46.4428 C.2       13 UNK         0.5000 
     78 O          -3.1410  -26.7222  -47.4739 O.2       13 UNK        -0.5000 
     79 N          -5.1573  -26.7731  -46.4311 N.am      14 UNK        -0.5000 
     80 CA         -6.0467  -26.8808  -47.5966 C.3       14 UNK         0.1400 
     81 CB         -5.9353  -28.2852  -48.2264 C.3       14 UNK        -0.1800 
     82 C          -5.8206  -25.7499  -48.6214 C.2       14 UNK         0.5000 
     83 O          -5.6234  -26.0133  -49.8109 O.2       14 UNK        -0.5000 
     84 N          -5.7970  -24.5074  -48.1164 N.am      15 UNK        -0.5000 
     85 CA         -5.4855  -23.2753  -48.8472 C.3       15 UNK         0.1400 
     86 CB         -6.5627  -22.9734  -49.9102 C.3       15 UNK        -0.1800 
     87 C          -4.0484  -23.2735  -49.4081 C.2       15 UNK         0.5000 
     88 O          -3.8254  -22.7802  -50.5112 O.2       15 UNK        -0.5000 
     89 N          -3.1039  -23.8494  -48.6482 N.am      16 UNK        -0.5000 
     90 CA         -1.6996  -24.0766  -49.0114 C.3       16 UNK         0.1400 
     91 CB         -0.9352  -22.7422  -49.1275 C.3       16 UNK        -0.1800 
     92 C          -1.5802  -24.9484  -50.2778 C.2       16 UNK         0.5000 
     93 O          -0.8413  -24.6060  -51.2019 O.2       16 UNK        -0.5000 
     94 N          -2.3526  -26.0436  -50.2923 N.am      17 UNK        -0.5000 
     95 CA         -2.5714  -26.9617  -51.4100 C.3       17 UNK         0.1400 
     96 CB         -1.2787  -27.7303  -51.7564 C.3       17 UNK        -0.1800 
     97 C          -3.2061  -26.2535  -52.6267 C.2       17 UNK         0.5000 
     98 O          -2.5659  -26.1159  -53.6705 O.2       17 UNK        -0.5000 
     99 N          -4.4710  -25.8433  -52.4565 N.am      18 UNK        -0.5000 
    100 CA        -5.3692  -25.2745  -53.4673 C.3       18 UNK         0.1400 
    101 CB        -5.6029  -26.2625  -54.6305 C.3       18 UNK        -0.1800 
    102 C         -4.9469  -23.8702  -53.9451 C.2       18 UNK         0.5000 
    103 O         -4.5042  -23.6930  -55.0819 O.2       18 UNK        -0.5000 
    104 N         -5.1358  -22.8920  -53.0515 N.am      19 UNK        -0.5000 
    105 CA        -4.9798  -21.4461  -53.2405 C.3       19 UNK         0.1400 
    106 CB        -6.0061  -20.9133  -54.2622 C.3       19 UNK        -0.1800 
    107 C         -3.5362  -21.0117  -53.5539 C.2       19 UNK         0.5000 
    108 O         -3.3395  -20.0891  -54.3442 O.2       19 UNK        -0.5000 
    109 N         -2.5592  -21.6895  -52.9314 N.am      20 UNK        -0.5000 
    110 CA        -1.1078  -21.4362  -52.9480 C.3       20 UNK         0.1400 
    111 CB        -0.7844  -20.2002  -52.0854 C.3       20 UNK        -0.1800 
    112 C         -0.4525  -21.3177  -54.3443 C.2       20 UNK         0.5000 
    113 O          0.6689  -20.8161  -54.4430 O.2       20 UNK        -0.5000 
    114 N         -1.1610  -21.7534  -55.3956 N.am      21 UNK        -0.5000 
    115 CA        -0.8724  -21.5172  -56.8120 C.3       21 UNK         0.1400 
    116 CB         0.3925  -22.2831  -57.2546 C.3       21 UNK        -0.1800 
    117 C         -0.8416  -20.0141  -57.1858 C.2       21 UNK         0.5000 
    118 O         -0.0572  -19.6181  -58.0505 O.2       21 UNK        -0.5000 
    119 N         -1.7009  -19.2019  -56.5471 N.am      22 UNK        -0.5000 
    120 CA        -1.8736  -17.7644  -56.8395 C.3       22 UNK         0.1400 
    121 C         -2.4480  -17.4529  -58.2554 C.2       22 UNK         0.5000 
    122 N         -3.0947  -18.3917  -58.9364 N.am      22 UNK        -0.7600 
    123 O         -2.3021  -16.3359  -58.7448 O.2       22 UNK        -0.5000 
    124 C124       -2.7283  -17.0355  -55.7671 C.3       23 UNK        -0.0398 
    125 S125       -1.9904  -17.0244  -54.0984 S.3       23 UNK        -0.2404 
    126 C126       -3.4937  -16.8110  -53.0902 C.3       23 UNK        -0.0205 
    127 H127       -2.7109   -8.7169  -50.1486 H         1 UNK         0.0600 
    128 H128       -3.0813  -10.4332  -50.3372 H         1 UNK         0.0600 
    129 H129       -1.9539   -9.6478  -51.4458 H         1 UNK         0.0600 
    130 H130       -2.0653  -11.6682  -48.7875 H         1 UNK         0.3000 
    131 H131        0.7603  -11.5076  -48.2431 H         1 UNK         0.0600 
    132 H132        0.3464  -13.3432  -46.6529 H         1 UNK         0.0800 
    133 H133       -1.3716  -13.0985  -46.7183 H         1 UNK         0.0800 
    134 H134       -2.8638  -13.7850  -49.0526 H         1 UNK         0.0800 
    135 H135       -2.6422  -14.7896  -47.6408 H         1 UNK         0.0800 
    136 H136       -2.7898  -14.8179  -51.3499 H         1 UNK         0.1150 
    137 H137       -3.5922  -19.0218  -51.5162 H         1 UNK         0.1150 
    138 H138       -2.4965  -17.2072  -47.7971 H         1 UNK         0.1150 
    139 H139       -3.2836  -20.3972  -49.6401 H         1 UNK         0.0800 
    140 H140       -2.1984  -19.8343  -48.4066 H         1 UNK         0.0800 
    141 H141       -4.2702  -19.5843  -45.3112 H         1 UNK         0.0800 
    142 H142       -2.8029  -19.1961  -46.1411 H         1 UNK         0.0800 
    143 H143       -3.0599  -21.8270  -46.9097 H         1 UNK         0.0600 
    144 H144       -1.3226  -20.5106  -45.1833 H         1 UNK         0.3000 
    145 H145        0.7154  -23.1886  -44.2614 H         1 UNK         0.0600 
    146 H146        2.4737  -22.3512  -45.7922 H         1 UNK         0.0600 
    147 H147        1.2829  -23.2689  -46.6995 H         1 UNK         0.0600 
    148 H148        1.2668  -21.5104  -46.7661 H         1 UNK         0.0600 
    149 H149        1.3465  -20.4306  -44.5462 H         1 UNK         0.3000 
    150 H150       -0.1481  -19.3306  -41.4637 H         1 UNK         0.0600 
    151 H151        2.1050  -20.2662  -40.9534 H         1 UNK         0.0600 
    152 H152        2.1894  -18.5291  -41.2111 H         1 UNK         0.0600 
    153 H153        2.7312  -19.6344  -42.4712 H         1 UNK         0.0600 
    154 H154        1.2434  -17.8732  -43.4603 H         1 UNK         0.3000 
    155 H155       -1.5964  -16.9602  -45.4510 H         1 UNK         0.0600 
    156 H156       -1.4662  -15.3855  -43.5212 H         1 UNK         0.0600 
    157 H157       -0.6442  -14.7388  -44.9283 H         1 UNK         0.0600 
    158 H158        0.2882  -15.4079  -43.5939 H         1 UNK         0.0600 
    159 H159        1.2381  -16.4712  -45.6333 H         1 UNK         0.3000 
    160 H160        1.9648  -19.1952  -47.8242 H         1 UNK         0.0600 
    161 H161        1.8237  -16.1797  -48.3509 H         1 UNK         0.0600 
    162 H162        0.9498  -17.3991  -49.2697 H         1 UNK         0.0600 
    163 H163        2.7067  -17.3734  -49.3015 H         1 UNK         0.0600 
    164 H164        3.5604  -17.0369  -46.8500 H         1 UNK         0.3000 
    165 H165        4.6116  -18.5540  -43.8001 H         1 UNK         0.0600 
    166 H166        6.8406  -18.2367  -44.8327 H         1 UNK         0.0600 
    167 H167        6.0346  -19.6174  -45.5592 H         1 UNK         0.0600 
    168 H168        6.1142  -18.0928  -46.4338 H         1 UNK         0.0600 
    169 H169        5.4146  -16.1440  -45.0424 H         1 UNK         0.3000 
    170 H170        4.8735  -14.1806  -44.0537 H         1 UNK         0.0600 
    171 H171        3.5926  -14.2665  -46.1767 H         1 UNK         0.0600 
    172 H172        2.0741  -14.1567  -45.2994 H         1 UNK         0.0600 
    173 H173        3.1957  -12.7950  -45.3069 H         1 UNK         0.0600 
    174 H174        2.3614  -13.3285  -42.9431 H         1 UNK         0.3000 
    175 H175        2.7667  -13.9450  -39.7022 H         1 UNK         0.0600 
    176 H176        4.4433  -11.4756  -40.4010 H         1 UNK         0.0600 
    177 H177        3.5936  -11.7348  -38.8775 H         1 UNK         0.0600 
    178 H178        4.9243  -12.7852  -39.3286 H         1 UNK         0.0600 
    179 H179        2.1140  -11.4894  -41.2372 H         1 UNK         0.3000 
    180 H180       -1.2021  -12.4072  -41.7886 H         1 UNK         0.0600 
    181 H181       -0.3035  -10.3781  -39.6721 H         1 UNK         0.0600 
    182 H182       -1.4526  -11.6840  -39.4074 H         1 UNK         0.0600 
    183 H183       -1.8537  -10.3821  -40.5149 H         1 UNK         0.0600 
    184 H184        0.0376   -9.8896  -42.0978 H         1 UNK         0.3000 
    185 H185        0.4123   -9.2356  -44.3253 H         1 UNK         0.0600 
    186 H186        2.6041   -9.3569  -43.1534 H         1 UNK         0.0600 
    187 H187        3.1683  -10.6007  -44.2605 H         1 UNK         0.0600 
    188 H188        2.8566   -8.9674  -44.8463 H         1 UNK         0.0600 
    189 H189        1.7495  -11.0460  -46.2242 H         1 UNK         0.3000 
    190 H190       -2.8552  -22.2871  -43.5331 H         1 UNK         0.3000 
    191 H191       -5.4952  -23.3186  -43.0279 H         1 UNK         0.0600 
    192 H192       -3.9627  -22.6225  -41.2061 H         1 UNK         0.0600 
    193 H193       -4.3772  -24.3200  -41.0254 H         1 UNK         0.0600 
    194 H194       -2.8019  -23.8668  -41.6675 H         1 UNK         0.0600 
    195 H195       -2.6588  -24.6549  -44.6730 H         1 UNK         0.3000 
    196 H196       -3.5678  -27.4542  -44.4407 H         1 UNK         0.0600 
    197 H197       -1.4235  -27.9357  -45.5607 H         1 UNK         0.0600 
    198 H198       -1.1562  -26.9074  -44.1614 H         1 UNK         0.0600 
    199 H199       -1.1052  -26.2225  -45.7841 H         1 UNK         0.0600 
    200 H200       -5.6148  -26.7254  -45.5285 H         1 UNK         0.3000 
    201 H201       -7.0662  -26.7630  -47.2267 H         1 UNK         0.0600 
    202 H202       -6.1326  -29.0640  -47.4899 H         1 UNK         0.0600 
    203 H203       -4.9451  -28.4648  -48.6467 H         1 UNK         0.0600 
    204 H204       -6.6596  -28.4105  -49.0322 H         1 UNK         0.0600 
    205 H205       -5.9380  -24.3891  -47.1212 H         1 UNK         0.3000 
    206 H206       -5.5264  -22.4614  -48.1269 H         1 UNK         0.0600 
    207 H207       -7.5559  -22.9523  -49.4619 H         1 UNK         0.0600 
    208 H208       -6.3985  -21.9963  -50.3652 H         1 UNK         0.0600 
    209 H209       -6.5756  -23.7162  -50.7068 H         1 UNK         0.0600 
    210 H210       -3.3936  -24.2837  -47.7838 H         1 UNK         0.3000 
    211 H211       -1.2529  -24.6480  -48.1966 H         1 UNK         0.0600 
    212 H212       -1.2925  -22.1563  -49.9702 H         1 UNK         0.0600 
    213 H213        0.1312  -22.9138  -49.2761 H         1 UNK         0.0600 
    214 H214       -1.0437  -22.1334  -48.2326 H         1 UNK         0.0600 
    215 H215       -2.8977  -26.2350  -49.4571 H         1 UNK         0.3000 
    216 H216       -3.2992  -27.6960  -51.0607 H         1 UNK         0.0600 
    217 H217       -1.4687  -28.4785  -52.5267 H         1 UNK         0.0600 
    218 H218       -0.8872  -28.2538  -50.8842 H         1 UNK         0.0600 
    219 H219       -0.4953  -27.0711  -52.1308 H         1 UNK         0.0600 
    220 H220       -4.8818  -25.9589  -51.5312 H         1 UNK         0.3000 
    221 H221       -6.3319  -25.1523  -52.9682 H         1 UNK         0.0600 
    222 H222       -4.6967  -26.4404  -55.2098 H         1 UNK         0.0600 
    223 H223       -5.9612  -27.2246  -54.2643 H         1 UNK         0.0600 
    224 H224       -6.3553  -25.8768  -55.3193 H         1 UNK         0.0600 
    225 H225       -5.3675  -23.1631  -52.1057 H         1 UNK         0.3000 
    226 H226       -5.2168  -20.9900  -52.2787 H         1 UNK         0.0600 
    227 H227       -7.0197  -21.2125  -53.9957 H         1 UNK         0.0600 
    228 H228       -5.8013  -21.2777  -55.2692 H         1 UNK         0.0600 
    229 H229       -5.9910  -19.8233  -54.3003 H         1 UNK         0.0600 
    230 H230       -2.8609  -22.4057  -52.2776 H         1 UNK         0.3000 
    231 H231       -0.6462  -22.3016  -52.4735 H         1 UNK         0.0600 
    232 H232       -1.1154  -19.2831  -52.5688 H         1 UNK         0.0600 
    233 H233        0.2881  -20.1084  -51.9113 H         1 UNK         0.0600 
    234 H234       -1.2635  -20.2469  -51.1104 H         1 UNK         0.0600 
    235 H235       -2.0733  -22.1426  -55.1982 H         1 UNK         0.3000 
    236 H236       -1.7152  -21.9403  -57.3600 H         1 UNK         0.0600 
    237 H237        0.3322  -23.3361  -56.9795 H         1 UNK         0.0600 
    238 H238        0.5165  -22.2390  -58.3372 H         1 UNK         0.0600 
    239 H239        1.2965  -21.8701  -56.8067 H         1 UNK         0.0600 
    240 H240       -2.2882  -19.5781  -55.8052 H         1 UNK         0.3000 
    241 H241       -0.8773  -17.3187  -56.8193 H         1 UNK         0.0600 
    242 H242       -3.4586  -18.1794  -59.8522 H         1 UNK         0.3800 
    243 H243       -3.2295  -19.3094  -58.5439 H         1 UNK         0.3800 
    244 H244       -2.8895  -15.9922  -56.0451 H         1 UNK         0.0800 
    245 H245       -3.7180  -17.4930  -55.7182 H         1 UNK         0.0800 
    246 H246       -3.9456  -15.8443  -53.3172 H         1 UNK         0.0800 
    247 H247       -4.2280  -17.5674  -53.3721 H         1 UNK         0.0800 
@<TRIPOS>BOND
     1    1    2 1    
     2    1  127 1    
     3    1  128 1    
     4    1  129 1    
     5    2    3 2    
     6    2    4 am   BACKBONE|DICT|INTERRES
     7    4    5 1    
     8    4  130 1    
     9    5    6 1    
    10    5   65 1    
    11    5  131 1    
    12    6    7 1    
    13    6  132 1    
    14    6  133 1    
    15    7    8 1    
    16    8    9 1    
    17    8  134 1    
    18    8  135 1    
    19    9   10 ar   
    20    9   14 ar   
    21   10   11 ar   
    22   10  136 1    
    23   11   12 ar   
    24   11  126 1    
    25   12   13 ar   
    26   12  137 1    
    27   13   14 ar   
    28   13   15 1    
    29   14  138 1    
    30   15   16 1    
    31   15  139 1    
    32   15  140 1    
    33   16   17 1    
    34   17   18 1    
    35   17  141 1    
    36   17  142 1    
    37   18   19 1    
    38   18   67 1    
    39   18  143 1    
    40   19   20 am   BACKBONE|DICT|INTERRES
    41   19  144 1    
    42   20   21 2    
    43   20   22 1    
    44   22   23 1    
    45   22   24 1    
    46   22  145 1    
    47   23  146 1    
    48   23  147 1    
    49   23  148 1    
    50   24   25 am   BACKBONE|DICT|INTERRES
    51   24  149 1    
    52   25   26 2    
    53   25   27 1    
    54   27   28 1    
    55   27   29 1    
    56   27  150 1    
    57   28  151 1    
    58   28  152 1    
    59   28  153 1    
    60   29   30 am   BACKBONE|DICT|INTERRES
    61   29  154 1    
    62   30   31 2    
    63   30   32 1    
    64   32   33 1    
    65   32   34 1    
    66   32  155 1    
    67   33  156 1    
    68   33  157 1    
    69   33  158 1    
    70   34   35 am   BACKBONE|DICT|INTERRES
    71   34  159 1    
    72   35   36 2    
    73   35   37 1    
    74   37   38 1    
    75   37   39 1    
    76   37  160 1    
    77   38  161 1    
    78   38  162 1    
    79   38  163 1    
    80   39   40 am   BACKBONE|DICT|INTERRES
    81   39  164 1    
    82   40   41 2    
    83   40   42 1    
    84   42   43 1    
    85   42   44 1    
    86   42  165 1    
    87   43  166 1    
    88   43  167 1    
    89   43  168 1    
    90   44   45 am   BACKBONE|DICT|INTERRES
    91   44  169 1    
    92   45   46 2    
    93   45   47 1    
    94   47   48 1    
    95   47   49 1    
    96   47  170 1    
    97   48  171 1    
    98   48  172 1    
    99   48  173 1    
   100   49   50 am   BACKBONE|DICT|INTERRES
   101   49  174 1    
   102   50   51 2    
   103   50   52 1    
   104   52   53 1    
   105   52   54 1    
   106   52  175 1    
   107   53  176 1    
   108   53  177 1    
   109   53  178 1    
   110   54   55 am   BACKBONE|DICT|INTERRES
   111   54  179 1    
   112   55   56 2    
   113   55   57 1    
   114   57   58 1    
   115   57   59 1    
   116   57  180 1    
   117   58  181 1    
   118   58  182 1    
   119   58  183 1    
   120   59   60 am   BACKBONE|DICT|INTERRES
   121   59  184 1    
   122   60   61 2    
   123   60   62 1    
   124   62   63 1    
   125   62   64 1    
   126   62  185 1    
   127   63  186 1    
   128   63  187 1    
   129   63  188 1    
   130   64   65 am   BACKBONE|DICT|INTERRES
   131   64  189 1    
   132   65   66 2    
   133   67   68 2    
   134   67   69 am   BACKBONE|DICT|INTERRES
   135   69   70 1    
   136   69  190 1    
   137   70   71 1    
   138   70   72 1    
   139   70  191 1    
   140   71  192 1    
   141   71  193 1    
   142   71  194 1    
   143   72   73 2    
   144   72   74 am   BACKBONE|DICT|INTERRES
   145   74   75 1    
   146   74  195 1    
   147   75   76 1    
   148   75   77 1    
   149   75  196 1    
   150   76  197 1    
   151   76  198 1    
   152   76  199 1    
   153   77   78 2    
   154   77   79 am   BACKBONE|DICT|INTERRES
   155   79   80 1    
   156   79  200 1    
   157   80   81 1    
   158   80   82 1    
   159   80  201 1    
   160   81  202 1    
   161   81  203 1    
   162   81  204 1    
   163   82   83 2    
   164   82   84 am   BACKBONE|DICT|INTERRES
   165   84   85 1    
   166   84  205 1    
   167   85   86 1    
   168   85   87 1    
   169   85  206 1    
   170   86  207 1    
   171   86  208 1    
   172   86  209 1    
   173   87   88 2    
   174   87   89 am   BACKBONE|DICT|INTERRES
   175   89   90 1    
   176   89  210 1    
   177   90   91 1    
   178   90   92 1    
   179   90  211 1    
   180   91  212 1    
   181   91  213 1    
   182   91  214 1    
   183   92   93 2    
   184   92   94 am   BACKBONE|DICT|INTERRES
   185   94   95 1    
   186   94  215 1    
   187   95   96 1    
   188   95   97 1    
   189   95  216 1    
   190   96  217 1    
   191   96  218 1    
   192   96  219 1    
   193   97   98 2    
   194   97   99 am   BACKBONE|DICT|INTERRES
   195   99  100 1    
   196   99  220 1    
   197  100  101 1    
   198  100  102 1    
   199  100  221 1    
   200  101  222 1    
   201  101  223 1    
   202  101  224 1    
   203  102  103 2    
   204  102  104 am   BACKBONE|DICT|INTERRES
   205  104  105 1    
   206  104  225 1    
   207  105  106 1    
   208  105  107 1    
   209  105  226 1    
   210  106  227 1    
   211  106  228 1    
   212  106  229 1    
   213  107  108 2    
   214  107  109 am   BACKBONE|DICT|INTERRES
   215  109  110 1    
   216  109  230 1    
   217  110  111 1    
   218  110  112 1    
   219  110  231 1    
   220  111  232 1    
   221  111  233 1    
   222  111  234 1    
   223  112  113 2    
   224  112  114 am   BACKBONE|DICT|INTERRES
   225  114  115 1    
   226  114  235 1    
   227  115  116 1    
   228  115  117 1    
   229  115  236 1    
   230  116  237 1    
   231  116  238 1    
   232  116  239 1    
   233  117  118 2    
   234  117  119 am   BACKBONE|DICT|INTERRES
   235  119  120 1    
   236  119  240 1    
   237  120  121 1    
   238  120  124 1    
   239  120  241 1    
   240  121  122 am   BACKBONE|DICT|INTERRES
   241  121  123 2    
   242  122  242 1    
   243  122  243 1    
   244  124  125 1    
   245  124  244 1    
   246  124  245 1    
   247  125  126 1    
   248  126  246 1    
   249  126  247 1    
@<TRIPOS>SUBSTRUCTURE
     1 UNK         1 GROUP             0       ****    0 ROOT    
