@<TRIPOS>MOLECULE
3R540
247   249    1
SMALL
USER_CHARGES


@<TRIPOS>ATOM
      1 CA          5.6752  -12.3372  -48.2102 C.3       0 UNK        -0.1800 
      2 C           4.1803  -12.3754  -47.9306 C.2       0 UNK         0.5000 
      3 O           3.7519  -11.9773  -46.8493 O.2       0 UNK        -0.5000 
      4 N           3.3855  -12.8281  -48.9100 N.am      1 UNK        -0.5000 
      5 CA          1.9306  -13.0511  -48.8387 C.3       1 UNK         0.1400 
      6 C6          1.3978  -13.7048  -50.1376 C.3       23 UNK        -0.0398 
      7 S7          2.1046  -15.3622  -50.4223 S.3       23 UNK        -0.2404 
      8 C8          0.7126  -16.3906  -49.8689 C.3       23 UNK        -0.0205 
      9 C9          1.0496  -17.8709  -49.9139 C.ar      23 UNK        -0.0193 
     10 C10         0.6620  -18.6497  -51.0069 C.ar      23 UNK        -0.1150 
     11 C11         0.9135  -20.0255  -51.0270 C.ar      23 UNK        -0.0193 
     12 C12         1.5709  -20.6184  -49.9435 C.ar      23 UNK        -0.1150 
     13 C13         1.9815  -19.8440  -48.8526 C.ar      23 UNK        -0.0193 
     14 C14         1.7237  -18.4709  -48.8481 C.ar      23 UNK        -0.1150 
     15 C15         2.7150  -20.4795  -47.6799 C.3       23 UNK        -0.0205 
     16 S16         1.7441  -20.4213  -46.1396 S.3       23 UNK        -0.2404 
     17 C17         0.3992  -21.5978  -46.5046 C.3       23 UNK        -0.0398 
     18 CA          0.7381  -23.0296  -46.0232 C.3       11 UNK         0.1400 
     19 N           0.9489  -23.0793  -44.5773 N.am      11 UNK        -0.5000 
     20 C           1.6611  -23.9990  -43.9152 C.2       10 UNK         0.5000 
     21 O           2.1752  -24.9812  -44.4553 O.2       10 UNK        -0.5000 
     22 CA          1.8301  -23.7524  -42.4005 C.3       10 UNK         0.1400 
     23 CB          2.9669  -24.5869  -41.7745 C.3       10 UNK        -0.1800 
     24 N           1.9835  -22.3273  -42.0757 N.am      10 UNK        -0.5000 
     25 C           2.9523  -21.4945  -42.4847 C.2       9 UNK         0.5000 
     26 O           3.9019  -21.8397  -43.1904 O.2       9 UNK        -0.5000 
     27 CA          2.8143  -20.0248  -42.0331 C.3       9 UNK         0.1400 
     28 CB          4.0523  -19.1812  -42.3839 C.3       9 UNK        -0.1800 
     29 N           1.6238  -19.3745  -42.5895 N.am      9 UNK        -0.5000 
     30 C           0.3673  -19.5499  -42.1541 C.2       8 UNK         0.5000 
     31 O           0.0745  -20.3575  -41.2701 O.2       8 UNK        -0.5000 
     32 CA         -0.7509  -18.6986  -42.7888 C.3       8 UNK         0.1400 
     33 CB         -1.6340  -18.0525  -41.7075 C.3       8 UNK        -0.1800 
     34 N          -0.2204  -17.6357  -43.6400 N.am      8 UNK        -0.5000 
     35 C          -0.4250  -17.5091  -44.9573 C.2       7 UNK         0.5000 
     36 O          -1.1139  -18.2876  -45.6168 O.2       7 UNK        -0.5000 
     37 CA          0.2417  -16.3099  -45.6683 C.3       7 UNK         0.1400 
     38 CB         -0.8115  -15.2906  -46.1291 C.3       7 UNK        -0.1800 
     39 N           1.2458  -15.6155  -44.8594 N.am      7 UNK        -0.5000 
     40 C           2.4310  -16.1282  -44.5026 C.2       6 UNK         0.5000 
     41 O           2.8301  -17.2351  -44.8586 O.2       6 UNK        -0.5000 
     42 CA          3.2801  -15.2901  -43.5325 C.3       6 UNK         0.1400 
     43 CB          4.1412  -14.2800  -44.2998 C.3       6 UNK        -0.1800 
     44 N           2.4550  -14.5857  -42.5489 N.am      6 UNK        -0.5000 
     45 C           1.8086  -15.1831  -41.5371 C.2       5 UNK         0.5000 
     46 O           1.8563  -16.3918  -41.3150 O.2       5 UNK        -0.5000 
     47 CA          0.9311  -14.2845  -40.6478 C.3       5 UNK         0.1400 
     48 CB          1.7832  -13.5716  -39.5870 C.3       5 UNK        -0.1800 
     49 N           0.1871  -13.2908  -41.4214 N.am      5 UNK        -0.5000 
     50 C          -0.8104  -13.5811  -42.2690 C.2       4 UNK         0.5000 
     51 O          -1.2440  -14.7176  -42.4520 O.2       4 UNK        -0.5000 
     52 CA         -1.4021  -12.4062  -43.0704 C.3       4 UNK         0.1400 
     53 CB         -2.5896  -11.7861  -42.3193 C.3       4 UNK        -0.1800 
     54 N          -0.4256  -11.3576  -43.3811 N.am      4 UNK        -0.5000 
     55 C           0.6552  -11.5303  -44.1525 C.2       3 UNK         0.5000 
     56 O           0.9726  -12.6122  -44.6530 O.2       3 UNK        -0.5000 
     57 CA          1.5440  -10.2972  -44.3729 C.3       3 UNK         0.1400 
     58 CB          2.9209  -10.4878  -43.7181 C.3       3 UNK        -0.1800 
     59 N           1.7124  -10.0789  -45.8049 N.am      3 UNK        -0.5000 
     60 C           0.8970   -9.3228  -46.5545 C.2       2 UNK         0.5000 
     61 O          -0.0096   -8.6310  -46.0885 O.2       2 UNK        -0.5000 
     62 CA          1.1106   -9.3481  -48.0832 C.3       2 UNK         0.1400 
     63 CB          2.0124   -8.1839  -48.5208 C.3       2 UNK        -0.1800 
     64 N           1.6892  -10.6037  -48.5619 N.am      2 UNK        -0.5000 
     65 C           1.0888  -11.8000  -48.4926 C.2       1 UNK         0.5000 
     66 O          -0.0876  -11.9444  -48.1577 O.2       1 UNK        -0.5000 
     67 C          -0.3231  -24.0592  -46.4568 C.2       11 UNK         0.5000 
     68 O          -1.4507  -23.6914  -46.7917 O.2       11 UNK        -0.5000 
     69 N           0.0646  -25.3412  -46.4543 N.am      12 UNK        -0.5000 
     70 CA         -0.7589  -26.4793  -46.8710 C.3       12 UNK         0.1400 
     71 CB          0.0329  -27.7789  -46.6682 C.3       12 UNK        -0.1800 
     72 C          -1.2641  -26.3732  -48.3229 C.2       12 UNK         0.5000 
     73 O          -2.3803  -26.8040  -48.6065 O.2       12 UNK        -0.5000 
     74 N          -0.4601  -25.7552  -49.2004 N.am      13 UNK        -0.5000 
     75 CA         -0.8205  -25.4416  -50.5837 C.3       13 UNK         0.1400 
     76 CB          0.4145  -24.9021  -51.3206 C.3       13 UNK        -0.1800 
     77 C          -1.9882  -24.4432  -50.6848 C.2       13 UNK         0.5000 
     78 O          -2.8742  -24.6338  -51.5162 O.2       13 UNK        -0.5000 
     79 N          -1.9904  -23.4228  -49.8149 N.am      14 UNK        -0.5000 
     80 CA         -3.0585  -22.4264  -49.7250 C.3       14 UNK         0.1400 
     81 CB         -2.5779  -21.2073  -48.9227 C.3       14 UNK        -0.1800 
     82 C          -4.3378  -23.0174  -49.1153 C.2       14 UNK         0.5000 
     83 O          -5.4320  -22.6925  -49.5759 O.2       14 UNK        -0.5000 
     84 N          -4.1786  -23.9042  -48.1226 N.am      15 UNK        -0.5000 
     85 CA         -5.2693  -24.6632  -47.5116 C.3       15 UNK         0.1400 
     86 CB         -4.7508  -25.4198  -46.2796 C.3       15 UNK        -0.1800 
     87 C          -5.9422  -25.6201  -48.5135 C.2       15 UNK         0.5000 
     88 O          -7.1693  -25.6266  -48.6115 O.2       15 UNK        -0.5000 
     89 N          -5.1304  -26.3656  -49.2781 N.am      16 UNK        -0.5000 
     90 CA         -5.5743  -27.2675  -50.3447 C.3       16 UNK         0.1400 
     91 CB         -4.3771  -28.0811  -50.8587 C.3       16 UNK        -0.1800 
     92 C          -6.2672  -26.5333  -51.5079 C.2       16 UNK         0.5000 
     93 O          -7.2444  -27.0455  -52.0545 O.2       16 UNK        -0.5000 
     94 N          -5.7734  -25.3328  -51.8390 N.am      17 UNK        -0.5000 
     95 CA         -6.3565  -24.4309  -52.8335 C.3       17 UNK         0.1400 
     96 CB         -5.2813  -23.4278  -53.2813 C.3       17 UNK        -0.1800 
     97 C          -7.6149  -23.6889  -52.3369 C.2       17 UNK         0.5000 
     98 O          -8.2409  -22.9914  -53.1333 O.2       17 UNK        -0.5000 
     99 N          -7.9538  -23.8188  -51.0447 N.am      18 UNK        -0.5000 
    100 CA        -9.0594  -23.1530  -50.3470 C.3       18 UNK         0.1400 
    101 CB       -10.4207  -23.6676  -50.8593 C.3       18 UNK        -0.1800 
    102 C         -8.9349  -21.6144  -50.3802 C.2       18 UNK         0.5000 
    103 O         -9.9183  -20.9128  -50.6230 O.2       18 UNK        -0.5000 
    104 N         -7.7059  -21.1312  -50.1487 N.am      19 UNK        -0.5000 
    105 CA        -7.2715  -19.7308  -50.1391 C.3       19 UNK         0.1400 
    106 CB        -8.0106  -18.9213  -49.0528 C.3       19 UNK        -0.1800 
    107 C         -7.2961  -19.0426  -51.5217 C.2       19 UNK         0.5000 
    108 O         -7.2263  -17.8133  -51.5855 O.2       19 UNK        -0.5000 
    109 N         -7.3543  -19.8289  -52.6063 N.am      20 UNK        -0.5000 
    110 CA        -7.1517  -19.3590  -53.9781 C.3       20 UNK         0.1400 
    111 CB        -7.7681  -20.3724  -54.9567 C.3       20 UNK        -0.1800 
    112 C         -5.6560  -19.1232  -54.2802 C.2       20 UNK         0.5000 
    113 O         -4.7948  -19.4009  -53.4408 O.2       20 UNK        -0.5000 
    114 N         -5.3745  -18.6048  -55.4819 N.am      21 UNK        -0.5000 
    115 CA        -4.0390  -18.2716  -55.9788 C.3       21 UNK         0.1400 
    116 CB        -4.1875  -17.3631  -57.2125 C.3       21 UNK        -0.1800 
    117 C         -3.1808  -19.5213  -56.2736 C.2       21 UNK         0.5000 
    118 O         -3.0415  -19.9225  -57.4306 O.2       21 UNK        -0.5000 
    119 N         -2.6220  -20.1113  -55.2126 N.am      22 UNK        -0.5000 
    120 CA        -1.6635  -21.2286  -55.2450 C.3       22 UNK         0.1400 
    121 C         -0.2526  -20.8802  -55.8076 C.2       22 UNK         0.5000 
    122 N          0.1080  -19.6137  -55.9762 N.am      22 UNK        -0.7600 
    123 O          0.5282  -21.7805  -56.1037 O.2       22 UNK        -0.5000 
    124 C124       -1.5654  -21.9415  -53.8683 C.3       23 UNK        -0.0398 
    125 S125       -1.3230  -20.8121  -52.4527 S.3       23 UNK        -0.2404 
    126 C126        0.4811  -20.8617  -52.2239 C.3       23 UNK        -0.0205 
    127 H127        5.9117  -12.7103  -49.2069 H         1 UNK         0.0600 
    128 H128        6.0452  -11.3150  -48.1314 H         1 UNK         0.0600 
    129 H129        6.2063  -12.9502  -47.4820 H         1 UNK         0.0600 
    130 H130        3.8130  -13.1299  -49.7742 H         1 UNK         0.3000 
    131 H131        1.7650  -13.7508  -48.0164 H         1 UNK         0.0600 
    132 H132        1.6312  -13.0788  -51.0005 H         1 UNK         0.0800 
    133 H133        0.3093  -13.7884  -50.1183 H         1 UNK         0.0800 
    134 H134       -0.1586  -16.1868  -50.4936 H         1 UNK         0.0800 
    135 H135        0.4337  -16.1076  -48.8536 H         1 UNK         0.0800 
    136 H136        0.1470  -18.1897  -51.8387 H         1 UNK         0.1150 
    137 H137        1.7699  -21.6806  -49.9524 H         1 UNK         0.1150 
    138 H138        2.0432  -17.8738  -48.0062 H         1 UNK         0.1150 
    139 H139        2.9859  -21.5132  -47.8991 H         1 UNK         0.0800 
    140 H140        3.6524  -19.9453  -47.5196 H         1 UNK         0.0800 
    141 H141        0.1943  -21.5855  -47.5755 H         1 UNK         0.0800 
    142 H142       -0.5087  -21.2322  -46.0212 H         1 UNK         0.0800 
    143 H143        1.6717  -23.3181  -46.5114 H         1 UNK         0.0600 
    144 H144        0.5697  -22.3069  -44.0512 H         1 UNK         0.3000 
    145 H145        0.8957  -24.0721  -41.9372 H         1 UNK         0.0600 
    146 H146        3.0530  -24.3959  -40.7049 H         1 UNK         0.0600 
    147 H147        2.7812  -25.6544  -41.8985 H         1 UNK         0.0600 
    148 H148        3.9315  -24.3687  -42.2334 H         1 UNK         0.0600 
    149 H149        1.2271  -21.9101  -41.5397 H         1 UNK         0.3000 
    150 H150        2.7266  -20.0311  -40.9446 H         1 UNK         0.0600 
    151 H151        4.9566  -19.6148  -41.9553 H         1 UNK         0.0600 
    152 H152        3.9617  -18.1697  -41.9894 H         1 UNK         0.0600 
    153 H153        4.1996  -19.1118  -43.4623 H         1 UNK         0.0600 
    154 H154        1.7857  -18.7342  -43.3562 H         1 UNK         0.3000 
    155 H155       -1.3703  -19.3831  -43.3713 H         1 UNK         0.0600 
    156 H156       -1.0552  -17.3899  -41.0625 H         1 UNK         0.0600 
    157 H157       -2.1024  -18.8063  -41.0736 H         1 UNK         0.0600 
    158 H158       -2.4350  -17.4636  -42.1550 H         1 UNK         0.0600 
    159 H159        0.3413  -16.9373  -43.1718 H         1 UNK         0.3000 
    160 H160        0.7425  -16.7033  -46.5523 H         1 UNK         0.0600 
    161 H161       -0.3523  -14.4571  -46.6611 H         1 UNK         0.0600 
    162 H162       -1.3679  -14.8833  -45.2850 H         1 UNK         0.0600 
    163 H163       -1.5321  -15.7512  -46.8059 H         1 UNK         0.0600 
    164 H164        1.0196  -14.6706  -44.5658 H         1 UNK         0.3000 
    165 H165        3.9496  -15.9669  -42.9983 H         1 UNK         0.0600 
    166 H166        4.7702  -13.6980  -43.6263 H         1 UNK         0.0600 
    167 H167        4.7984  -14.7840  -45.0095 H         1 UNK         0.0600 
    168 H168        3.5202  -13.5877  -44.8656 H         1 UNK         0.0600 
    169 H169        2.3198  -13.5967  -42.6972 H         1 UNK         0.3000 
    170 H170        0.2114  -14.9252  -40.1334 H         1 UNK         0.0600 
    171 H171        2.3382  -14.2920  -38.9847 H         1 UNK         0.0600 
    172 H172        2.5083  -12.8934  -40.0387 H         1 UNK         0.0600 
    173 H173        1.1601  -12.9919  -38.9057 H         1 UNK         0.0600 
    174 H174        0.4714  -12.3273  -41.3261 H         1 UNK         0.3000 
    175 H175       -1.7704  -12.8071  -44.0168 H         1 UNK         0.0600 
    176 H176       -3.0729  -11.0117  -42.9154 H         1 UNK         0.0600 
    177 H177       -3.3456  -12.5398  -42.0944 H         1 UNK         0.0600 
    178 H178       -2.2800  -11.3394  -41.3737 H         1 UNK         0.0600 
    179 H179       -0.6198  -10.4394  -43.0078 H         1 UNK         0.3000 
    180 H180        1.0746   -9.4244  -43.9142 H         1 UNK         0.0600 
    181 H181        3.4659  -11.3242  -44.1548 H         1 UNK         0.0600 
    182 H182        2.8242  -10.6788  -42.6487 H         1 UNK         0.0600 
    183 H183        3.5362   -9.5957  -43.8352 H         1 UNK         0.0600 
    184 H184        2.3951  -10.6767  -46.2633 H         1 UNK         0.3000 
    185 H185        0.1342   -9.2233  -48.5560 H         1 UNK         0.0600 
    186 H186        3.0121   -8.2669  -48.0924 H         1 UNK         0.0600 
    187 H187        2.1126   -8.1480  -49.6057 H         1 UNK         0.0600 
    188 H188        1.5968   -7.2271  -48.2019 H         1 UNK         0.0600 
    189 H189        2.6596  -10.5794  -48.8386 H         1 UNK         0.3000 
    190 H190        0.9837  -25.5533  -46.0813 H         1 UNK         0.3000 
    191 H191       -1.6335  -26.5070  -46.2188 H         1 UNK         0.0600 
    192 H192        0.3223  -27.9053  -45.6247 H         1 UNK         0.0600 
    193 H193        0.9406  -27.7960  -47.2727 H         1 UNK         0.0600 
    194 H194       -0.5646  -28.6480  -46.9467 H         1 UNK         0.0600 
    195 H195        0.4468  -25.4475  -48.8831 H         1 UNK         0.3000 
    196 H196       -1.1332  -26.3680  -51.0700 H         1 UNK         0.0600 
    197 H197        0.1737  -24.6479  -52.3537 H         1 UNK         0.0600 
    198 H198        1.2123  -25.6445  -51.3474 H         1 UNK         0.0600 
    199 H199        0.8080  -24.0043  -50.8433 H         1 UNK         0.0600 
    200 H200       -1.2689  -23.3764  -49.1115 H         1 UNK         0.3000 
    201 H201       -3.3024  -22.0918  -50.7346 H         1 UNK         0.0600 
    202 H202       -1.6628  -20.7898  -49.3435 H         1 UNK         0.0600 
    203 H203       -2.3857  -21.4552  -47.8791 H         1 UNK         0.0600 
    204 H204       -3.3293  -20.4170  -48.9356 H         1 UNK         0.0600 
    205 H205       -3.2421  -24.0732  -47.7722 H         1 UNK         0.3000 
    206 H206       -6.0227  -23.9477  -47.1754 H         1 UNK         0.0600 
    207 H207       -4.2827  -24.7406  -45.5667 H         1 UNK         0.0600 
    208 H208       -5.5680  -25.9239  -45.7623 H         1 UNK         0.0600 
    209 H209       -4.0182  -26.1797  -46.5488 H         1 UNK         0.0600 
    210 H210       -4.1288  -26.3379  -49.1020 H         1 UNK         0.3000 
    211 H211       -6.2984  -27.9617  -49.9136 H         1 UNK         0.0600 
    212 H212       -3.5979  -27.4353  -51.2654 H         1 UNK         0.0600 
    213 H213       -4.6805  -28.7695  -51.6483 H         1 UNK         0.0600 
    214 H214       -3.9343  -28.6770  -50.0604 H         1 UNK         0.0600 
    215 H215       -4.9223  -25.0138  -51.3889 H         1 UNK         0.3000 
    216 H216       -6.6521  -25.0197  -53.7041 H         1 UNK         0.0600 
    217 H217       -4.9484  -22.7977  -52.4559 H         1 UNK         0.0600 
    218 H218       -5.6517  -22.7699  -54.0666 H         1 UNK         0.0600 
    219 H219       -4.4110  -23.9451  -53.6842 H         1 UNK         0.0600 
    220 H220       -7.3669  -24.4005  -50.4600 H         1 UNK         0.3000 
    221 H221       -8.9736  -23.4412  -49.2984 H         1 UNK         0.0600 
    222 H222      -10.6048  -23.3728  -51.8928 H         1 UNK         0.0600 
    223 H223      -10.4750  -24.7550  -50.8059 H         1 UNK         0.0600 
    224 H224      -11.2389  -23.2723  -50.2564 H         1 UNK         0.0600 
    225 H225       -6.9585  -21.8032  -49.9748 H         1 UNK         0.3000 
    226 H226       -6.2189  -19.7620  -49.8537 H         1 UNK         0.0600 
    227 H227       -7.9666  -19.4247  -48.0870 H         1 UNK         0.0600 
    228 H228       -9.0599  -18.7660  -49.3045 H         1 UNK         0.0600 
    229 H229       -7.5593  -17.9370  -48.9235 H         1 UNK         0.0600 
    230 H230       -7.4196  -20.8290  -52.4773 H         1 UNK         0.3000 
    231 H231       -7.6735  -18.4077  -54.1009 H         1 UNK         0.0600 
    232 H232       -8.8000  -20.6021  -54.6896 H         1 UNK         0.0600 
    233 H233       -7.2116  -21.3086  -54.9744 H         1 UNK         0.0600 
    234 H234       -7.7805  -19.9831  -55.9750 H         1 UNK         0.0600 
    235 H235       -6.1356  -18.4308  -56.1219 H         1 UNK         0.3000 
    236 H236       -3.5231  -17.6940  -55.2087 H         1 UNK         0.0600 
    237 H237       -3.2115  -17.0858  -57.6131 H         1 UNK         0.0600 
    238 H238       -4.7438  -17.8536  -58.0123 H         1 UNK         0.0600 
    239 H239       -4.7076  -16.4386  -56.9609 H         1 UNK         0.0600 
    240 H240       -2.8685  -19.7709  -54.2899 H         1 UNK         0.3000 
    241 H241       -2.0691  -21.9610  -55.9455 H         1 UNK         0.0600 
    242 H242        1.0208  -19.4030  -56.3478 H         1 UNK         0.3800 
    243 H243       -0.5175  -18.8648  -55.7287 H         1 UNK         0.3800 
    244 H244       -2.4971  -22.4753  -53.6828 H         1 UNK         0.0800 
    245 H245       -0.7926  -22.7122  -53.8685 H         1 UNK         0.0800 
    246 H246        0.9742  -20.4797  -53.1183 H         1 UNK         0.0800 
    247 H247        0.8006  -21.8976  -52.1082 H         1 UNK         0.0800 
@<TRIPOS>BOND
     1    1    2 1    
     2    1  127 1    
     3    1  128 1    
     4    1  129 1    
     5    2    3 2    
     6    2    4 am   BACKBONE|DICT|INTERRES
     7    4    5 1    
     8    4  130 1    
     9    5    6 1    
    10    5   65 1    
    11    5  131 1    
    12    6    7 1    
    13    6  132 1    
    14    6  133 1    
    15    7    8 1    
    16    8    9 1    
    17    8  134 1    
    18    8  135 1    
    19    9   10 ar   
    20    9   14 ar   
    21   10   11 ar   
    22   10  136 1    
    23   11   12 ar   
    24   11  126 1    
    25   12   13 ar   
    26   12  137 1    
    27   13   14 ar   
    28   13   15 1    
    29   14  138 1    
    30   15   16 1    
    31   15  139 1    
    32   15  140 1    
    33   16   17 1    
    34   17   18 1    
    35   17  141 1    
    36   17  142 1    
    37   18   19 1    
    38   18   67 1    
    39   18  143 1    
    40   19   20 am   BACKBONE|DICT|INTERRES
    41   19  144 1    
    42   20   21 2    
    43   20   22 1    
    44   22   23 1    
    45   22   24 1    
    46   22  145 1    
    47   23  146 1    
    48   23  147 1    
    49   23  148 1    
    50   24   25 am   BACKBONE|DICT|INTERRES
    51   24  149 1    
    52   25   26 2    
    53   25   27 1    
    54   27   28 1    
    55   27   29 1    
    56   27  150 1    
    57   28  151 1    
    58   28  152 1    
    59   28  153 1    
    60   29   30 am   BACKBONE|DICT|INTERRES
    61   29  154 1    
    62   30   31 2    
    63   30   32 1    
    64   32   33 1    
    65   32   34 1    
    66   32  155 1    
    67   33  156 1    
    68   33  157 1    
    69   33  158 1    
    70   34   35 am   BACKBONE|DICT|INTERRES
    71   34  159 1    
    72   35   36 2    
    73   35   37 1    
    74   37   38 1    
    75   37   39 1    
    76   37  160 1    
    77   38  161 1    
    78   38  162 1    
    79   38  163 1    
    80   39   40 am   BACKBONE|DICT|INTERRES
    81   39  164 1    
    82   40   41 2    
    83   40   42 1    
    84   42   43 1    
    85   42   44 1    
    86   42  165 1    
    87   43  166 1    
    88   43  167 1    
    89   43  168 1    
    90   44   45 am   BACKBONE|DICT|INTERRES
    91   44  169 1    
    92   45   46 2    
    93   45   47 1    
    94   47   48 1    
    95   47   49 1    
    96   47  170 1    
    97   48  171 1    
    98   48  172 1    
    99   48  173 1    
   100   49   50 am   BACKBONE|DICT|INTERRES
   101   49  174 1    
   102   50   51 2    
   103   50   52 1    
   104   52   53 1    
   105   52   54 1    
   106   52  175 1    
   107   53  176 1    
   108   53  177 1    
   109   53  178 1    
   110   54   55 am   BACKBONE|DICT|INTERRES
   111   54  179 1    
   112   55   56 2    
   113   55   57 1    
   114   57   58 1    
   115   57   59 1    
   116   57  180 1    
   117   58  181 1    
   118   58  182 1    
   119   58  183 1    
   120   59   60 am   BACKBONE|DICT|INTERRES
   121   59  184 1    
   122   60   61 2    
   123   60   62 1    
   124   62   63 1    
   125   62   64 1    
   126   62  185 1    
   127   63  186 1    
   128   63  187 1    
   129   63  188 1    
   130   64   65 am   BACKBONE|DICT|INTERRES
   131   64  189 1    
   132   65   66 2    
   133   67   68 2    
   134   67   69 am   BACKBONE|DICT|INTERRES
   135   69   70 1    
   136   69  190 1    
   137   70   71 1    
   138   70   72 1    
   139   70  191 1    
   140   71  192 1    
   141   71  193 1    
   142   71  194 1    
   143   72   73 2    
   144   72   74 am   BACKBONE|DICT|INTERRES
   145   74   75 1    
   146   74  195 1    
   147   75   76 1    
   148   75   77 1    
   149   75  196 1    
   150   76  197 1    
   151   76  198 1    
   152   76  199 1    
   153   77   78 2    
   154   77   79 am   BACKBONE|DICT|INTERRES
   155   79   80 1    
   156   79  200 1    
   157   80   81 1    
   158   80   82 1    
   159   80  201 1    
   160   81  202 1    
   161   81  203 1    
   162   81  204 1    
   163   82   83 2    
   164   82   84 am   BACKBONE|DICT|INTERRES
   165   84   85 1    
   166   84  205 1    
   167   85   86 1    
   168   85   87 1    
   169   85  206 1    
   170   86  207 1    
   171   86  208 1    
   172   86  209 1    
   173   87   88 2    
   174   87   89 am   BACKBONE|DICT|INTERRES
   175   89   90 1    
   176   89  210 1    
   177   90   91 1    
   178   90   92 1    
   179   90  211 1    
   180   91  212 1    
   181   91  213 1    
   182   91  214 1    
   183   92   93 2    
   184   92   94 am   BACKBONE|DICT|INTERRES
   185   94   95 1    
   186   94  215 1    
   187   95   96 1    
   188   95   97 1    
   189   95  216 1    
   190   96  217 1    
   191   96  218 1    
   192   96  219 1    
   193   97   98 2    
   194   97   99 am   BACKBONE|DICT|INTERRES
   195   99  100 1    
   196   99  220 1    
   197  100  101 1    
   198  100  102 1    
   199  100  221 1    
   200  101  222 1    
   201  101  223 1    
   202  101  224 1    
   203  102  103 2    
   204  102  104 am   BACKBONE|DICT|INTERRES
   205  104  105 1    
   206  104  225 1    
   207  105  106 1    
   208  105  107 1    
   209  105  226 1    
   210  106  227 1    
   211  106  228 1    
   212  106  229 1    
   213  107  108 2    
   214  107  109 am   BACKBONE|DICT|INTERRES
   215  109  110 1    
   216  109  230 1    
   217  110  111 1    
   218  110  112 1    
   219  110  231 1    
   220  111  232 1    
   221  111  233 1    
   222  111  234 1    
   223  112  113 2    
   224  112  114 am   BACKBONE|DICT|INTERRES
   225  114  115 1    
   226  114  235 1    
   227  115  116 1    
   228  115  117 1    
   229  115  236 1    
   230  116  237 1    
   231  116  238 1    
   232  116  239 1    
   233  117  118 2    
   234  117  119 am   BACKBONE|DICT|INTERRES
   235  119  120 1    
   236  119  240 1    
   237  120  121 1    
   238  120  124 1    
   239  120  241 1    
   240  121  122 am   BACKBONE|DICT|INTERRES
   241  121  123 2    
   242  122  242 1    
   243  122  243 1    
   244  124  125 1    
   245  124  244 1    
   246  124  245 1    
   247  125  126 1    
   248  126  246 1    
   249  126  247 1    
@<TRIPOS>SUBSTRUCTURE
     1 UNK         1 GROUP             0       ****    0 ROOT    
