@<TRIPOS>MOLECULE
3R540
247   249    1
SMALL
USER_CHARGES


@<TRIPOS>ATOM
      1 CA          3.9039  -12.3467  -46.3312 C.3       0 UNK        -0.1800 
      2 C           3.5541  -13.1799  -47.5558 C.2       0 UNK         0.5000 
      3 O           4.3219  -13.2119  -48.5173 O.2       0 UNK        -0.5000 
      4 N           2.3982  -13.8557  -47.5217 N.am      1 UNK        -0.5000 
      5 CA          1.8828  -14.7195  -48.5957 C.3       1 UNK         0.1400 
      6 C6          0.3928  -15.0937  -48.3863 C.3       23 UNK        -0.0398 
      7 S7         -0.6720  -13.6687  -47.9781 S.3       23 UNK        -0.2404 
      8 C8         -1.5085  -13.3629  -49.5623 C.3       23 UNK        -0.0205 
      9 C9         -2.5522  -14.4240  -49.8780 C.ar      23 UNK        -0.0193 
     10 C10        -2.3571  -15.3135  -50.9378 C.ar      23 UNK        -0.1150 
     11 C11        -3.3447  -16.2428  -51.2770 C.ar      23 UNK        -0.0193 
     12 C12        -4.5244  -16.2965  -50.5273 C.ar      23 UNK        -0.1150 
     13 C13        -4.7261  -15.4202  -49.4560 C.ar      23 UNK        -0.0193 
     14 C14        -3.7362  -14.4861  -49.1379 C.ar      23 UNK        -0.1150 
     15 C15        -6.0364  -15.4401  -48.6809 C.3       23 UNK        -0.0205 
     16 S16        -6.2563  -16.9526  -47.6920 S.3       23 UNK        -0.2404 
     17 C17        -4.9898  -16.7646  -46.3778 C.3       23 UNK        -0.0398 
     18 CA         -3.8903  -17.8729  -46.2329 C.3       11 UNK         0.1400 
     19 N          -3.5842  -18.2188  -44.8374 N.am      11 UNK        -0.5000 
     20 C          -4.4103  -18.7194  -43.9065 C.2       10 UNK         0.5000 
     21 O          -5.5905  -18.9997  -44.1190 O.2       10 UNK        -0.5000 
     22 CA         -3.8205  -18.9618  -42.5046 C.3       10 UNK         0.1400 
     23 CB         -3.2642  -20.3896  -42.3987 C.3       10 UNK        -0.1800 
     24 N          -2.7747  -18.0014  -42.1480 N.am      10 UNK        -0.5000 
     25 C          -2.9897  -16.6962  -41.9257 C.2       9 UNK         0.5000 
     26 O          -4.1058  -16.1755  -41.9346 O.2       9 UNK        -0.5000 
     27 CA         -1.7502  -15.8191  -41.6707 C.3       9 UNK         0.1400 
     28 CB         -1.3456  -15.8713  -40.1897 C.3       9 UNK        -0.1800 
     29 N          -0.6059  -16.1910  -42.5040 N.am      9 UNK        -0.5000 
     30 C          -0.5625  -16.0766  -43.8394 C.2       8 UNK         0.5000 
     31 O          -1.4735  -15.6065  -44.5199 O.2       8 UNK        -0.5000 
     32 CA          0.6953  -16.6236  -44.5375 C.3       8 UNK         0.1400 
     33 CB          1.8635  -15.6325  -44.4319 C.3       8 UNK        -0.1800 
     34 N           1.1041  -17.9246  -44.0153 N.am      8 UNK        -0.5000 
     35 C           0.3679  -19.0421  -44.0965 C.2       7 UNK         0.5000 
     36 O          -0.7135  -19.1178  -44.6827 O.2       7 UNK        -0.5000 
     37 CA          0.9197  -20.2709  -43.3578 C.3       7 UNK         0.1400 
     38 CB          1.9272  -21.0253  -44.2372 C.3       7 UNK        -0.1800 
     39 N           1.5309  -19.9112  -42.0784 N.am      7 UNK        -0.5000 
     40 C           0.8315  -19.5056  -41.0078 C.2       6 UNK         0.5000 
     41 O          -0.3958  -19.4153  -40.9887 O.2       6 UNK        -0.5000 
     42 CA          1.6406  -19.0914  -39.7658 C.3       6 UNK         0.1400 
     43 CB          2.0350  -20.3243  -38.9392 C.3       6 UNK        -0.1800 
     44 N           2.8422  -18.3302  -40.1077 N.am      6 UNK        -0.5000 
     45 C           2.8327  -17.1144  -40.6720 C.2       5 UNK         0.5000 
     46 O           1.8054  -16.4882  -40.9277 O.2       5 UNK        -0.5000 
     47 CA          4.1986  -16.5201  -41.0604 C.3       5 UNK         0.1400 
     48 CB          4.7952  -15.7277  -39.8880 C.3       5 UNK        -0.1800 
     49 N           5.1653  -17.5257  -41.5101 N.am      5 UNK        -0.5000 
     50 C           5.0045  -18.3080  -42.5848 C.2       4 UNK         0.5000 
     51 O           3.9972  -18.3002  -43.2975 O.2       4 UNK        -0.5000 
     52 CA          6.1518  -19.2761  -42.9079 C.3       4 UNK         0.1400 
     53 CB          5.6739  -20.7357  -42.8574 C.3       4 UNK        -0.1800 
     54 N           6.6614  -18.9793  -44.2410 N.am      4 UNK        -0.5000 
     55 C           7.5727  -18.0356  -44.5117 C.2       3 UNK         0.5000 
     56 O           8.1883  -17.4088  -43.6483 O.2       3 UNK        -0.5000 
     57 CA          7.8232  -17.7264  -46.0009 C.3       3 UNK         0.1400 
     58 CB          8.9582  -18.6034  -46.5516 C.3       3 UNK        -0.1800 
     59 N           6.6281  -17.9053  -46.8312 N.am      3 UNK        -0.5000 
     60 C           5.5366  -17.1326  -46.7575 C.2       2 UNK         0.5000 
     61 O           5.4319  -16.1591  -46.0052 O.2       2 UNK        -0.5000 
     62 CA          4.3621  -17.5276  -47.6635 C.3       2 UNK         0.1400 
     63 CB          3.6286  -18.7610  -47.1093 C.3       2 UNK        -0.1800 
     64 N           3.4391  -16.4039  -47.7229 N.am      2 UNK        -0.5000 
     65 C           2.7214  -16.0060  -48.7780 C.2       1 UNK         0.5000 
     66 O           2.6945  -16.6045  -49.8534 O.2       1 UNK        -0.5000 
     67 C          -4.0751  -19.1369  -47.1044 C.2       11 UNK         0.5000 
     68 O          -3.4050  -19.2695  -48.1272 O.2       11 UNK        -0.5000 
     69 N          -4.9383  -20.0660  -46.6713 N.am      12 UNK        -0.5000 
     70 CA         -5.2312  -21.3295  -47.3491 C.3       12 UNK         0.1400 
     71 CB         -6.3697  -22.0524  -46.6166 C.3       12 UNK        -0.1800 
     72 C          -4.0008  -22.2447  -47.4713 C.2       12 UNK         0.5000 
     73 O          -3.8438  -22.9164  -48.4896 O.2       12 UNK        -0.5000 
     74 N          -3.1338  -22.2250  -46.4502 N.am      13 UNK        -0.5000 
     75 CA         -1.8606  -22.9430  -46.4295 C.3       13 UNK         0.1400 
     76 CB         -1.3065  -22.9447  -45.0010 C.3       13 UNK        -0.1800 
     77 C          -0.8408  -22.3511  -47.4190 C.2       13 UNK         0.5000 
     78 O          -0.1826  -23.1100  -48.1303 O.2       13 UNK        -0.5000 
     79 N          -0.7699  -21.0125  -47.4949 N.am      14 UNK        -0.5000 
     80 CA          0.0231  -20.2809  -48.4898 C.3       14 UNK         0.1400 
     81 CB          0.0331  -18.7833  -48.1480 C.3       14 UNK        -0.1800 
     82 C          -0.4776  -20.5133  -49.9294 C.2       14 UNK         0.5000 
     83 O           0.3294  -20.5972  -50.8543 O.2       14 UNK        -0.5000 
     84 N          -1.7971  -20.6855  -50.0723 N.am      15 UNK        -0.5000 
     85 CA         -2.4933  -21.0885  -51.2926 C.3       15 UNK         0.1400 
     86 CB         -3.9590  -20.6395  -51.1816 C.3       15 UNK        -0.1800 
     87 C          -2.4013  -22.6028  -51.5935 C.2       15 UNK         0.5000 
     88 O          -3.1362  -23.0795  -52.4583 O.2       15 UNK        -0.5000 
     89 N          -1.5359  -23.3431  -50.8825 N.am      16 UNK        -0.5000 
     90 CA         -1.2428  -24.7714  -51.0474 C.3       16 UNK         0.1400 
     91 CB         -0.5687  -25.0292  -52.4124 C.3       16 UNK        -0.1800 
     92 C          -2.4759  -25.6651  -50.8054 C.2       16 UNK         0.5000 
     93 O          -2.7993  -26.5147  -51.6352 O.2       16 UNK        -0.5000 
     94 N          -3.1670  -25.4198  -49.6834 N.am      17 UNK        -0.5000 
     95 CA         -4.4503  -26.0145  -49.2859 C.3       17 UNK         0.1400 
     96 CB         -4.3283  -27.5376  -49.0698 C.3       17 UNK        -0.1800 
     97 C          -5.5858  -25.6175  -50.2528 C.2       17 UNK         0.5000 
     98 O          -6.4490  -26.4349  -50.5754 O.2       17 UNK        -0.5000 
     99 N          -5.5307  -24.3577  -50.7095 N.am      18 UNK        -0.5000 
    100 CA        -6.4062  -23.7098  -51.6917 C.3       18 UNK         0.1400 
    101 CB        -7.8481  -23.5988  -51.1560 C.3       18 UNK        -0.1800 
    102 C         -6.3403  -24.3149  -53.1128 C.2       18 UNK         0.5000 
    103 O         -7.2264  -24.0443  -53.9247 O.2       18 UNK        -0.5000 
    104 N         -5.2873  -25.0881  -53.4172 N.am      19 UNK        -0.5000 
    105 CA        -5.0115  -25.6129  -54.7574 C.3       19 UNK         0.1400 
    106 CB        -4.0011  -26.7646  -54.6597 C.3       19 UNK        -0.1800 
    107 C         -4.4907  -24.5231  -55.7139 C.2       19 UNK         0.5000 
    108 O         -4.7385  -24.6004  -56.9176 O.2       19 UNK        -0.5000 
    109 N         -3.8013  -23.5220  -55.1563 N.am      20 UNK        -0.5000 
    110 CA        -3.2954  -22.3349  -55.8332 C.3       20 UNK         0.1400 
    111 CB        -1.7605  -22.3107  -55.7115 C.3       20 UNK        -0.1800 
    112 C         -3.9679  -21.1021  -55.2052 C.2       20 UNK         0.5000 
    113 O         -3.2868  -20.2097  -54.6974 O.2       20 UNK        -0.5000 
    114 N         -5.3088  -21.1031  -55.2123 N.am      21 UNK        -0.5000 
    115 CA        -6.1585  -20.0284  -54.6995 C.3       21 UNK         0.1400 
    116 CB        -7.6290  -20.4642  -54.7809 C.3       21 UNK        -0.1800 
    117 C         -5.9389  -18.7010  -55.4489 C.2       21 UNK         0.5000 
    118 O         -5.8517  -18.6968  -56.6794 O.2       21 UNK        -0.5000 
    119 N         -5.8659  -17.6078  -54.6845 N.am      22 UNK        -0.5000 
    120 CA        -5.5864  -16.2494  -55.1787 C.3       22 UNK         0.1400 
    121 C         -6.8645  -15.4232  -55.5093 C.2       22 UNK         0.5000 
    122 N         -8.0693  -15.9447  -55.3109 N.am      22 UNK        -0.7600 
    123 O         -6.7635  -14.2895  -55.9704 O.2       22 UNK        -0.5000 
    124 C124       -4.6541  -15.4831  -54.2046 C.3       23 UNK        -0.0398 
    125 S125       -3.0076  -16.2634  -54.0443 S.3       23 UNK        -0.2404 
    126 C126       -3.1431  -17.1707  -52.4673 C.3       23 UNK        -0.0205 
    127 H127        4.8279  -12.7125  -45.8829 H         1 UNK         0.0600 
    128 H128        3.1200  -12.3881  -45.5745 H         1 UNK         0.0600 
    129 H129        4.0490  -11.3042  -46.6143 H         1 UNK         0.0600 
    130 H130        1.7840  -13.7427  -46.7287 H         1 UNK         0.3000 
    131 H131        1.9555  -14.1557  -49.5282 H         1 UNK         0.0600 
    132 H132        0.0040  -15.5986  -49.2718 H         1 UNK         0.0800 
    133 H133        0.2866  -15.8095  -47.5735 H         1 UNK         0.0800 
    134 H134       -0.7650  -13.2926  -50.3579 H         1 UNK         0.0800 
    135 H135       -1.9979  -12.3890  -49.5171 H         1 UNK         0.0800 
    136 H136       -1.4491  -15.2654  -51.5225 H         1 UNK         0.1150 
    137 H137       -5.2950  -17.0104  -50.7817 H         1 UNK         0.1150 
    138 H138       -3.8902  -13.7921  -48.3234 H         1 UNK         0.1150 
    139 H139       -6.1189  -14.5696  -48.0282 H         1 UNK         0.0800 
    140 H140       -6.8627  -15.3652  -49.3890 H         1 UNK         0.0800 
    141 H141       -5.5493  -16.6596  -45.4483 H         1 UNK         0.0800 
    142 H142       -4.4957  -15.7999  -46.4992 H         1 UNK         0.0800 
    143 H143       -2.9647  -17.4246  -46.5996 H         1 UNK         0.0600 
    144 H144       -2.6113  -18.1037  -44.5768 H         1 UNK         0.3000 
    145 H145       -4.6337  -18.8602  -41.7831 H         1 UNK         0.0600 
    146 H146       -2.9297  -20.6071  -41.3843 H         1 UNK         0.0600 
    147 H147       -4.0246  -21.1283  -42.6552 H         1 UNK         0.0600 
    148 H148       -2.4184  -20.5411  -43.0681 H         1 UNK         0.0600 
    149 H149       -1.8341  -18.3673  -42.0473 H         1 UNK         0.3000 
    150 H150       -2.0184  -14.7887  -41.9131 H         1 UNK         0.0600 
    151 H151       -2.1789  -15.5878  -39.5456 H         1 UNK         0.0600 
    152 H152       -0.5255  -15.1840  -39.9813 H         1 UNK         0.0600 
    153 H153       -1.0265  -16.8714  -39.8948 H         1 UNK         0.0600 
    154 H154        0.2167  -16.5320  -42.0142 H         1 UNK         0.3000 
    155 H155        0.4556  -16.7621  -45.5905 H         1 UNK         0.0600 
    156 H156        2.1397  -15.4451  -43.3950 H         1 UNK         0.0600 
    157 H157        1.5996  -14.6721  -44.8740 H         1 UNK         0.0600 
    158 H158        2.7485  -16.0055  -44.9463 H         1 UNK         0.0600 
    159 H159        2.0083  -17.9724  -43.5566 H         1 UNK         0.3000 
    160 H160        0.0864  -20.9392  -43.1411 H         1 UNK         0.0600 
    161 H161        2.3007  -21.9179  -43.7354 H         1 UNK         0.0600 
    162 H162        2.7816  -20.4014  -44.4978 H         1 UNK         0.0600 
    163 H163        1.4642  -21.3457  -45.1715 H         1 UNK         0.0600 
    164 H164        2.5392  -19.8986  -42.0400 H         1 UNK         0.3000 
    165 H165        1.0013  -18.4563  -39.1489 H         1 UNK         0.0600 
    166 H166        2.5407  -20.0355  -38.0176 H         1 UNK         0.0600 
    167 H167        1.1540  -20.9026  -38.6575 H         1 UNK         0.0600 
    168 H168        2.6999  -20.9877  -39.4938 H         1 UNK         0.0600 
    169 H169        3.7321  -18.7720  -39.9306 H         1 UNK         0.3000 
    170 H170        4.0328  -15.8285  -41.8887 H         1 UNK         0.0600 
    171 H171        4.1034  -14.9565  -39.5462 H         1 UNK         0.0600 
    172 H172        5.0158  -16.3720  -39.0360 H         1 UNK         0.0600 
    173 H173        5.7187  -15.2271  -40.1795 H         1 UNK         0.0600 
    174 H174        6.0257  -17.5871  -40.9848 H         1 UNK         0.3000 
    175 H175        6.9495  -19.1562  -42.1715 H         1 UNK         0.0600 
    176 H176        4.9146  -20.9419  -43.6114 H         1 UNK         0.0600 
    177 H177        6.5024  -21.4239  -43.0256 H         1 UNK         0.0600 
    178 H178        5.2457  -20.9750  -41.8832 H         1 UNK         0.0600 
    179 H179        6.1720  -19.4061  -45.0128 H         1 UNK         0.3000 
    180 H180        8.1338  -16.6818  -46.0732 H         1 UNK         0.0600 
    181 H181        8.6990  -19.6626  -46.5249 H         1 UNK         0.0600 
    182 H182        9.8700  -18.4740  -45.9669 H         1 UNK         0.0600 
    183 H183        9.1953  -18.3406  -47.5827 H         1 UNK         0.0600 
    184 H184        6.6421  -18.6793  -47.4799 H         1 UNK         0.3000 
    185 H185        4.7549  -17.7441  -48.6592 H         1 UNK         0.0600 
    186 H186        4.3065  -19.6049  -46.9787 H         1 UNK         0.0600 
    187 H187        3.1702  -18.5531  -46.1415 H         1 UNK         0.0600 
    188 H188        2.8450  -19.0843  -47.7918 H         1 UNK         0.0600 
    189 H189        3.4867  -15.7982  -46.9137 H         1 UNK         0.3000 
    190 H190       -5.4375  -19.8707  -45.8079 H         1 UNK         0.3000 
    191 H191       -5.5731  -21.0925  -48.3577 H         1 UNK         0.0600 
    192 H192       -6.6216  -22.9897  -47.1150 H         1 UNK         0.0600 
    193 H193       -7.2734  -21.4430  -46.5962 H         1 UNK         0.0600 
    194 H194       -6.1009  -22.2879  -45.5860 H         1 UNK         0.0600 
    195 H195       -3.3433  -21.6381  -45.6572 H         1 UNK         0.3000 
    196 H196       -2.0453  -23.9788  -46.7229 H         1 UNK         0.0600 
    197 H197       -0.3270  -23.4228  -44.9546 H         1 UNK         0.0600 
    198 H198       -1.9671  -23.4836  -44.3216 H         1 UNK         0.0600 
    199 H199       -1.2015  -21.9288  -44.6287 H         1 UNK         0.0600 
    200 H200       -1.3473  -20.4552  -46.8815 H         1 UNK         0.3000 
    201 H201        1.0492  -20.6499  -48.4355 H         1 UNK         0.0600 
    202 H202        0.4774  -18.6067  -47.1696 H         1 UNK         0.0600 
    203 H203       -0.9684  -18.3546  -48.1450 H         1 UNK         0.0600 
    204 H204        0.6213  -18.2275  -48.8779 H         1 UNK         0.0600 
    205 H205       -2.3852  -20.5095  -49.2633 H         1 UNK         0.3000 
    206 H206       -2.0413  -20.5642  -52.1368 H         1 UNK         0.0600 
    207 H207       -4.0365  -19.5888  -50.9046 H         1 UNK         0.0600 
    208 H208       -4.4743  -20.7690  -52.1312 H         1 UNK         0.0600 
    209 H209       -4.5009  -21.2180  -50.4360 H         1 UNK         0.0600 
    210 H210       -1.0124  -22.8831  -50.1484 H         1 UNK         0.3000 
    211 H211       -0.5215  -25.0292  -50.2708 H         1 UNK         0.0600 
    212 H212        0.3168  -24.4061  -52.5375 H         1 UNK         0.0600 
    213 H213       -1.2416  -24.8241  -53.2458 H         1 UNK         0.0600 
    214 H214       -0.2492  -26.0682  -52.4998 H         1 UNK         0.0600 
    215 H215       -2.8846  -24.6233  -49.1232 H         1 UNK         0.3000 
    216 H216       -4.7056  -25.5699  -48.3230 H         1 UNK         0.0600 
    217 H217       -5.2399  -27.9408  -48.6276 H         1 UNK         0.0600 
    218 H218       -3.5075  -27.7751  -48.3931 H         1 UNK         0.0600 
    219 H219       -4.1586  -28.0718  -50.0049 H         1 UNK         0.0600 
    220 H220       -4.7705  -23.7856  -50.3625 H         1 UNK         0.3000 
    221 H221       -6.0258  -22.6940  -51.7979 H         1 UNK         0.0600 
    222 H222       -8.3320  -24.5735  -51.0901 H         1 UNK         0.0600 
    223 H223       -7.8661  -23.1460  -50.1646 H         1 UNK         0.0600 
    224 H224       -8.4612  -22.9741  -51.8067 H         1 UNK         0.0600 
    225 H225       -4.5838  -25.2537  -52.7091 H         1 UNK         0.3000 
    226 H226       -5.9402  -26.0103  -55.1720 H         1 UNK         0.0600 
    227 H227       -3.8484  -27.2319  -55.6332 H         1 UNK         0.0600 
    228 H228       -3.0289  -26.4172  -54.3085 H         1 UNK         0.0600 
    229 H229       -4.3481  -27.5396  -53.9759 H         1 UNK         0.0600 
    230 H230       -3.6679  -23.5218  -54.1457 H         1 UNK         0.3000 
    231 H231       -3.5578  -22.3451  -56.8928 H         1 UNK         0.0600 
    232 H232       -1.3168  -23.1941  -56.1707 H         1 UNK         0.0600 
    233 H233       -1.4390  -22.2800  -54.6697 H         1 UNK         0.0600 
    234 H234       -1.3418  -21.4375  -56.2130 H         1 UNK         0.0600 
    235 H235       -5.7842  -21.8816  -55.6449 H         1 UNK         0.3000 
    236 H236       -5.9088  -19.8790  -53.6486 H         1 UNK         0.0600 
    237 H237       -7.8086  -21.3607  -54.1876 H         1 UNK         0.0600 
    238 H238       -8.2904  -19.6864  -54.3974 H         1 UNK         0.0600 
    239 H239       -7.9299  -20.6747  -55.8080 H         1 UNK         0.0600 
    240 H240       -5.9809  -17.6949  -53.6864 H         1 UNK         0.3000 
    241 H241       -5.0525  -16.3305  -56.1276 H         1 UNK         0.0600 
    242 H242       -8.1720  -16.8785  -54.9482 H         1 UNK         0.3800 
    243 H243       -8.8882  -15.4013  -55.5358 H         1 UNK         0.3800 
    244 H244       -4.4827  -14.4663  -54.5622 H         1 UNK         0.0800 
    245 H245       -5.1231  -15.3779  -53.2260 H         1 UNK         0.0800 
    246 H246       -2.2329  -17.7522  -52.3137 H         1 UNK         0.0800 
    247 H247       -3.9550  -17.8933  -52.5459 H         1 UNK         0.0800 
@<TRIPOS>BOND
     1    1    2 1    
     2    1  127 1    
     3    1  128 1    
     4    1  129 1    
     5    2    3 2    
     6    2    4 am   BACKBONE|DICT|INTERRES
     7    4    5 1    
     8    4  130 1    
     9    5    6 1    
    10    5   65 1    
    11    5  131 1    
    12    6    7 1    
    13    6  132 1    
    14    6  133 1    
    15    7    8 1    
    16    8    9 1    
    17    8  134 1    
    18    8  135 1    
    19    9   10 ar   
    20    9   14 ar   
    21   10   11 ar   
    22   10  136 1    
    23   11   12 ar   
    24   11  126 1    
    25   12   13 ar   
    26   12  137 1    
    27   13   14 ar   
    28   13   15 1    
    29   14  138 1    
    30   15   16 1    
    31   15  139 1    
    32   15  140 1    
    33   16   17 1    
    34   17   18 1    
    35   17  141 1    
    36   17  142 1    
    37   18   19 1    
    38   18   67 1    
    39   18  143 1    
    40   19   20 am   BACKBONE|DICT|INTERRES
    41   19  144 1    
    42   20   21 2    
    43   20   22 1    
    44   22   23 1    
    45   22   24 1    
    46   22  145 1    
    47   23  146 1    
    48   23  147 1    
    49   23  148 1    
    50   24   25 am   BACKBONE|DICT|INTERRES
    51   24  149 1    
    52   25   26 2    
    53   25   27 1    
    54   27   28 1    
    55   27   29 1    
    56   27  150 1    
    57   28  151 1    
    58   28  152 1    
    59   28  153 1    
    60   29   30 am   BACKBONE|DICT|INTERRES
    61   29  154 1    
    62   30   31 2    
    63   30   32 1    
    64   32   33 1    
    65   32   34 1    
    66   32  155 1    
    67   33  156 1    
    68   33  157 1    
    69   33  158 1    
    70   34   35 am   BACKBONE|DICT|INTERRES
    71   34  159 1    
    72   35   36 2    
    73   35   37 1    
    74   37   38 1    
    75   37   39 1    
    76   37  160 1    
    77   38  161 1    
    78   38  162 1    
    79   38  163 1    
    80   39   40 am   BACKBONE|DICT|INTERRES
    81   39  164 1    
    82   40   41 2    
    83   40   42 1    
    84   42   43 1    
    85   42   44 1    
    86   42  165 1    
    87   43  166 1    
    88   43  167 1    
    89   43  168 1    
    90   44   45 am   BACKBONE|DICT|INTERRES
    91   44  169 1    
    92   45   46 2    
    93   45   47 1    
    94   47   48 1    
    95   47   49 1    
    96   47  170 1    
    97   48  171 1    
    98   48  172 1    
    99   48  173 1    
   100   49   50 am   BACKBONE|DICT|INTERRES
   101   49  174 1    
   102   50   51 2    
   103   50   52 1    
   104   52   53 1    
   105   52   54 1    
   106   52  175 1    
   107   53  176 1    
   108   53  177 1    
   109   53  178 1    
   110   54   55 am   BACKBONE|DICT|INTERRES
   111   54  179 1    
   112   55   56 2    
   113   55   57 1    
   114   57   58 1    
   115   57   59 1    
   116   57  180 1    
   117   58  181 1    
   118   58  182 1    
   119   58  183 1    
   120   59   60 am   BACKBONE|DICT|INTERRES
   121   59  184 1    
   122   60   61 2    
   123   60   62 1    
   124   62   63 1    
   125   62   64 1    
   126   62  185 1    
   127   63  186 1    
   128   63  187 1    
   129   63  188 1    
   130   64   65 am   BACKBONE|DICT|INTERRES
   131   64  189 1    
   132   65   66 2    
   133   67   68 2    
   134   67   69 am   BACKBONE|DICT|INTERRES
   135   69   70 1    
   136   69  190 1    
   137   70   71 1    
   138   70   72 1    
   139   70  191 1    
   140   71  192 1    
   141   71  193 1    
   142   71  194 1    
   143   72   73 2    
   144   72   74 am   BACKBONE|DICT|INTERRES
   145   74   75 1    
   146   74  195 1    
   147   75   76 1    
   148   75   77 1    
   149   75  196 1    
   150   76  197 1    
   151   76  198 1    
   152   76  199 1    
   153   77   78 2    
   154   77   79 am   BACKBONE|DICT|INTERRES
   155   79   80 1    
   156   79  200 1    
   157   80   81 1    
   158   80   82 1    
   159   80  201 1    
   160   81  202 1    
   161   81  203 1    
   162   81  204 1    
   163   82   83 2    
   164   82   84 am   BACKBONE|DICT|INTERRES
   165   84   85 1    
   166   84  205 1    
   167   85   86 1    
   168   85   87 1    
   169   85  206 1    
   170   86  207 1    
   171   86  208 1    
   172   86  209 1    
   173   87   88 2    
   174   87   89 am   BACKBONE|DICT|INTERRES
   175   89   90 1    
   176   89  210 1    
   177   90   91 1    
   178   90   92 1    
   179   90  211 1    
   180   91  212 1    
   181   91  213 1    
   182   91  214 1    
   183   92   93 2    
   184   92   94 am   BACKBONE|DICT|INTERRES
   185   94   95 1    
   186   94  215 1    
   187   95   96 1    
   188   95   97 1    
   189   95  216 1    
   190   96  217 1    
   191   96  218 1    
   192   96  219 1    
   193   97   98 2    
   194   97   99 am   BACKBONE|DICT|INTERRES
   195   99  100 1    
   196   99  220 1    
   197  100  101 1    
   198  100  102 1    
   199  100  221 1    
   200  101  222 1    
   201  101  223 1    
   202  101  224 1    
   203  102  103 2    
   204  102  104 am   BACKBONE|DICT|INTERRES
   205  104  105 1    
   206  104  225 1    
   207  105  106 1    
   208  105  107 1    
   209  105  226 1    
   210  106  227 1    
   211  106  228 1    
   212  106  229 1    
   213  107  108 2    
   214  107  109 am   BACKBONE|DICT|INTERRES
   215  109  110 1    
   216  109  230 1    
   217  110  111 1    
   218  110  112 1    
   219  110  231 1    
   220  111  232 1    
   221  111  233 1    
   222  111  234 1    
   223  112  113 2    
   224  112  114 am   BACKBONE|DICT|INTERRES
   225  114  115 1    
   226  114  235 1    
   227  115  116 1    
   228  115  117 1    
   229  115  236 1    
   230  116  237 1    
   231  116  238 1    
   232  116  239 1    
   233  117  118 2    
   234  117  119 am   BACKBONE|DICT|INTERRES
   235  119  120 1    
   236  119  240 1    
   237  120  121 1    
   238  120  124 1    
   239  120  241 1    
   240  121  122 am   BACKBONE|DICT|INTERRES
   241  121  123 2    
   242  122  242 1    
   243  122  243 1    
   244  124  125 1    
   245  124  244 1    
   246  124  245 1    
   247  125  126 1    
   248  126  246 1    
   249  126  247 1    
@<TRIPOS>SUBSTRUCTURE
     1 UNK         1 GROUP             0       ****    0 ROOT    
