@<TRIPOS>MOLECULE
3R540
247   249    1
SMALL
USER_CHARGES


@<TRIPOS>ATOM
      1 CA         -3.3966   -9.7750  -44.2289 C.3       0 UNK        -0.1800 
      2 C          -2.4631  -10.6950  -45.0017 C.2       0 UNK         0.5000 
      3 O          -1.3039  -10.3447  -45.2235 O.2       0 UNK        -0.5000 
      4 N          -2.9581  -11.8762  -45.3987 N.am      1 UNK        -0.5000 
      5 CA         -2.2411  -12.8886  -46.1921 C.3       1 UNK         0.1400 
      6 C6         -3.1476  -14.0864  -46.5731 C.3       23 UNK        -0.0398 
      7 S7         -4.6662  -13.5701  -47.4432 S.3       23 UNK        -0.2404 
      8 C8         -5.5366  -15.1609  -47.6303 C.3       23 UNK        -0.0205 
      9 C9         -4.8519  -16.0792  -48.6329 C.ar      23 UNK        -0.0193 
     10 C10        -4.7592  -15.7032  -49.9765 C.ar      23 UNK        -0.1150 
     11 C11        -4.1097  -16.5255  -50.8998 C.ar      23 UNK        -0.0193 
     12 C12        -3.5612  -17.7373  -50.4727 C.ar      23 UNK        -0.1150 
     13 C13        -3.6725  -18.1408  -49.1400 C.ar      23 UNK        -0.0193 
     14 C14        -4.3170  -17.3051  -48.2231 C.ar      23 UNK        -0.1150 
     15 C15        -3.0533  -19.4570  -48.6966 C.3       23 UNK        -0.0205 
     16 S16        -4.2189  -20.8533  -48.7699 S.3       23 UNK        -0.2404 
     17 C17        -4.6776  -20.9772  -47.0074 C.3       23 UNK        -0.0398 
     18 CA         -3.6949  -21.8782  -46.2068 C.3       11 UNK         0.1400 
     19 N          -3.3508  -21.2944  -44.9013 N.am      11 UNK        -0.5000 
     20 C          -2.4281  -21.7862  -44.0623 C.2       10 UNK         0.5000 
     21 O          -1.7710  -22.8031  -44.2927 O.2       10 UNK        -0.5000 
     22 CA         -2.2324  -21.0151  -42.7493 C.3       10 UNK         0.1400 
     23 CB         -1.4247  -21.8066  -41.7065 C.3       10 UNK        -0.1800 
     24 N          -1.5329  -19.7679  -43.0252 N.am      10 UNK        -0.5000 
     25 C          -2.0547  -18.5430  -42.8976 C.2       9 UNK         0.5000 
     26 O          -3.2241  -18.3183  -42.5841 O.2       9 UNK        -0.5000 
     27 CA         -1.0945  -17.3723  -43.1690 C.3       9 UNK         0.1400 
     28 CB         -0.0716  -17.2558  -42.0211 C.3       9 UNK        -0.1800 
     29 N          -0.4002  -17.5220  -44.4492 N.am      9 UNK        -0.5000 
     30 C          -0.9965  -17.4906  -45.6511 C.2       8 UNK         0.5000 
     31 O          -2.1896  -17.2400  -45.8072 O.2       8 UNK        -0.5000 
     32 CA         -0.1290  -17.8268  -46.8805 C.3       8 UNK         0.1400 
     33 CB          0.5055  -16.5738  -47.4927 C.3       8 UNK        -0.1800 
     34 N           0.9117  -18.7982  -46.5550 N.am      8 UNK        -0.5000 
     35 C           0.7010  -20.1184  -46.4538 C.2       7 UNK         0.5000 
     36 O          -0.3642  -20.6626  -46.7370 O.2       7 UNK        -0.5000 
     37 CA          1.8733  -20.9705  -45.9300 C.3       7 UNK         0.1400 
     38 CB          2.6864  -21.5450  -47.0994 C.3       7 UNK        -0.1800 
     39 N           2.7686  -20.2180  -45.0466 N.am      7 UNK        -0.5000 
     40 C           2.4382  -19.7997  -43.8163 C.2       6 UNK         0.5000 
     41 O           1.3652  -20.0655  -43.2764 O.2       6 UNK        -0.5000 
     42 CA          3.4488  -18.8809  -43.0994 C.3       6 UNK         0.1400 
     43 CB          4.4567  -19.7128  -42.2933 C.3       6 UNK        -0.1800 
     44 N           4.1713  -17.9993  -44.0239 N.am      6 UNK        -0.5000 
     45 C           3.5984  -17.0211  -44.7379 C.2       5 UNK         0.5000 
     46 O           2.4060  -16.7225  -44.6461 O.2       5 UNK        -0.5000 
     47 CA          4.4795  -16.3336  -45.7900 C.3       5 UNK         0.1400 
     48 CB          4.6869  -17.2910  -46.9849 C.3       5 UNK        -0.1800 
     49 N           3.8403  -15.0946  -46.2346 N.am      5 UNK        -0.5000 
     50 C           4.3880  -14.1853  -47.0521 C.2       4 UNK         0.5000 
     51 O           5.5427  -14.2535  -47.4755 O.2       4 UNK        -0.5000 
     52 CA          3.5065  -12.9961  -47.4726 C.3       4 UNK         0.1400 
     53 CB          2.4959  -13.4105  -48.5529 C.3       4 UNK        -0.1800 
     54 N           2.8021  -12.3914  -46.3435 N.am      4 UNK        -0.5000 
     55 C           3.3768  -11.5459  -45.4738 C.2       3 UNK         0.5000 
     56 O           4.5579  -11.2020  -45.5397 O.2       3 UNK        -0.5000 
     57 CA          2.4958  -10.9693  -44.3465 C.3       3 UNK         0.1400 
     58 CB          1.9975   -9.5651  -44.7200 C.3       3 UNK        -0.1800 
     59 N           1.3458  -11.8119  -44.0235 N.am      3 UNK        -0.5000 
     60 C           1.4345  -13.0159  -43.4414 C.2       2 UNK         0.5000 
     61 O           2.4932  -13.4961  -43.0359 O.2       2 UNK        -0.5000 
     62 CA          0.1378  -13.8352  -43.2984 C.3       2 UNK         0.1400 
     63 CB         -0.3453  -13.8199  -41.8397 C.3       2 UNK        -0.1800 
     64 N          -0.9671  -13.4120  -44.1591 N.am      2 UNK        -0.5000 
     65 C          -0.9578  -13.3949  -45.4996 C.2       1 UNK         0.5000 
     66 O           0.0210  -13.7065  -46.1767 O.2       1 UNK        -0.5000 
     67 C          -4.2100  -23.3326  -46.0968 C.2       11 UNK         0.5000 
     68 O          -3.9297  -24.1508  -46.9731 O.2       11 UNK        -0.5000 
     69 N          -4.9112  -23.6393  -44.9947 N.am      12 UNK        -0.5000 
     70 CA         -5.3916  -24.9790  -44.6553 C.3       12 UNK         0.1400 
     71 CB         -6.3962  -24.8789  -43.4980 C.3       12 UNK        -0.1800 
     72 C          -4.2534  -25.9549  -44.3007 C.2       12 UNK         0.5000 
     73 O          -4.3220  -27.1225  -44.6837 O.2       12 UNK        -0.5000 
     74 N          -3.2094  -25.4631  -43.6154 N.am      13 UNK        -0.5000 
     75 CA         -2.0050  -26.2349  -43.2857 C.3       13 UNK         0.1400 
     76 CB         -1.2020  -25.5156  -42.1925 C.3       13 UNK        -0.1800 
     77 C          -1.1301  -26.4909  -44.5262 C.2       13 UNK         0.5000 
     78 O          -0.5013  -27.5445  -44.6243 O.2       13 UNK        -0.5000 
     79 N          -1.1633  -25.5493  -45.4788 N.am      14 UNK        -0.5000 
     80 CA         -0.5953  -25.6770  -46.8214 C.3       14 UNK         0.1400 
     81 CB         -0.3747  -24.2688  -47.3985 C.3       14 UNK        -0.1800 
     82 C          -1.4591  -26.5376  -47.7727 C.2       14 UNK         0.5000 
     83 O          -1.1243  -26.6398  -48.9530 O.2       14 UNK        -0.5000 
     84 N          -2.5643  -27.1143  -47.2707 N.am      15 UNK        -0.5000 
     85 CA         -3.5196  -27.9871  -47.9652 C.3       15 UNK         0.1400 
     86 CB         -2.8561  -29.3360  -48.3116 C.3       15 UNK        -0.1800 
     87 C          -4.1867  -27.3209  -49.1871 C.2       15 UNK         0.5000 
     88 O          -4.5359  -28.0069  -50.1489 O.2       15 UNK        -0.5000 
     89 N          -4.3180  -25.9871  -49.1339 N.am      16 UNK        -0.5000 
     90 CA         -4.7870  -25.0841  -50.1867 C.3       16 UNK         0.1400 
     91 CB         -6.2647  -25.3546  -50.5346 C.3       16 UNK        -0.1800 
     92 C          -3.8849  -25.0398  -51.4400 C.2       16 UNK         0.5000 
     93 O          -4.2831  -24.4406  -52.4377 O.2       16 UNK        -0.5000 
     94 N          -2.6719  -25.6140  -51.3830 N.am      17 UNK        -0.5000 
     95 CA         -1.6931  -25.5619  -52.4754 C.3       17 UNK         0.1400 
     96 CB         -0.5806  -26.5897  -52.2234 C.3       17 UNK        -0.1800 
     97 C          -1.1006  -24.1515  -52.6504 C.2       17 UNK         0.5000 
     98 O          -0.7661  -23.7553  -53.7673 O.2       17 UNK        -0.5000 
     99 N          -1.0357  -23.3997  -51.5430 N.am      18 UNK        -0.5000 
    100 CA        -0.6092  -22.0031  -51.4886 C.3       18 UNK         0.1400 
    101 CB        -0.3223  -21.6304  -50.0272 C.3       18 UNK        -0.1800 
    102 C         -1.6023  -21.0196  -52.1434 C.2       18 UNK         0.5000 
    103 O         -1.2251  -19.8756  -52.3923 O.2       18 UNK        -0.5000 
    104 N         -2.8250  -21.4710  -52.4719 N.am      19 UNK        -0.5000 
    105 CA        -3.8304  -20.7024  -53.2174 C.3       19 UNK         0.1400 
    106 CB        -5.1670  -21.4561  -53.2171 C.3       19 UNK        -0.1800 
    107 C         -3.4015  -20.3540  -54.6587 C.2       19 UNK         0.5000 
    108 O         -3.9779  -19.4487  -55.2596 O.2       19 UNK        -0.5000 
    109 N         -2.3617  -21.0250  -55.1770 N.am      20 UNK        -0.5000 
    110 CA        -1.6777  -20.6783  -56.4249 C.3       20 UNK         0.1400 
    111 CB        -0.6086  -21.7416  -56.7162 C.3       20 UNK        -0.1800 
    112 C         -1.0472  -19.2677  -56.4099 C.2       20 UNK         0.5000 
    113 O         -0.8840  -18.6689  -57.4738 O.2       20 UNK        -0.5000 
    114 N         -0.7385  -18.7432  -55.2131 N.am      21 UNK        -0.5000 
    115 CA        -0.2300  -17.3874  -55.0004 C.3       21 UNK         0.1400 
    116 CB         0.3641  -17.2911  -53.5860 C.3       21 UNK        -0.1800 
    117 C         -1.2898  -16.2858  -55.2100 C.2       21 UNK         0.5000 
    118 O         -0.9152  -15.1161  -55.3032 O.2       21 UNK        -0.5000 
    119 N         -2.5800  -16.6518  -55.2697 N.am      22 UNK        -0.5000 
    120 CA        -3.6960  -15.7136  -55.4819 C.3       22 UNK         0.1400 
    121 C         -3.7852  -15.1471  -56.9322 C.2       22 UNK         0.5000 
    122 N         -3.0800  -15.6998  -57.9131 N.am      22 UNK        -0.7600 
    123 O         -4.5066  -14.1822  -57.1704 O.2       22 UNK        -0.5000 
    124 C124       -5.0646  -16.3192  -55.0661 C.3       23 UNK        -0.0398 
    125 S125       -5.2580  -16.9553  -53.3577 S.3       23 UNK        -0.2404 
    126 C126       -3.9951  -16.1099  -52.3565 C.3       23 UNK        -0.0205 
    127 H127       -2.9855   -9.5683  -43.2408 H         1 UNK         0.0600 
    128 H128       -4.3860  -10.2150  -44.1013 H         1 UNK         0.0600 
    129 H129       -3.5107   -8.8283  -44.7569 H         1 UNK         0.0600 
    130 H130       -3.9241  -12.0947  -45.1990 H         1 UNK         0.3000 
    131 H131       -1.9256  -12.4005  -47.1166 H         1 UNK         0.0600 
    132 H132       -2.6069  -14.7809  -47.2193 H         1 UNK         0.0800 
    133 H133       -3.4326  -14.6527  -45.6842 H         1 UNK         0.0800 
    134 H134       -6.5549  -14.9669  -47.9698 H         1 UNK         0.0800 
    135 H135       -5.6247  -15.6414  -46.6546 H         1 UNK         0.0800 
    136 H136       -5.1823  -14.7618  -50.2983 H         1 UNK         0.1150 
    137 H137       -3.0451  -18.3674  -51.1814 H         1 UNK         0.1150 
    138 H138       -4.3894  -17.6032  -47.1871 H         1 UNK         0.1150 
    139 H139       -2.6654  -19.3680  -47.6824 H         1 UNK         0.0800 
    140 H140       -2.1948  -19.6774  -49.3285 H         1 UNK         0.0800 
    141 H141       -5.7074  -21.3329  -46.9384 H         1 UNK         0.0800 
    142 H142       -4.7033  -19.9669  -46.5976 H         1 UNK         0.0800 
    143 H143       -2.7502  -21.9317  -46.7516 H         1 UNK         0.0600 
    144 H144       -3.8292  -20.4433  -44.6429 H         1 UNK         0.3000 
    145 H145       -3.2212  -20.8254  -42.3271 H         1 UNK         0.0600 
    146 H146       -1.2989  -21.2313  -40.7892 H         1 UNK         0.0600 
    147 H147       -1.9362  -22.7312  -41.4392 H         1 UNK         0.0600 
    148 H148       -0.4306  -22.0658  -42.0739 H         1 UNK         0.0600 
    149 H149       -0.5531  -19.8574  -43.2837 H         1 UNK         0.3000 
    150 H150       -1.6759  -16.4493  -43.2130 H         1 UNK         0.0600 
    151 H151        0.3738  -18.2159  -41.7636 H         1 UNK         0.0600 
    152 H152       -0.5530  -16.8802  -41.1178 H         1 UNK         0.0600 
    153 H153        0.7487  -16.5815  -42.2597 H         1 UNK         0.0600 
    154 H154        0.6045  -17.6446  -44.4135 H         1 UNK         0.3000 
    155 H155       -0.7721  -18.2532  -47.6480 H         1 UNK         0.0600 
    156 H156        1.1366  -16.0499  -46.7780 H         1 UNK         0.0600 
    157 H157       -0.2638  -15.8759  -47.8246 H         1 UNK         0.0600 
    158 H158        1.1151  -16.8212  -48.3618 H         1 UNK         0.0600 
    159 H159        1.8053  -18.4255  -46.2739 H         1 UNK         0.3000 
    160 H160        1.4488  -21.8026  -45.3635 H         1 UNK         0.0600 
    161 H161        3.1358  -20.7567  -47.7047 H         1 UNK         0.0600 
    162 H162        2.0547  -22.1437  -47.7561 H         1 UNK         0.0600 
    163 H163        3.4864  -22.1938  -46.7426 H         1 UNK         0.0600 
    164 H164        3.6758  -19.9742  -45.4146 H         1 UNK         0.3000 
    165 H165        2.8893  -18.2541  -42.4020 H         1 UNK         0.0600 
    166 H166        5.1281  -19.0723  -41.7211 H         1 UNK         0.0600 
    167 H167        5.0655  -20.3471  -42.9388 H         1 UNK         0.0600 
    168 H168        3.9451  -20.3627  -41.5820 H         1 UNK         0.0600 
    169 H169        5.1551  -18.1900  -44.1511 H         1 UNK         0.3000 
    170 H170        5.4407  -16.0914  -45.3328 H         1 UNK         0.0600 
    171 H171        5.1098  -18.2441  -46.6656 H         1 UNK         0.0600 
    172 H172        3.7468  -17.5031  -47.4959 H         1 UNK         0.0600 
    173 H173        5.3764  -16.8776  -47.7202 H         1 UNK         0.0600 
    174 H174        2.9009  -14.9595  -45.8817 H         1 UNK         0.3000 
    175 H175        4.1612  -12.2423  -47.9158 H         1 UNK         0.0600 
    176 H176        1.7833  -14.1451  -48.1815 H         1 UNK         0.0600 
    177 H177        1.9300  -12.5510  -48.9124 H         1 UNK         0.0600 
    178 H178        3.0018  -13.8506  -49.4131 H         1 UNK         0.0600 
    179 H179        1.8308  -12.6546  -46.2159 H         1 UNK         0.3000 
    180 H180        3.1172  -10.8837  -43.4526 H         1 UNK         0.0600 
    181 H181        1.3746   -9.5856  -45.6152 H         1 UNK         0.0600 
    182 H182        2.8335   -8.8929  -44.9170 H         1 UNK         0.0600 
    183 H183        1.4101   -9.1261  -43.9134 H         1 UNK         0.0600 
    184 H184        0.4404  -11.4839  -44.3382 H         1 UNK         0.3000 
    185 H185        0.3880  -14.8545  -43.5890 H         1 UNK         0.0600 
    186 H186       -1.2250  -14.4486  -41.7039 H         1 UNK         0.0600 
    187 H187        0.4276  -14.1938  -41.1668 H         1 UNK         0.0600 
    188 H188       -0.6024  -12.8110  -41.5146 H         1 UNK         0.0600 
    189 H189       -1.8038  -13.0959  -43.6912 H         1 UNK         0.3000 
    190 H190       -5.0986  -22.9075  -44.3254 H         1 UNK         0.3000 
    191 H191       -5.9137  -25.3819  -45.5260 H         1 UNK         0.0600 
    192 H192       -6.7889  -25.8623  -43.2362 H         1 UNK         0.0600 
    193 H193       -7.2468  -24.2525  -43.7675 H         1 UNK         0.0600 
    194 H194       -5.9395  -24.4584  -42.6012 H         1 UNK         0.0600 
    195 H195       -3.1900  -24.4790  -43.3909 H         1 UNK         0.3000 
    196 H196       -2.3184  -27.2038  -42.8909 H         1 UNK         0.0600 
    197 H197       -0.7832  -24.5761  -42.5519 H         1 UNK         0.0600 
    198 H198       -1.8195  -25.3028  -41.3199 H         1 UNK         0.0600 
    199 H199       -0.3678  -26.1331  -41.8575 H         1 UNK         0.0600 
    200 H200       -1.6555  -24.6858  -45.2780 H         1 UNK         0.3000 
    201 H201        0.3780  -26.1649  -46.7407 H         1 UNK         0.0600 
    202 H202       -1.3174  -23.7530  -47.5794 H         1 UNK         0.0600 
    203 H203        0.1616  -24.3152  -48.3466 H         1 UNK         0.0600 
    204 H204        0.2159  -23.6516  -46.7216 H         1 UNK         0.0600 
    205 H205       -2.7825  -26.9404  -46.2986 H         1 UNK         0.3000 
    206 H206       -4.3235  -28.1867  -47.2557 H         1 UNK         0.0600 
    207 H207       -2.4010  -29.7883  -47.4304 H         1 UNK         0.0600 
    208 H208       -3.5880  -30.0466  -48.6972 H         1 UNK         0.0600 
    209 H209       -2.0798  -29.2218  -49.0690 H         1 UNK         0.0600 
    210 H210       -4.0140  -25.5133  -48.2857 H         1 UNK         0.3000 
    211 H211       -4.7348  -24.0834  -49.7551 H         1 UNK         0.0600 
    212 H212       -6.6594  -24.5797  -51.1930 H         1 UNK         0.0600 
    213 H213       -6.8852  -25.3627  -49.6385 H         1 UNK         0.0600 
    214 H214       -6.3947  -26.3099  -51.0435 H         1 UNK         0.0600 
    215 H215       -2.3790  -26.0813  -50.5314 H         1 UNK         0.3000 
    216 H216       -2.2003  -25.8307  -53.4044 H         1 UNK         0.0600 
    217 H217        0.0100  -26.3384  -51.3420 H         1 UNK         0.0600 
    218 H218        0.1036  -26.6364  -53.0715 H         1 UNK         0.0600 
    219 H219       -0.9905  -27.5896  -52.0792 H         1 UNK         0.0600 
    220 H220       -1.3378  -23.8150  -50.6743 H         1 UNK         0.3000 
    221 H221        0.3266  -21.9156  -52.0445 H         1 UNK         0.0600 
    222 H222        0.5018  -22.2222  -49.6307 H         1 UNK         0.0600 
    223 H223       -1.1890  -21.7995  -49.3876 H         1 UNK         0.0600 
    224 H224       -0.0351  -20.5823  -49.9324 H         1 UNK         0.0600 
    225 H225       -3.0624  -22.4320  -52.2668 H         1 UNK         0.3000 
    226 H226       -3.9834  -19.7596  -52.6919 H         1 UNK         0.0600 
    227 H227       -5.1132  -22.3694  -53.8100 H         1 UNK         0.0600 
    228 H228       -5.4726  -21.7240  -52.2053 H         1 UNK         0.0600 
    229 H229       -5.9586  -20.8384  -53.6430 H         1 UNK         0.0600 
    230 H230       -1.9495  -21.7692  -54.6302 H         1 UNK         0.3000 
    231 H231       -2.4162  -20.7003  -57.2288 H         1 UNK         0.0600 
    232 H232        0.1445  -21.7798  -55.9278 H         1 UNK         0.0600 
    233 H233       -0.0934  -21.5328  -57.6547 H         1 UNK         0.0600 
    234 H234       -1.0519  -22.7339  -56.8026 H         1 UNK         0.0600 
    235 H235       -0.9185  -19.2849  -54.3747 H         1 UNK         0.3000 
    236 H236        0.5732  -17.2096  -55.7185 H         1 UNK         0.0600 
    237 H237        1.1086  -18.0685  -53.4132 H         1 UNK         0.0600 
    238 H238        0.8568  -16.3298  -53.4343 H         1 UNK         0.0600 
    239 H239       -0.4058  -17.3858  -52.8194 H         1 UNK         0.0600 
    240 H240       -2.8303  -17.6309  -55.1993 H         1 UNK         0.3000 
    241 H241       -3.5171  -14.8459  -54.8449 H         1 UNK         0.0600 
    242 H242       -3.1440  -15.3212  -58.8452 H         1 UNK         0.3800 
    243 H243       -2.4814  -16.4919  -57.7334 H         1 UNK         0.3800 
    244 H244       -5.3229  -17.1364  -55.7417 H         1 UNK         0.0800 
    245 H245       -5.8498  -15.5731  -55.2011 H         1 UNK         0.0800 
    246 H246       -4.1086  -15.0295  -52.4567 H         1 UNK         0.0800 
    247 H247       -2.9954  -16.3589  -52.7087 H         1 UNK         0.0800 
@<TRIPOS>BOND
     1    1    2 1    
     2    1  127 1    
     3    1  128 1    
     4    1  129 1    
     5    2    3 2    
     6    2    4 am   BACKBONE|DICT|INTERRES
     7    4    5 1    
     8    4  130 1    
     9    5    6 1    
    10    5   65 1    
    11    5  131 1    
    12    6    7 1    
    13    6  132 1    
    14    6  133 1    
    15    7    8 1    
    16    8    9 1    
    17    8  134 1    
    18    8  135 1    
    19    9   10 ar   
    20    9   14 ar   
    21   10   11 ar   
    22   10  136 1    
    23   11   12 ar   
    24   11  126 1    
    25   12   13 ar   
    26   12  137 1    
    27   13   14 ar   
    28   13   15 1    
    29   14  138 1    
    30   15   16 1    
    31   15  139 1    
    32   15  140 1    
    33   16   17 1    
    34   17   18 1    
    35   17  141 1    
    36   17  142 1    
    37   18   19 1    
    38   18   67 1    
    39   18  143 1    
    40   19   20 am   BACKBONE|DICT|INTERRES
    41   19  144 1    
    42   20   21 2    
    43   20   22 1    
    44   22   23 1    
    45   22   24 1    
    46   22  145 1    
    47   23  146 1    
    48   23  147 1    
    49   23  148 1    
    50   24   25 am   BACKBONE|DICT|INTERRES
    51   24  149 1    
    52   25   26 2    
    53   25   27 1    
    54   27   28 1    
    55   27   29 1    
    56   27  150 1    
    57   28  151 1    
    58   28  152 1    
    59   28  153 1    
    60   29   30 am   BACKBONE|DICT|INTERRES
    61   29  154 1    
    62   30   31 2    
    63   30   32 1    
    64   32   33 1    
    65   32   34 1    
    66   32  155 1    
    67   33  156 1    
    68   33  157 1    
    69   33  158 1    
    70   34   35 am   BACKBONE|DICT|INTERRES
    71   34  159 1    
    72   35   36 2    
    73   35   37 1    
    74   37   38 1    
    75   37   39 1    
    76   37  160 1    
    77   38  161 1    
    78   38  162 1    
    79   38  163 1    
    80   39   40 am   BACKBONE|DICT|INTERRES
    81   39  164 1    
    82   40   41 2    
    83   40   42 1    
    84   42   43 1    
    85   42   44 1    
    86   42  165 1    
    87   43  166 1    
    88   43  167 1    
    89   43  168 1    
    90   44   45 am   BACKBONE|DICT|INTERRES
    91   44  169 1    
    92   45   46 2    
    93   45   47 1    
    94   47   48 1    
    95   47   49 1    
    96   47  170 1    
    97   48  171 1    
    98   48  172 1    
    99   48  173 1    
   100   49   50 am   BACKBONE|DICT|INTERRES
   101   49  174 1    
   102   50   51 2    
   103   50   52 1    
   104   52   53 1    
   105   52   54 1    
   106   52  175 1    
   107   53  176 1    
   108   53  177 1    
   109   53  178 1    
   110   54   55 am   BACKBONE|DICT|INTERRES
   111   54  179 1    
   112   55   56 2    
   113   55   57 1    
   114   57   58 1    
   115   57   59 1    
   116   57  180 1    
   117   58  181 1    
   118   58  182 1    
   119   58  183 1    
   120   59   60 am   BACKBONE|DICT|INTERRES
   121   59  184 1    
   122   60   61 2    
   123   60   62 1    
   124   62   63 1    
   125   62   64 1    
   126   62  185 1    
   127   63  186 1    
   128   63  187 1    
   129   63  188 1    
   130   64   65 am   BACKBONE|DICT|INTERRES
   131   64  189 1    
   132   65   66 2    
   133   67   68 2    
   134   67   69 am   BACKBONE|DICT|INTERRES
   135   69   70 1    
   136   69  190 1    
   137   70   71 1    
   138   70   72 1    
   139   70  191 1    
   140   71  192 1    
   141   71  193 1    
   142   71  194 1    
   143   72   73 2    
   144   72   74 am   BACKBONE|DICT|INTERRES
   145   74   75 1    
   146   74  195 1    
   147   75   76 1    
   148   75   77 1    
   149   75  196 1    
   150   76  197 1    
   151   76  198 1    
   152   76  199 1    
   153   77   78 2    
   154   77   79 am   BACKBONE|DICT|INTERRES
   155   79   80 1    
   156   79  200 1    
   157   80   81 1    
   158   80   82 1    
   159   80  201 1    
   160   81  202 1    
   161   81  203 1    
   162   81  204 1    
   163   82   83 2    
   164   82   84 am   BACKBONE|DICT|INTERRES
   165   84   85 1    
   166   84  205 1    
   167   85   86 1    
   168   85   87 1    
   169   85  206 1    
   170   86  207 1    
   171   86  208 1    
   172   86  209 1    
   173   87   88 2    
   174   87   89 am   BACKBONE|DICT|INTERRES
   175   89   90 1    
   176   89  210 1    
   177   90   91 1    
   178   90   92 1    
   179   90  211 1    
   180   91  212 1    
   181   91  213 1    
   182   91  214 1    
   183   92   93 2    
   184   92   94 am   BACKBONE|DICT|INTERRES
   185   94   95 1    
   186   94  215 1    
   187   95   96 1    
   188   95   97 1    
   189   95  216 1    
   190   96  217 1    
   191   96  218 1    
   192   96  219 1    
   193   97   98 2    
   194   97   99 am   BACKBONE|DICT|INTERRES
   195   99  100 1    
   196   99  220 1    
   197  100  101 1    
   198  100  102 1    
   199  100  221 1    
   200  101  222 1    
   201  101  223 1    
   202  101  224 1    
   203  102  103 2    
   204  102  104 am   BACKBONE|DICT|INTERRES
   205  104  105 1    
   206  104  225 1    
   207  105  106 1    
   208  105  107 1    
   209  105  226 1    
   210  106  227 1    
   211  106  228 1    
   212  106  229 1    
   213  107  108 2    
   214  107  109 am   BACKBONE|DICT|INTERRES
   215  109  110 1    
   216  109  230 1    
   217  110  111 1    
   218  110  112 1    
   219  110  231 1    
   220  111  232 1    
   221  111  233 1    
   222  111  234 1    
   223  112  113 2    
   224  112  114 am   BACKBONE|DICT|INTERRES
   225  114  115 1    
   226  114  235 1    
   227  115  116 1    
   228  115  117 1    
   229  115  236 1    
   230  116  237 1    
   231  116  238 1    
   232  116  239 1    
   233  117  118 2    
   234  117  119 am   BACKBONE|DICT|INTERRES
   235  119  120 1    
   236  119  240 1    
   237  120  121 1    
   238  120  124 1    
   239  120  241 1    
   240  121  122 am   BACKBONE|DICT|INTERRES
   241  121  123 2    
   242  122  242 1    
   243  122  243 1    
   244  124  125 1    
   245  124  244 1    
   246  124  245 1    
   247  125  126 1    
   248  126  246 1    
   249  126  247 1    
@<TRIPOS>SUBSTRUCTURE
     1 UNK         1 GROUP             0       ****    0 ROOT    
