@<TRIPOS>MOLECULE
3R540
247   249    1
SMALL
USER_CHARGES


@<TRIPOS>ATOM
      1 CA          0.1048  -13.9567  -53.3037 C.3       0 UNK        -0.1800 
      2 C           0.5563  -14.4934  -51.9529 C.2       0 UNK         0.5000 
      3 O           1.6041  -15.1342  -51.8688 O.2       0 UNK        -0.5000 
      4 N          -0.2347  -14.2431  -50.9033 N.am      1 UNK        -0.5000 
      5 CA          0.0331  -14.6872  -49.5328 C.3       1 UNK         0.1400 
      6 C6         -1.2182  -14.5720  -48.6252 C.3       23 UNK        -0.0398 
      7 S7         -2.6319  -15.5706  -49.1977 S.3       23 UNK        -0.2404 
      8 C8         -2.3812  -17.1156  -48.2658 C.3       23 UNK        -0.0205 
      9 C9         -1.3017  -17.9750  -48.9049 C.ar      23 UNK        -0.0193 
     10 C10        -1.5809  -18.6508  -50.0922 C.ar      23 UNK        -0.1150 
     11 C11        -0.5812  -19.3552  -50.7666 C.ar      23 UNK        -0.0193 
     12 C12         0.6973  -19.4320  -50.2074 C.ar      23 UNK        -0.1150 
     13 C13         0.9810  -18.7944  -48.9954 C.ar      23 UNK        -0.0193 
     14 C14        -0.0247  -18.0699  -48.3452 C.ar      23 UNK        -0.1150 
     15 C15         2.3906  -18.8279  -48.4249 C.3       23 UNK        -0.0205 
     16 S16         2.4729  -19.6509  -46.8063 S.3       23 UNK        -0.2404 
     17 C17         2.4926  -21.4213  -47.2299 C.3       23 UNK        -0.0398 
     18 CA          1.3661  -22.2726  -46.5927 C.3       11 UNK         0.1400 
     19 N           1.2641  -22.1740  -45.1290 N.am      11 UNK        -0.5000 
     20 C           0.6321  -23.0963  -44.3832 C.2       10 UNK         0.5000 
     21 O           0.1027  -24.1025  -44.8564 O.2       10 UNK        -0.5000 
     22 CA          0.5288  -22.8531  -42.8674 C.3       10 UNK         0.1400 
     23 CB          1.8732  -23.0992  -42.1662 C.3       10 UNK        -0.1800 
     24 N           0.0197  -21.5236  -42.5388 N.am      10 UNK        -0.5000 
     25 C          -1.2070  -21.0827  -42.8543 C.2       9 UNK         0.5000 
     26 O          -2.0493  -21.7644  -43.4390 O.2       9 UNK        -0.5000 
     27 CA         -1.5369  -19.6227  -42.4886 C.3       9 UNK         0.1400 
     28 CB         -2.0120  -19.5122  -41.0324 C.3       9 UNK        -0.1800 
     29 N          -0.4056  -18.7213  -42.7021 N.am      9 UNK        -0.5000 
     30 C           0.1514  -18.4804  -43.8968 C.2       8 UNK         0.5000 
     31 O          -0.2709  -18.9401  -44.9557 O.2       8 UNK        -0.5000 
     32 CA          1.4246  -17.6214  -43.8930 C.3       8 UNK         0.1400 
     33 CB          1.0729  -16.1272  -43.8090 C.3       8 UNK        -0.1800 
     34 N           2.3294  -18.0036  -42.8061 N.am      8 UNK        -0.5000 
     35 C           2.9762  -19.1790  -42.7348 C.2       7 UNK         0.5000 
     36 O           2.9018  -20.0571  -43.5929 O.2       7 UNK        -0.5000 
     37 CA          3.8178  -19.4393  -41.4712 C.3       7 UNK         0.1400 
     38 CB          5.2254  -18.8458  -41.6303 C.3       7 UNK        -0.1800 
     39 N           3.2005  -18.8990  -40.2608 N.am      7 UNK        -0.5000 
     40 C           2.0487  -19.3349  -39.7295 C.2       6 UNK         0.5000 
     41 O           1.4207  -20.3020  -40.1593 O.2       6 UNK        -0.5000 
     42 CA          1.4716  -18.4984  -38.5680 C.3       6 UNK         0.1400 
     43 CB          2.0214  -18.9889  -37.2207 C.3       6 UNK        -0.1800 
     44 N           1.7464  -17.0631  -38.7165 N.am      6 UNK        -0.5000 
     45 C           1.3152  -16.3244  -39.7478 C.2       5 UNK         0.5000 
     46 O           0.5695  -16.7698  -40.6236 O.2       5 UNK        -0.5000 
     47 CA          1.8891  -14.8973  -39.8626 C.3       5 UNK         0.1400 
     48 CB          3.3976  -14.9458  -40.1629 C.3       5 UNK        -0.1800 
     49 N           1.2449  -14.1334  -40.9299 N.am      5 UNK        -0.5000 
     50 C           0.0150  -13.6110  -40.8720 C.2       4 UNK         0.5000 
     51 O          -0.6865  -13.6465  -39.8588 O.2       4 UNK        -0.5000 
     52 CA         -0.5305  -12.9603  -42.1645 C.3       4 UNK         0.1400 
     53 CB         -1.4930  -11.7915  -41.8673 C.3       4 UNK        -0.1800 
     54 N           0.4832  -12.5420  -43.1463 N.am      4 UNK        -0.5000 
     55 C           1.4584  -11.6368  -42.9900 C.2       3 UNK         0.5000 
     56 O           1.7469  -11.1360  -41.9018 O.2       3 UNK        -0.5000 
     57 CA          2.2114  -11.1882  -44.2683 C.3       3 UNK         0.1400 
     58 CB          3.3887  -10.2457  -43.9550 C.3       3 UNK        -0.1800 
     59 N           2.7065  -12.2614  -45.1414 N.am      3 UNK        -0.5000 
     60 C           1.9723  -13.0719  -45.9139 C.2       2 UNK         0.5000 
     61 O           0.7421  -13.1463  -45.8454 O.2       2 UNK        -0.5000 
     62 CA          2.7472  -13.9296  -46.9408 C.3       2 UNK         0.1400 
     63 CB          3.5851  -15.0262  -46.2624 C.3       2 UNK        -0.1800 
     64 N           1.8408  -14.5617  -47.9000 N.am      2 UNK        -0.5000 
     65 C           1.2016  -13.9169  -48.8849 C.2       1 UNK         0.5000 
     66 O           1.4542  -12.7583  -49.2275 O.2       1 UNK        -0.5000 
     67 C           0.0055  -22.1021  -47.2972 C.2       11 UNK         0.5000 
     68 O          -0.2356  -22.7993  -48.2831 O.2       11 UNK        -0.5000 
     69 N          -0.8838  -21.2574  -46.7503 N.am      12 UNK        -0.5000 
     70 CA         -2.2659  -21.1076  -47.2118 C.3       12 UNK         0.1400 
     71 CB         -2.9823  -20.0150  -46.4047 C.3       12 UNK        -0.1800 
     72 C          -3.0583  -22.4209  -47.1231 C.2       12 UNK         0.5000 
     73 O          -3.6980  -22.8094  -48.1015 O.2       12 UNK        -0.5000 
     74 N          -2.9738  -23.0857  -45.9621 N.am      13 UNK        -0.5000 
     75 CA         -3.6090  -24.3727  -45.6915 C.3       13 UNK         0.1400 
     76 CB         -3.5066  -24.6903  -44.1921 C.3       13 UNK        -0.1800 
     77 C          -3.0168  -25.5146  -46.5340 C.2       13 UNK         0.5000 
     78 O          -3.7769  -26.3141  -47.0805 O.2       13 UNK        -0.5000 
     79 N          -1.6809  -25.5596  -46.6427 N.am      14 UNK        -0.5000 
     80 CA         -0.9448  -26.5691  -47.4062 C.3       14 UNK         0.1400 
     81 CB          0.5586  -26.4422  -47.1195 C.3       14 UNK        -0.1800 
     82 C          -1.2141  -26.4971  -48.9195 C.2       14 UNK         0.5000 
     83 O          -1.3928  -27.5383  -49.5528 O.2       14 UNK        -0.5000 
     84 N          -1.2558  -25.2756  -49.4685 N.am      15 UNK        -0.5000 
     85 CA         -1.5497  -25.0257  -50.8795 C.3       15 UNK         0.1400 
     86 CB         -0.9871  -23.6493  -51.2721 C.3       15 UNK        -0.1800 
     87 C          -3.0529  -25.0819  -51.2051 C.2       15 UNK         0.5000 
     88 O          -3.3986  -25.1533  -52.3836 O.2       15 UNK        -0.5000 
     89 N          -3.9159  -24.9699  -50.1828 N.am      16 UNK        -0.5000 
     90 CA         -5.3661  -24.7451  -50.2712 C.3       16 UNK         0.1400 
     91 CB         -6.0858  -25.9862  -50.8369 C.3       16 UNK        -0.1800 
     92 C          -5.6755  -23.4500  -51.0535 C.2       16 UNK         0.5000 
     93 O          -6.4700  -23.4541  -51.9969 O.2       16 UNK        -0.5000 
     94 N          -4.9358  -22.3854  -50.7031 N.am      17 UNK        -0.5000 
     95 CA         -4.8537  -21.0814  -51.3765 C.3       17 UNK         0.1400 
     96 CB         -6.1728  -20.3021  -51.2077 C.3       17 UNK        -0.1800 
     97 C          -4.4105  -21.1592  -52.8576 C.2       17 UNK         0.5000 
     98 O          -4.6368  -20.2113  -53.6112 O.2       17 UNK        -0.5000 
     99 N          -3.8064  -22.2906  -53.2558 N.am      18 UNK        -0.5000 
    100 CA        -3.4565  -22.6809  -54.6248 C.3       18 UNK         0.1400 
    101 CB        -2.3245  -21.7919  -55.1775 C.3       18 UNK        -0.1800 
    102 C         -4.6967  -22.7450  -55.5406 C.2       18 UNK         0.5000 
    103 O         -4.6289  -22.3310  -56.6966 O.2       18 UNK        -0.5000 
    104 N         -5.8271  -23.2113  -54.9833 N.am      19 UNK        -0.5000 
    105 CA        -7.1698  -23.1938  -55.5790 C.3       19 UNK         0.1400 
    106 CB        -7.2502  -24.1225  -56.8088 C.3       19 UNK        -0.1800 
    107 C         -7.6558  -21.7546  -55.8626 C.2       19 UNK         0.5000 
    108 O         -8.2675  -21.4913  -56.8990 O.2       19 UNK        -0.5000 
    109 N         -7.3413  -20.8525  -54.9216 N.am      20 UNK        -0.5000 
    110 CA        -7.5849  -19.4068  -54.9225 C.3       20 UNK         0.1400 
    111 CB        -9.0924  -19.0897  -55.0133 C.3       20 UNK        -0.1800 
    112 C         -6.7405  -18.6211  -55.9500 C.2       20 UNK         0.5000 
    113 O         -7.0764  -17.4745  -56.2522 O.2       20 UNK        -0.5000 
    114 N         -5.6495  -19.2182  -56.4545 N.am      21 UNK        -0.5000 
    115 CA        -4.6890  -18.5486  -57.3350 C.3       21 UNK         0.1400 
    116 CB        -3.8909  -19.5874  -58.1350 C.3       21 UNK        -0.1800 
    117 C         -3.7404  -17.6065  -56.5695 C.2       21 UNK         0.5000 
    118 O         -3.2686  -16.6319  -57.1572 O.2       21 UNK        -0.5000 
    119 N         -3.4844  -17.8902  -55.2841 N.am      22 UNK        -0.5000 
    120 CA        -2.7661  -16.9839  -54.3779 C.3       22 UNK         0.1400 
    121 C         -3.6916  -15.8107  -53.9550 C.2       22 UNK         0.5000 
    122 N         -3.3568  -14.5786  -54.3129 N.am      22 UNK        -0.7600 
    123 O         -4.7004  -16.0107  -53.2830 O.2       22 UNK        -0.5000 
    124 C124       -2.2176  -17.7191  -53.1313 C.3       23 UNK        -0.0398 
    125 S125       -0.8249  -18.8408  -53.5010 S.3       23 UNK        -0.2404 
    126 C126       -0.8822  -20.0162  -52.1040 C.3       23 UNK        -0.0205 
    127 H127       -0.8161  -13.3788  -53.2222 H         1 UNK         0.0600 
    128 H128       -0.0689  -14.7820  -53.9941 H         1 UNK         0.0600 
    129 H129        0.8740  -13.3112  -53.7277 H         1 UNK         0.0600 
    130 H130       -1.0758  -13.6994  -51.0294 H         1 UNK         0.3000 
    131 H131        0.3280  -15.7345  -49.5927 H         1 UNK         0.0600 
    132 H132       -0.9850  -14.8608  -47.5985 H         1 UNK         0.0800 
    133 H133       -1.5468  -13.5326  -48.5685 H         1 UNK         0.0800 
    134 H134       -3.3211  -17.6689  -48.2545 H         1 UNK         0.0800 
    135 H135       -2.1431  -16.8915  -47.2249 H         1 UNK         0.0800 
    136 H136       -2.5748  -18.5852  -50.5069 H         1 UNK         0.1150 
    137 H137        1.4758  -19.9730  -50.7265 H         1 UNK         0.1150 
    138 H138        0.1949  -17.5636  -47.4159 H         1 UNK         0.1150 
    139 H139        3.0877  -19.3060  -49.1146 H         1 UNK         0.0800 
    140 H140        2.7404  -17.8015  -48.3074 H         1 UNK         0.0800 
    141 H141        2.4893  -21.5409  -48.3148 H         1 UNK         0.0800 
    142 H142        3.4560  -21.8120  -46.9005 H         1 UNK         0.0800 
    143 H143        1.6571  -23.3051  -46.7964 H         1 UNK         0.0600 
    144 H144        1.6820  -21.3596  -44.6888 H         1 UNK         0.3000 
    145 H145       -0.1849  -23.5779  -42.4699 H         1 UNK         0.0600 
    146 H146        1.7827  -22.9795  -41.0865 H         1 UNK         0.0600 
    147 H147        2.6470  -22.4170  -42.5148 H         1 UNK         0.0600 
    148 H148        2.2267  -24.1140  -42.3522 H         1 UNK         0.0600 
    149 H149        0.6351  -20.9154  -42.0112 H         1 UNK         0.3000 
    150 H150       -2.3508  -19.2938  -43.1378 H         1 UNK         0.0600 
    151 H151       -2.8865  -20.1407  -40.8598 H         1 UNK         0.0600 
    152 H152       -2.2923  -18.4879  -40.7859 H         1 UNK         0.0600 
    153 H153       -1.2395  -19.8252  -40.3300 H         1 UNK         0.0600 
    154 H154       -0.0150  -18.2625  -41.8855 H         1 UNK         0.3000 
    155 H155        1.9533  -17.7800  -44.8310 H         1 UNK         0.0600 
    156 H156        0.6019  -15.7952  -44.7348 H         1 UNK         0.0600 
    157 H157        1.9584  -15.5121  -43.6517 H         1 UNK         0.0600 
    158 H158        0.3684  -15.9161  -43.0065 H         1 UNK         0.0600 
    159 H159        2.3781  -17.3751  -42.0196 H         1 UNK         0.3000 
    160 H160        3.9132  -20.5203  -41.3494 H         1 UNK         0.0600 
    161 H161        5.1975  -17.7601  -41.7314 H         1 UNK         0.0600 
    162 H162        5.7184  -19.2455  -42.5176 H         1 UNK         0.0600 
    163 H163        5.8547  -19.0878  -40.7737 H         1 UNK         0.0600 
    164 H164        3.6557  -18.1069  -39.8331 H         1 UNK         0.3000 
    165 H165        0.3882  -18.6361  -38.5678 H         1 UNK         0.0600 
    166 H166        1.5618  -18.4544  -36.3891 H         1 UNK         0.0600 
    167 H167        1.8131  -20.0502  -37.0781 H         1 UNK         0.0600 
    168 H168        3.1015  -18.8540  -37.1518 H         1 UNK         0.0600 
    169 H169        2.3531  -16.6441  -38.0262 H         1 UNK         0.3000 
    170 H170        1.7303  -14.3837  -38.9123 H         1 UNK         0.0600 
    171 H171        3.6088  -15.4747  -41.0933 H         1 UNK         0.0600 
    172 H172        3.8115  -13.9409  -40.2511 H         1 UNK         0.0600 
    173 H173        3.9483  -15.4471  -39.3663 H         1 UNK         0.0600 
    174 H174        1.7464  -14.0552  -41.8008 H         1 UNK         0.3000 
    175 H175       -1.1117  -13.7404  -42.6581 H         1 UNK         0.0600 
    176 H176       -0.9955  -10.9887  -41.3223 H         1 UNK         0.0600 
    177 H177       -1.8986  -11.3712  -42.7876 H         1 UNK         0.0600 
    178 H178       -2.3403  -12.1204  -41.2645 H         1 UNK         0.0600 
    179 H179        0.3552  -12.8975  -44.0924 H         1 UNK         0.3000 
    180 H180        1.4877  -10.6116  -44.8482 H         1 UNK         0.0600 
    181 H181        4.1617  -10.7497  -43.3735 H         1 UNK         0.0600 
    182 H182        3.0592   -9.3772  -43.3830 H         1 UNK         0.0600 
    183 H183        3.8477   -9.8683  -44.8690 H         1 UNK         0.0600 
    184 H184        3.7110  -12.3038  -45.2354 H         1 UNK         0.3000 
    185 H185        3.4237  -13.2650  -47.4824 H         1 UNK         0.0600 
    186 H186        2.9606  -15.7986  -45.8183 H         1 UNK         0.0600 
    187 H187        4.2403  -15.5143  -46.9842 H         1 UNK         0.0600 
    188 H188        4.2216  -14.6207  -45.4752 H         1 UNK         0.0600 
    189 H189        1.5527  -15.5006  -47.6728 H         1 UNK         0.3000 
    190 H190       -0.5957  -20.6691  -45.9746 H         1 UNK         0.3000 
    191 H191       -2.2315  -20.8016  -48.2587 H         1 UNK         0.0600 
    192 H192       -2.4124  -19.0901  -46.3959 H         1 UNK         0.0600 
    193 H193       -3.1376  -20.3075  -45.3669 H         1 UNK         0.0600 
    194 H194       -3.9612  -19.7952  -46.8321 H         1 UNK         0.0600 
    195 H195       -2.4451  -22.6729  -45.1994 H         1 UNK         0.3000 
    196 H196       -4.6668  -24.2841  -45.9479 H         1 UNK         0.0600 
    197 H197       -4.0030  -23.9260  -43.5939 H         1 UNK         0.0600 
    198 H198       -2.4685  -24.7483  -43.8623 H         1 UNK         0.0600 
    199 H199       -3.9807  -25.6448  -43.9602 H         1 UNK         0.0600 
    200 H200       -1.1231  -24.8870  -46.1226 H         1 UNK         0.3000 
    201 H201       -1.2723  -27.5509  -47.0580 H         1 UNK         0.0600 
    202 H202        0.7696  -26.5593  -46.0564 H         1 UNK         0.0600 
    203 H203        0.9460  -25.4735  -47.4346 H         1 UNK         0.0600 
    204 H204        1.1236  -27.2099  -47.6496 H         1 UNK         0.0600 
    205 H205       -1.0497  -24.4604  -48.8965 H         1 UNK         0.3000 
    206 H206       -1.0493  -25.7827  -51.4870 H         1 UNK         0.0600 
    207 H207        0.0816  -23.5856  -51.0663 H         1 UNK         0.0600 
    208 H208       -1.4800  -22.8432  -50.7266 H         1 UNK         0.0600 
    209 H209       -1.1231  -23.4571  -52.3370 H         1 UNK         0.0600 
    210 H210       -3.5255  -24.8828  -49.2536 H         1 UNK         0.3000 
    211 H211       -5.7212  -24.5880  -49.2517 H         1 UNK         0.0600 
    212 H212       -5.8132  -26.1804  -51.8746 H         1 UNK         0.0600 
    213 H213       -7.1680  -25.8563  -50.8034 H         1 UNK         0.0600 
    214 H214       -5.8469  -26.8767  -50.2554 H         1 UNK         0.0600 
    215 H215       -4.3394  -22.4973  -49.8860 H         1 UNK         0.3000 
    216 H216       -4.0734  -20.5243  -50.8574 H         1 UNK         0.0600 
    217 H217       -6.0782  -19.2822  -51.5826 H         1 UNK         0.0600 
    218 H218       -6.4556  -20.2327  -50.1573 H         1 UNK         0.0600 
    219 H219       -6.9956  -20.7745  -51.7449 H         1 UNK         0.0600 
    220 H220       -3.7072  -23.0345  -52.5772 H         1 UNK         0.3000 
    221 H221       -3.0716  -23.6996  -54.5738 H         1 UNK         0.0600 
    222 H222       -2.6279  -20.7490  -55.2606 H         1 UNK         0.0600 
    223 H223       -1.4466  -21.8324  -54.5334 H         1 UNK         0.0600 
    224 H224       -2.0117  -22.1233  -56.1681 H         1 UNK         0.0600 
    225 H225       -5.7965  -23.4972  -54.0101 H         1 UNK         0.3000 
    226 H226       -7.8426  -23.5964  -54.8204 H         1 UNK         0.0600 
    227 H227       -6.8960  -25.1250  -56.5691 H         1 UNK         0.0600 
    228 H228       -8.2792  -24.2172  -57.1575 H         1 UNK         0.0600 
    229 H229       -6.6580  -23.7476  -57.6439 H         1 UNK         0.0600 
    230 H230       -6.7932  -21.1825  -54.1399 H         1 UNK         0.3000 
    231 H231       -7.2443  -19.0567  -53.9472 H         1 UNK         0.0600 
    232 H232       -9.2812  -18.0323  -54.8248 H         1 UNK         0.0600 
    233 H233       -9.6601  -19.6547  -54.2740 H         1 UNK         0.0600 
    234 H234       -9.4981  -19.3203  -55.9985 H         1 UNK         0.0600 
    235 H235       -5.4293  -20.1633  -56.1692 H         1 UNK         0.3000 
    236 H236       -5.2458  -17.9420  -58.0524 H         1 UNK         0.0600 
    237 H237       -3.2459  -20.1850  -57.4924 H         1 UNK         0.0600 
    238 H238       -4.5521  -20.2658  -58.6746 H         1 UNK         0.0600 
    239 H239       -3.2515  -19.1008  -58.8725 H         1 UNK         0.0600 
    240 H240       -3.9313  -18.6923  -54.8532 H         1 UNK         0.3000 
    241 H241       -1.9102  -16.5685  -54.9142 H         1 UNK         0.0600 
    242 H242       -3.9516  -13.8126  -54.0381 H         1 UNK         0.3800 
    243 H243       -2.5614  -14.3998  -54.9053 H         1 UNK         0.3800 
    244 H244       -3.0226  -18.2798  -52.6567 H         1 UNK         0.0800 
    245 H245       -1.8594  -16.9984  -52.3932 H         1 UNK         0.0800 
    246 H246       -0.1633  -20.8142  -52.2944 H         1 UNK         0.0800 
    247 H247       -1.8551  -20.4976  -52.0642 H         1 UNK         0.0800 
@<TRIPOS>BOND
     1    1    2 1    
     2    1  127 1    
     3    1  128 1    
     4    1  129 1    
     5    2    3 2    
     6    2    4 am   BACKBONE|DICT|INTERRES
     7    4    5 1    
     8    4  130 1    
     9    5    6 1    
    10    5   65 1    
    11    5  131 1    
    12    6    7 1    
    13    6  132 1    
    14    6  133 1    
    15    7    8 1    
    16    8    9 1    
    17    8  134 1    
    18    8  135 1    
    19    9   10 ar   
    20    9   14 ar   
    21   10   11 ar   
    22   10  136 1    
    23   11   12 ar   
    24   11  126 1    
    25   12   13 ar   
    26   12  137 1    
    27   13   14 ar   
    28   13   15 1    
    29   14  138 1    
    30   15   16 1    
    31   15  139 1    
    32   15  140 1    
    33   16   17 1    
    34   17   18 1    
    35   17  141 1    
    36   17  142 1    
    37   18   19 1    
    38   18   67 1    
    39   18  143 1    
    40   19   20 am   BACKBONE|DICT|INTERRES
    41   19  144 1    
    42   20   21 2    
    43   20   22 1    
    44   22   23 1    
    45   22   24 1    
    46   22  145 1    
    47   23  146 1    
    48   23  147 1    
    49   23  148 1    
    50   24   25 am   BACKBONE|DICT|INTERRES
    51   24  149 1    
    52   25   26 2    
    53   25   27 1    
    54   27   28 1    
    55   27   29 1    
    56   27  150 1    
    57   28  151 1    
    58   28  152 1    
    59   28  153 1    
    60   29   30 am   BACKBONE|DICT|INTERRES
    61   29  154 1    
    62   30   31 2    
    63   30   32 1    
    64   32   33 1    
    65   32   34 1    
    66   32  155 1    
    67   33  156 1    
    68   33  157 1    
    69   33  158 1    
    70   34   35 am   BACKBONE|DICT|INTERRES
    71   34  159 1    
    72   35   36 2    
    73   35   37 1    
    74   37   38 1    
    75   37   39 1    
    76   37  160 1    
    77   38  161 1    
    78   38  162 1    
    79   38  163 1    
    80   39   40 am   BACKBONE|DICT|INTERRES
    81   39  164 1    
    82   40   41 2    
    83   40   42 1    
    84   42   43 1    
    85   42   44 1    
    86   42  165 1    
    87   43  166 1    
    88   43  167 1    
    89   43  168 1    
    90   44   45 am   BACKBONE|DICT|INTERRES
    91   44  169 1    
    92   45   46 2    
    93   45   47 1    
    94   47   48 1    
    95   47   49 1    
    96   47  170 1    
    97   48  171 1    
    98   48  172 1    
    99   48  173 1    
   100   49   50 am   BACKBONE|DICT|INTERRES
   101   49  174 1    
   102   50   51 2    
   103   50   52 1    
   104   52   53 1    
   105   52   54 1    
   106   52  175 1    
   107   53  176 1    
   108   53  177 1    
   109   53  178 1    
   110   54   55 am   BACKBONE|DICT|INTERRES
   111   54  179 1    
   112   55   56 2    
   113   55   57 1    
   114   57   58 1    
   115   57   59 1    
   116   57  180 1    
   117   58  181 1    
   118   58  182 1    
   119   58  183 1    
   120   59   60 am   BACKBONE|DICT|INTERRES
   121   59  184 1    
   122   60   61 2    
   123   60   62 1    
   124   62   63 1    
   125   62   64 1    
   126   62  185 1    
   127   63  186 1    
   128   63  187 1    
   129   63  188 1    
   130   64   65 am   BACKBONE|DICT|INTERRES
   131   64  189 1    
   132   65   66 2    
   133   67   68 2    
   134   67   69 am   BACKBONE|DICT|INTERRES
   135   69   70 1    
   136   69  190 1    
   137   70   71 1    
   138   70   72 1    
   139   70  191 1    
   140   71  192 1    
   141   71  193 1    
   142   71  194 1    
   143   72   73 2    
   144   72   74 am   BACKBONE|DICT|INTERRES
   145   74   75 1    
   146   74  195 1    
   147   75   76 1    
   148   75   77 1    
   149   75  196 1    
   150   76  197 1    
   151   76  198 1    
   152   76  199 1    
   153   77   78 2    
   154   77   79 am   BACKBONE|DICT|INTERRES
   155   79   80 1    
   156   79  200 1    
   157   80   81 1    
   158   80   82 1    
   159   80  201 1    
   160   81  202 1    
   161   81  203 1    
   162   81  204 1    
   163   82   83 2    
   164   82   84 am   BACKBONE|DICT|INTERRES
   165   84   85 1    
   166   84  205 1    
   167   85   86 1    
   168   85   87 1    
   169   85  206 1    
   170   86  207 1    
   171   86  208 1    
   172   86  209 1    
   173   87   88 2    
   174   87   89 am   BACKBONE|DICT|INTERRES
   175   89   90 1    
   176   89  210 1    
   177   90   91 1    
   178   90   92 1    
   179   90  211 1    
   180   91  212 1    
   181   91  213 1    
   182   91  214 1    
   183   92   93 2    
   184   92   94 am   BACKBONE|DICT|INTERRES
   185   94   95 1    
   186   94  215 1    
   187   95   96 1    
   188   95   97 1    
   189   95  216 1    
   190   96  217 1    
   191   96  218 1    
   192   96  219 1    
   193   97   98 2    
   194   97   99 am   BACKBONE|DICT|INTERRES
   195   99  100 1    
   196   99  220 1    
   197  100  101 1    
   198  100  102 1    
   199  100  221 1    
   200  101  222 1    
   201  101  223 1    
   202  101  224 1    
   203  102  103 2    
   204  102  104 am   BACKBONE|DICT|INTERRES
   205  104  105 1    
   206  104  225 1    
   207  105  106 1    
   208  105  107 1    
   209  105  226 1    
   210  106  227 1    
   211  106  228 1    
   212  106  229 1    
   213  107  108 2    
   214  107  109 am   BACKBONE|DICT|INTERRES
   215  109  110 1    
   216  109  230 1    
   217  110  111 1    
   218  110  112 1    
   219  110  231 1    
   220  111  232 1    
   221  111  233 1    
   222  111  234 1    
   223  112  113 2    
   224  112  114 am   BACKBONE|DICT|INTERRES
   225  114  115 1    
   226  114  235 1    
   227  115  116 1    
   228  115  117 1    
   229  115  236 1    
   230  116  237 1    
   231  116  238 1    
   232  116  239 1    
   233  117  118 2    
   234  117  119 am   BACKBONE|DICT|INTERRES
   235  119  120 1    
   236  119  240 1    
   237  120  121 1    
   238  120  124 1    
   239  120  241 1    
   240  121  122 am   BACKBONE|DICT|INTERRES
   241  121  123 2    
   242  122  242 1    
   243  122  243 1    
   244  124  125 1    
   245  124  244 1    
   246  124  245 1    
   247  125  126 1    
   248  126  246 1    
   249  126  247 1    
@<TRIPOS>SUBSTRUCTURE
     1 UNK         1 GROUP             0       ****    0 ROOT    
