@<TRIPOS>MOLECULE
3R540
247   249    1
SMALL
USER_CHARGES


@<TRIPOS>ATOM
      1 CA          5.2366  -19.1427  -47.8331 C.3       0 UNK        -0.1800 
      2 C           4.4922  -17.9793  -47.1960 C.2       0 UNK         0.5000 
      3 O           4.6968  -17.6907  -46.0167 O.2       0 UNK        -0.5000 
      4 N           3.6448  -17.2932  -47.9739 N.am      1 UNK        -0.5000 
      5 CA          2.7840  -16.1915  -47.5209 C.3       1 UNK         0.1400 
      6 C6          1.7759  -15.7440  -48.6107 C.3       23 UNK        -0.0398 
      7 S7          0.7012  -17.1020  -49.1903 S.3       23 UNK        -0.2404 
      8 C8         -0.9164  -16.2703  -49.3125 C.3       23 UNK        -0.0205 
      9 C9         -1.9795  -17.1825  -49.9106 C.ar      23 UNK        -0.0193 
     10 C10        -1.8623  -17.6051  -51.2377 C.ar      23 UNK        -0.1150 
     11 C11        -2.8320  -18.4287  -51.8140 C.ar      23 UNK        -0.0193 
     12 C12        -3.9303  -18.8311  -51.0486 C.ar      23 UNK        -0.1150 
     13 C13        -4.0740  -18.4010  -49.7269 C.ar      23 UNK        -0.0193 
     14 C14        -3.0926  -17.5790  -49.1603 C.ar      23 UNK        -0.1150 
     15 C15        -5.3121  -18.8007  -48.9361 C.3       23 UNK        -0.0205 
     16 S16        -5.1205  -20.4186  -48.1225 S.3       23 UNK        -0.2404 
     17 C17        -4.1442  -19.9720  -46.6492 C.3       23 UNK        -0.0398 
     18 CA         -2.6296  -20.2108  -46.8459 C.3       11 UNK         0.1400 
     19 N          -1.8314  -19.3154  -46.0110 N.am      11 UNK        -0.5000 
     20 C          -0.5042  -19.1696  -46.1126 C.2       10 UNK         0.5000 
     21 O           0.1990  -19.7798  -46.9176 O.2       10 UNK        -0.5000 
     22 CA          0.1482  -18.2261  -45.0930 C.3       10 UNK         0.1400 
     23 CB         -0.2160  -16.7616  -45.3860 C.3       10 UNK        -0.1800 
     24 N          -0.2370  -18.5459  -43.7197 N.am      10 UNK        -0.5000 
     25 C          -0.0271  -19.7159  -43.1013 C.2       9 UNK         0.5000 
     26 O           0.5703  -20.6636  -43.6063 O.2       9 UNK        -0.5000 
     27 CA         -0.6329  -19.8694  -41.6963 C.3       9 UNK         0.1400 
     28 CB          0.2816  -19.2524  -40.6264 C.3       9 UNK        -0.1800 
     29 N          -1.9674  -19.2783  -41.6039 N.am      9 UNK        -0.5000 
     30 C          -3.0472  -19.7262  -42.2609 C.2       8 UNK         0.5000 
     31 O          -3.0457  -20.7097  -43.0016 O.2       8 UNK        -0.5000 
     32 CA         -4.3310  -18.8938  -42.1002 C.3       8 UNK         0.1400 
     33 CB         -5.0095  -19.1859  -40.7535 C.3       8 UNK        -0.1800 
     34 N          -4.0685  -17.4584  -42.2161 N.am      8 UNK        -0.5000 
     35 C          -3.6690  -16.8589  -43.3462 C.2       7 UNK         0.5000 
     36 O          -3.5262  -17.4497  -44.4170 O.2       7 UNK        -0.5000 
     37 CA         -3.3388  -15.3571  -43.2555 C.3       7 UNK         0.1400 
     38 CB         -4.6064  -14.5161  -43.4667 C.3       7 UNK        -0.1800 
     39 N          -2.7012  -14.9665  -41.9938 N.am      7 UNK        -0.5000 
     40 C          -1.5117  -15.4083  -41.5643 C.2       6 UNK         0.5000 
     41 O          -0.8331  -16.2489  -42.1581 O.2       6 UNK        -0.5000 
     42 CA         -1.0179  -14.8473  -40.2265 C.3       6 UNK         0.1400 
     43 CB         -1.6567  -15.6082  -39.0513 C.3       6 UNK        -0.1800 
     44 N           0.4362  -14.9696  -40.1520 N.am      6 UNK        -0.5000 
     45 C           1.2428  -14.1431  -39.4754 C.2       5 UNK         0.5000 
     46 O           0.8339  -13.1587  -38.8574 O.2       5 UNK        -0.5000 
     47 CA          2.7517  -14.4617  -39.4506 C.3       5 UNK         0.1400 
     48 CB          3.1870  -14.8581  -38.0298 C.3       5 UNK        -0.1800 
     49 N           3.1429  -15.5375  -40.3649 N.am      5 UNK        -0.5000 
     50 C           3.5765  -15.3555  -41.6179 C.2       4 UNK         0.5000 
     51 O           3.6243  -14.2581  -42.1781 O.2       4 UNK        -0.5000 
     52 CA          3.9996  -16.6333  -42.3689 C.3       4 UNK         0.1400 
     53 CB          2.7980  -17.2433  -43.0942 C.3       4 UNK        -0.1800 
     54 N           5.0614  -16.4110  -43.3478 N.am      4 UNK        -0.5000 
     55 C           6.3141  -16.0339  -43.0626 C.2       3 UNK         0.5000 
     56 O           6.7299  -15.8395  -41.9193 O.2       3 UNK        -0.5000 
     57 CA          7.2706  -15.8630  -44.2549 C.3       3 UNK         0.1400 
     58 CB          7.9473  -17.1999  -44.5976 C.3       3 UNK        -0.1800 
     59 N           6.5826  -15.3578  -45.4438 N.am      3 UNK        -0.5000 
     60 C           6.4305  -14.0586  -45.7359 C.2       2 UNK         0.5000 
     61 O           6.8595  -13.1462  -45.0284 O.2       2 UNK        -0.5000 
     62 CA          5.7004  -13.7093  -47.0484 C.3       2 UNK         0.1400 
     63 CB          6.7169  -13.4280  -48.1660 C.3       2 UNK        -0.1800 
     64 N           4.7880  -14.7622  -47.4959 N.am      2 UNK        -0.5000 
     65 C           3.5682  -14.9747  -46.9838 C.2       1 UNK         0.5000 
     66 O           3.0615  -14.2681  -46.1129 O.2       1 UNK        -0.5000 
     67 C          -2.2401  -21.6902  -46.6546 C.2       11 UNK         0.5000 
     68 O          -2.1273  -22.4122  -47.6447 O.2       11 UNK        -0.5000 
     69 N          -1.9896  -22.1030  -45.4027 N.am      12 UNK        -0.5000 
     70 CA         -1.5099  -23.4416  -45.0573 C.3       12 UNK         0.1400 
     71 CB         -1.5378  -23.6299  -43.5334 C.3       12 UNK        -0.1800 
     72 C          -0.1091  -23.7399  -45.6236 C.2       12 UNK         0.5000 
     73 O           0.0917  -24.8134  -46.1914 O.2       12 UNK        -0.5000 
     74 N           0.8189  -22.7800  -45.4987 N.am      13 UNK        -0.5000 
     75 CA          2.1842  -22.8616  -46.0250 C.3       13 UNK         0.1400 
     76 CB          3.0131  -21.6786  -45.5009 C.3       13 UNK        -0.1800 
     77 C           2.2315  -22.9210  -47.5627 C.2       13 UNK         0.5000 
     78 O           3.0315  -23.6745  -48.1182 O.2       13 UNK        -0.5000 
     79 N           1.3506  -22.1556  -48.2198 N.am      14 UNK        -0.5000 
     80 CA          1.1567  -22.1664  -49.6705 C.3       14 UNK         0.1400 
     81 CB          0.4343  -20.8716  -50.0774 C.3       14 UNK        -0.1800 
     82 C           0.3663  -23.3894  -50.1781 C.2       14 UNK         0.5000 
     83 O           0.3082  -23.5995  -51.3904 O.2       14 UNK        -0.5000 
     84 N          -0.2840  -24.1299  -49.2656 N.am      15 UNK        -0.5000 
     85 CA         -1.2610  -25.2007  -49.5117 C.3       15 UNK         0.1400 
     86 CB         -0.5623  -26.4493  -50.0860 C.3       15 UNK        -0.1800 
     87 C          -2.4454  -24.7215  -50.3818 C.2       15 UNK         0.5000 
     88 O          -2.9402  -25.4650  -51.2317 O.2       15 UNK        -0.5000 
     89 N          -2.8116  -23.4424  -50.2054 N.am      16 UNK        -0.5000 
     90 CA         -3.7423  -22.6377  -51.0037 C.3       16 UNK         0.1400 
     91 CB         -5.1876  -23.1148  -50.7609 C.3       16 UNK        -0.1800 
     92 C          -3.4029  -22.5750  -52.5126 C.2       16 UNK         0.5000 
     93 O          -4.2782  -22.2489  -53.3132 O.2       16 UNK        -0.5000 
     94 N          -2.1662  -22.9413  -52.8926 N.am      17 UNK        -0.5000 
     95 CA         -1.7141  -23.2389  -54.2585 C.3       17 UNK         0.1400 
     96 CB         -1.5765  -21.9450  -55.0858 C.3       17 UNK        -0.1800 
     97 C          -2.5820  -24.3104  -54.9616 C.2       17 UNK         0.5000 
     98 O          -2.7386  -24.2703  -56.1832 O.2       17 UNK        -0.5000 
     99 N          -3.1745  -25.2172  -54.1670 N.am      18 UNK        -0.5000 
    100 CA        -4.1778  -26.2377  -54.4932 C.3       18 UNK         0.1400 
    101 CB        -3.6285  -27.2659  -55.4999 C.3       18 UNK        -0.1800 
    102 C         -5.5433  -25.6806  -54.9533 C.2       18 UNK         0.5000 
    103 O         -6.5772  -26.1963  -54.5269 O.2       18 UNK        -0.5000 
    104 N         -5.5324  -24.6631  -55.8212 N.am      19 UNK        -0.5000 
    105 CA        -6.7111  -24.0751  -56.4552 C.3       19 UNK         0.1400 
    106 CB        -6.2600  -23.2878  -57.6953 C.3       19 UNK        -0.1800 
    107 C         -7.5476  -23.1738  -55.5280 C.2       19 UNK         0.5000 
    108 O         -8.7661  -23.1152  -55.7032 O.2       19 UNK        -0.5000 
    109 N         -6.8884  -22.4834  -54.5841 N.am      20 UNK        -0.5000 
    110 CA        -7.4305  -21.4411  -53.7022 C.3       20 UNK         0.1400 
    111 CB        -8.4981  -22.0278  -52.7524 C.3       20 UNK        -0.1800 
    112 C         -7.9257  -20.1893  -54.4642 C.2       20 UNK         0.5000 
    113 O         -7.7175  -20.0705  -55.6746 O.2       20 UNK        -0.5000 
    114 N         -8.5471  -19.2574  -53.7228 N.am      21 UNK        -0.5000 
    115 CA        -9.1117  -17.9830  -54.1927 C.3       21 UNK         0.1400 
    116 CB       -10.3512  -18.2346  -55.0771 C.3       21 UNK        -0.1800 
    117 C         -8.0660  -17.0632  -54.8631 C.2       21 UNK         0.5000 
    118 O         -8.3447  -16.4456  -55.8929 O.2       21 UNK        -0.5000 
    119 N         -6.8695  -17.0078  -54.2653 N.am      22 UNK        -0.5000 
    120 CA        -5.6916  -16.2902  -54.7846 C.3       22 UNK         0.1400 
    121 C         -5.7693  -14.7365  -54.6990 C.2       22 UNK         0.5000 
    122 N         -6.7245  -14.1524  -53.9858 N.am      22 UNK        -0.7600 
    123 O         -4.9475  -14.0469  -55.2967 O.2       22 UNK        -0.5000 
    124 C124       -4.3793  -16.8020  -54.1364 C.3       23 UNK        -0.0398 
    125 S125       -4.1742  -18.6122  -54.2707 S.3       23 UNK        -0.2404 
    126 C126       -2.6795  -18.8792  -53.2612 C.3       23 UNK        -0.0205 
    127 H127        4.9559  -19.2805  -48.8775 H         1 UNK         0.0600 
    128 H128        5.0169  -20.0655  -47.2981 H         1 UNK         0.0600 
    129 H129        6.3117  -18.9690  -47.7875 H         1 UNK         0.0600 
    130 H130        3.5078  -17.5819  -48.9323 H         1 UNK         0.3000 
    131 H131        2.2250  -16.5815  -46.6720 H         1 UNK         0.0600 
    132 H132        2.3019  -15.3351  -49.4752 H         1 UNK         0.0800 
    133 H133        1.1455  -14.9383  -48.2295 H         1 UNK         0.0800 
    134 H134       -0.8183  -15.3838  -49.9409 H         1 UNK         0.0800 
    135 H135       -1.2233  -15.9195  -48.3268 H         1 UNK         0.0800 
    136 H136       -1.0070  -17.2912  -51.8195 H         1 UNK         0.1150 
    137 H137       -4.6848  -19.4673  -51.4900 H         1 UNK         0.1150 
    138 H138       -3.1990  -17.2447  -48.1377 H         1 UNK         0.1150 
    139 H139       -5.5633  -18.0342  -48.2015 H         1 UNK         0.0800 
    140 H140       -6.1680  -18.8551  -49.6105 H         1 UNK         0.0800 
    141 H141       -4.5241  -20.5195  -45.7846 H         1 UNK         0.0800 
    142 H142       -4.3356  -18.9217  -46.4299 H         1 UNK         0.0800 
    143 H143       -2.3750  -19.9572  -47.8768 H         1 UNK         0.0600 
    144 H144       -2.3343  -18.7660  -45.3205 H         1 UNK         0.3000 
    145 H145        1.2287  -18.3456  -45.1838 H         1 UNK         0.0600 
    146 H146        0.3226  -16.0743  -44.7344 H         1 UNK         0.0600 
    147 H147        0.0175  -16.4919  -46.4116 H         1 UNK         0.0600 
    148 H148       -1.2784  -16.5756  -45.2558 H         1 UNK         0.0600 
    149 H149       -0.6790  -17.7971  -43.1930 H         1 UNK         0.3000 
    150 H150       -0.7223  -20.9378  -41.4895 H         1 UNK         0.0600 
    151 H151        1.2890  -19.6660  -40.6885 H         1 UNK         0.0600 
    152 H152       -0.0928  -19.4594  -39.6238 H         1 UNK         0.0600 
    153 H153        0.3632  -18.1713  -40.7337 H         1 UNK         0.0600 
    154 H154       -2.0517  -18.4346  -41.0581 H         1 UNK         0.3000 
    155 H155       -5.0183  -19.1819  -42.8987 H         1 UNK         0.0600 
    156 H156       -4.3833  -18.8907  -39.9107 H         1 UNK         0.0600 
    157 H157       -5.2225  -20.2505  -40.6475 H         1 UNK         0.0600 
    158 H158       -5.9584  -18.6560  -40.6680 H         1 UNK         0.0600 
    159 H159       -4.1661  -16.9013  -41.3804 H         1 UNK         0.3000 
    160 H160       -2.6428  -15.1216  -44.0622 H         1 UNK         0.0600 
    161 H161       -5.3345  -14.6758  -42.6704 H         1 UNK         0.0600 
    162 H162       -5.0909  -14.7704  -44.4105 H         1 UNK         0.0600 
    163 H163       -4.3729  -13.4517  -43.5003 H         1 UNK         0.0600 
    164 H164       -3.1981  -14.2867  -41.4360 H         1 UNK         0.3000 
    165 H165       -1.3026  -13.7941  -40.1784 H         1 UNK         0.0600 
    166 H166       -1.3359  -15.1960  -38.0945 H         1 UNK         0.0600 
    167 H167       -2.7448  -15.5425  -39.0819 H         1 UNK         0.0600 
    168 H168       -1.3890  -16.6656  -39.0648 H         1 UNK         0.0600 
    169 H169        0.8312  -15.7154  -40.7082 H         1 UNK         0.3000 
    170 H170        3.2798  -13.5440  -39.7184 H         1 UNK         0.0600 
    171 H171        2.9586  -14.0678  -37.3134 H         1 UNK         0.0600 
    172 H172        2.6816  -15.7635  -37.6913 H         1 UNK         0.0600 
    173 H173        4.2617  -15.0348  -37.9816 H         1 UNK         0.0600 
    174 H174        3.1225  -16.4723  -39.9830 H         1 UNK         0.3000 
    175 H175        4.3679  -17.3570  -41.6388 H         1 UNK         0.0600 
    176 H176        2.4598  -16.5952  -43.9027 H         1 UNK         0.0600 
    177 H177        3.0460  -18.2153  -43.5218 H         1 UNK         0.0600 
    178 H178        1.9597  -17.3880  -42.4137 H         1 UNK         0.0600 
    179 H179        4.8260  -16.5977  -44.3161 H         1 UNK         0.3000 
    180 H180        8.0523  -15.1603  -43.9582 H         1 UNK         0.0600 
    181 H181        7.2214  -17.9560  -44.8993 H         1 UNK         0.0600 
    182 H182        8.4916  -17.5927  -43.7379 H         1 UNK         0.0600 
    183 H183        8.6647  -17.0813  -45.4097 H         1 UNK         0.0600 
    184 H184        6.1457  -16.0492  -46.0388 H         1 UNK         0.3000 
    185 H185        5.1271  -12.7961  -46.8746 H         1 UNK         0.0600 
    186 H186        7.3995  -12.6265  -47.8806 H         1 UNK         0.0600 
    187 H187        7.3205  -14.3078  -48.3928 H         1 UNK         0.0600 
    188 H188        6.2180  -13.1163  -49.0838 H         1 UNK         0.0600 
    189 H189        5.1276  -15.3895  -48.2106 H         1 UNK         0.3000 
    190 H190       -2.1381  -21.4613  -44.6302 H         1 UNK         0.3000 
    191 H191       -2.2027  -24.1626  -45.4963 H         1 UNK         0.0600 
    192 H192       -0.8866  -22.9182  -43.0264 H         1 UNK         0.0600 
    193 H193       -1.2068  -24.6319  -43.2577 H         1 UNK         0.0600 
    194 H194       -2.5457  -23.5006  -43.1390 H         1 UNK         0.0600 
    195 H195        0.5889  -21.9371  -44.9769 H         1 UNK         0.3000 
    196 H196        2.6309  -23.7824  -45.6444 H         1 UNK         0.0600 
    197 H197        4.0450  -21.7429  -45.8469 H         1 UNK         0.0600 
    198 H198        3.0388  -21.6671  -44.4112 H         1 UNK         0.0600 
    199 H199        2.6100  -20.7217  -45.8353 H         1 UNK         0.0600 
    200 H200        0.7756  -21.5061  -47.6892 H         1 UNK         0.3000 
    201 H201        2.1343  -22.1811  -50.1564 H         1 UNK         0.0600 
    202 H202        1.0164  -19.9961  -49.7922 H         1 UNK         0.0600 
    203 H203       -0.5450  -20.7886  -49.6038 H         1 UNK         0.0600 
    204 H204        0.2825  -20.8218  -51.1565 H         1 UNK         0.0600 
    205 H205       -0.1882  -23.8571  -48.2959 H         1 UNK         0.3000 
    206 H206       -1.6798  -25.4658  -48.5399 H         1 UNK         0.0600 
    207 H207       -1.2556  -27.2882  -50.1555 H         1 UNK         0.0600 
    208 H208        0.2645  -26.7641  -49.4492 H         1 UNK         0.0600 
    209 H209       -0.1662  -26.2686  -51.0858 H         1 UNK         0.0600 
    210 H210       -2.3845  -22.9548  -49.4203 H         1 UNK         0.3000 
    211 H211       -3.6544  -21.6198  -50.6251 H         1 UNK         0.0600 
    212 H212       -5.3760  -24.0845  -51.2229 H         1 UNK         0.0600 
    213 H213       -5.9061  -22.4073  -51.1731 H         1 UNK         0.0600 
    214 H214       -5.4010  -23.2022  -49.6956 H         1 UNK         0.0600 
    215 H215       -1.4961  -23.1858  -52.1702 H         1 UNK         0.3000 
    216 H216       -0.7194  -23.6757  -54.1605 H         1 UNK         0.0600 
    217 H217       -1.1440  -22.1494  -56.0658 H         1 UNK         0.0600 
    218 H218       -0.9191  -21.2309  -54.5906 H         1 UNK         0.0600 
    219 H219       -2.5412  -21.4636  -55.2492 H         1 UNK         0.0600 
    220 H220       -2.9880  -25.1437  -53.1702 H         1 UNK         0.3000 
    221 H221       -4.3611  -26.7665  -53.5564 H         1 UNK         0.0600 
    222 H222       -3.4373  -26.8213  -56.4768 H         1 UNK         0.0600 
    223 H223       -2.6978  -27.7073  -55.1435 H         1 UNK         0.0600 
    224 H224       -4.3388  -28.0801  -55.6481 H         1 UNK         0.0600 
    225 H225       -4.6243  -24.3188  -56.1204 H         1 UNK         0.3000 
    226 H226       -7.3566  -24.8898  -56.7904 H         1 UNK         0.0600 
    227 H227       -5.5856  -22.4728  -57.4285 H         1 UNK         0.0600 
    228 H228       -5.7433  -23.9324  -58.4067 H         1 UNK         0.0600 
    229 H229       -7.1145  -22.8502  -58.2133 H         1 UNK         0.0600 
    230 H230       -5.8831  -22.6024  -54.5103 H         1 UNK         0.3000 
    231 H231       -6.5946  -21.1008  -53.0914 H         1 UNK         0.0600 
    232 H232       -8.1543  -22.9591  -52.3019 H         1 UNK         0.0600 
    233 H233       -9.4342  -22.2350  -53.2717 H         1 UNK         0.0600 
    234 H234       -8.7224  -21.3437  -51.9339 H         1 UNK         0.0600 
    235 H235       -8.6581  -19.4368  -52.7349 H         1 UNK         0.3000 
    236 H236       -9.4506  -17.4516  -53.3023 H         1 UNK         0.0600 
    237 H237      -10.8505  -17.2979  -55.3276 H         1 UNK         0.0600 
    238 H238      -10.0874  -18.7254  -56.0145 H         1 UNK         0.0600 
    239 H239      -11.0802  -18.8622  -54.5645 H         1 UNK         0.0600 
    240 H240       -6.7178  -17.5606  -53.4353 H         1 UNK         0.3000 
    241 H241       -5.6310  -16.5197  -55.8503 H         1 UNK         0.0600 
    242 H242       -6.7676  -13.1462  -53.9419 H         1 UNK         0.3800 
    243 H243       -7.4083  -14.7056  -53.4950 H         1 UNK         0.3800 
    244 H244       -3.5118  -16.3312  -54.6024 H         1 UNK         0.0800 
    245 H245       -4.3535  -16.5197  -53.0827 H         1 UNK         0.0800 
    246 H246       -1.8406  -18.3727  -53.7410 H         1 UNK         0.0800 
    247 H247       -2.4388  -19.9399  -53.2625 H         1 UNK         0.0800 
@<TRIPOS>BOND
     1    1    2 1    
     2    1  127 1    
     3    1  128 1    
     4    1  129 1    
     5    2    3 2    
     6    2    4 am   BACKBONE|DICT|INTERRES
     7    4    5 1    
     8    4  130 1    
     9    5    6 1    
    10    5   65 1    
    11    5  131 1    
    12    6    7 1    
    13    6  132 1    
    14    6  133 1    
    15    7    8 1    
    16    8    9 1    
    17    8  134 1    
    18    8  135 1    
    19    9   10 ar   
    20    9   14 ar   
    21   10   11 ar   
    22   10  136 1    
    23   11   12 ar   
    24   11  126 1    
    25   12   13 ar   
    26   12  137 1    
    27   13   14 ar   
    28   13   15 1    
    29   14  138 1    
    30   15   16 1    
    31   15  139 1    
    32   15  140 1    
    33   16   17 1    
    34   17   18 1    
    35   17  141 1    
    36   17  142 1    
    37   18   19 1    
    38   18   67 1    
    39   18  143 1    
    40   19   20 am   BACKBONE|DICT|INTERRES
    41   19  144 1    
    42   20   21 2    
    43   20   22 1    
    44   22   23 1    
    45   22   24 1    
    46   22  145 1    
    47   23  146 1    
    48   23  147 1    
    49   23  148 1    
    50   24   25 am   BACKBONE|DICT|INTERRES
    51   24  149 1    
    52   25   26 2    
    53   25   27 1    
    54   27   28 1    
    55   27   29 1    
    56   27  150 1    
    57   28  151 1    
    58   28  152 1    
    59   28  153 1    
    60   29   30 am   BACKBONE|DICT|INTERRES
    61   29  154 1    
    62   30   31 2    
    63   30   32 1    
    64   32   33 1    
    65   32   34 1    
    66   32  155 1    
    67   33  156 1    
    68   33  157 1    
    69   33  158 1    
    70   34   35 am   BACKBONE|DICT|INTERRES
    71   34  159 1    
    72   35   36 2    
    73   35   37 1    
    74   37   38 1    
    75   37   39 1    
    76   37  160 1    
    77   38  161 1    
    78   38  162 1    
    79   38  163 1    
    80   39   40 am   BACKBONE|DICT|INTERRES
    81   39  164 1    
    82   40   41 2    
    83   40   42 1    
    84   42   43 1    
    85   42   44 1    
    86   42  165 1    
    87   43  166 1    
    88   43  167 1    
    89   43  168 1    
    90   44   45 am   BACKBONE|DICT|INTERRES
    91   44  169 1    
    92   45   46 2    
    93   45   47 1    
    94   47   48 1    
    95   47   49 1    
    96   47  170 1    
    97   48  171 1    
    98   48  172 1    
    99   48  173 1    
   100   49   50 am   BACKBONE|DICT|INTERRES
   101   49  174 1    
   102   50   51 2    
   103   50   52 1    
   104   52   53 1    
   105   52   54 1    
   106   52  175 1    
   107   53  176 1    
   108   53  177 1    
   109   53  178 1    
   110   54   55 am   BACKBONE|DICT|INTERRES
   111   54  179 1    
   112   55   56 2    
   113   55   57 1    
   114   57   58 1    
   115   57   59 1    
   116   57  180 1    
   117   58  181 1    
   118   58  182 1    
   119   58  183 1    
   120   59   60 am   BACKBONE|DICT|INTERRES
   121   59  184 1    
   122   60   61 2    
   123   60   62 1    
   124   62   63 1    
   125   62   64 1    
   126   62  185 1    
   127   63  186 1    
   128   63  187 1    
   129   63  188 1    
   130   64   65 am   BACKBONE|DICT|INTERRES
   131   64  189 1    
   132   65   66 2    
   133   67   68 2    
   134   67   69 am   BACKBONE|DICT|INTERRES
   135   69   70 1    
   136   69  190 1    
   137   70   71 1    
   138   70   72 1    
   139   70  191 1    
   140   71  192 1    
   141   71  193 1    
   142   71  194 1    
   143   72   73 2    
   144   72   74 am   BACKBONE|DICT|INTERRES
   145   74   75 1    
   146   74  195 1    
   147   75   76 1    
   148   75   77 1    
   149   75  196 1    
   150   76  197 1    
   151   76  198 1    
   152   76  199 1    
   153   77   78 2    
   154   77   79 am   BACKBONE|DICT|INTERRES
   155   79   80 1    
   156   79  200 1    
   157   80   81 1    
   158   80   82 1    
   159   80  201 1    
   160   81  202 1    
   161   81  203 1    
   162   81  204 1    
   163   82   83 2    
   164   82   84 am   BACKBONE|DICT|INTERRES
   165   84   85 1    
   166   84  205 1    
   167   85   86 1    
   168   85   87 1    
   169   85  206 1    
   170   86  207 1    
   171   86  208 1    
   172   86  209 1    
   173   87   88 2    
   174   87   89 am   BACKBONE|DICT|INTERRES
   175   89   90 1    
   176   89  210 1    
   177   90   91 1    
   178   90   92 1    
   179   90  211 1    
   180   91  212 1    
   181   91  213 1    
   182   91  214 1    
   183   92   93 2    
   184   92   94 am   BACKBONE|DICT|INTERRES
   185   94   95 1    
   186   94  215 1    
   187   95   96 1    
   188   95   97 1    
   189   95  216 1    
   190   96  217 1    
   191   96  218 1    
   192   96  219 1    
   193   97   98 2    
   194   97   99 am   BACKBONE|DICT|INTERRES
   195   99  100 1    
   196   99  220 1    
   197  100  101 1    
   198  100  102 1    
   199  100  221 1    
   200  101  222 1    
   201  101  223 1    
   202  101  224 1    
   203  102  103 2    
   204  102  104 am   BACKBONE|DICT|INTERRES
   205  104  105 1    
   206  104  225 1    
   207  105  106 1    
   208  105  107 1    
   209  105  226 1    
   210  106  227 1    
   211  106  228 1    
   212  106  229 1    
   213  107  108 2    
   214  107  109 am   BACKBONE|DICT|INTERRES
   215  109  110 1    
   216  109  230 1    
   217  110  111 1    
   218  110  112 1    
   219  110  231 1    
   220  111  232 1    
   221  111  233 1    
   222  111  234 1    
   223  112  113 2    
   224  112  114 am   BACKBONE|DICT|INTERRES
   225  114  115 1    
   226  114  235 1    
   227  115  116 1    
   228  115  117 1    
   229  115  236 1    
   230  116  237 1    
   231  116  238 1    
   232  116  239 1    
   233  117  118 2    
   234  117  119 am   BACKBONE|DICT|INTERRES
   235  119  120 1    
   236  119  240 1    
   237  120  121 1    
   238  120  124 1    
   239  120  241 1    
   240  121  122 am   BACKBONE|DICT|INTERRES
   241  121  123 2    
   242  122  242 1    
   243  122  243 1    
   244  124  125 1    
   245  124  244 1    
   246  124  245 1    
   247  125  126 1    
   248  126  246 1    
   249  126  247 1    
@<TRIPOS>SUBSTRUCTURE
     1 UNK         1 GROUP             0       ****    0 ROOT    
