@<TRIPOS>MOLECULE
3R540
247   249    1
SMALL
USER_CHARGES


@<TRIPOS>ATOM
      1 CA          0.6740  -13.0903  -52.8499 C.3       0 UNK        -0.1800 
      2 C           0.8746  -13.7522  -51.4937 C.2       0 UNK         0.5000 
      3 O           1.8085  -14.5377  -51.3288 O.2       0 UNK        -0.5000 
      4 N          -0.0007  -13.4424  -50.5294 N.am      1 UNK        -0.5000 
      5 CA          0.0397  -13.9737  -49.1653 C.3       1 UNK         0.1400 
      6 C6         -1.3364  -13.8147  -48.4677 C.3       23 UNK        -0.0398 
      7 S7         -1.4928  -14.8098  -46.9437 S.3       23 UNK        -0.2404 
      8 C8         -2.3789  -16.3063  -47.4923 C.3       23 UNK        -0.0205 
      9 C9         -1.6887  -17.0018  -48.6566 C.ar      23 UNK        -0.0193 
     10 C10        -2.3446  -17.1235  -49.8836 C.ar      23 UNK        -0.1150 
     11 C11        -1.6985  -17.7023  -50.9780 C.ar      23 UNK        -0.0193 
     12 C12        -0.3847  -18.1582  -50.8423 C.ar      23 UNK        -0.1150 
     13 C13         0.2849  -18.0369  -49.6216 C.ar      23 UNK        -0.0193 
     14 C14        -0.3827  -17.4836  -48.5246 C.ar      23 UNK        -0.1150 
     15 C15         1.7496  -18.4354  -49.5165 C.3       23 UNK        -0.0205 
     16 S16         1.9686  -20.2089  -49.1854 S.3       23 UNK        -0.2404 
     17 C17         1.6072  -20.2759  -47.3993 C.3       23 UNK        -0.0398 
     18 CA          0.9152  -21.5819  -46.9551 C.3       11 UNK         0.1400 
     19 N           0.8966  -21.6986  -45.4981 N.am      11 UNK        -0.5000 
     20 C           0.5818  -22.8110  -44.8234 C.2       10 UNK         0.5000 
     21 O           0.2763  -23.8753  -45.3607 O.2       10 UNK        -0.5000 
     22 CA          0.5723  -22.7050  -43.2889 C.3       10 UNK         0.1400 
     23 CB          2.0032  -22.7431  -42.7319 C.3       10 UNK        -0.1800 
     24 N          -0.1121  -21.5035  -42.8096 N.am      10 UNK        -0.5000 
     25 C          -1.4129  -21.2460  -43.0111 C.2       9 UNK         0.5000 
     26 O          -2.1758  -21.9987  -43.6170 O.2       9 UNK        -0.5000 
     27 CA         -1.9465  -19.9058  -42.4785 C.3       9 UNK         0.1400 
     28 CB         -2.1472  -19.9646  -40.9568 C.3       9 UNK        -0.1800 
     29 N          -1.0848  -18.7743  -42.8169 N.am      9 UNK        -0.5000 
     30 C          -0.7973  -18.3814  -44.0662 C.2       8 UNK         0.5000 
     31 O          -1.2225  -18.9321  -45.0810 O.2       8 UNK        -0.5000 
     32 CA          0.1762  -17.2017  -44.2043 C.3       8 UNK         0.1400 
     33 CB         -0.4898  -15.8904  -43.7641 C.3       8 UNK        -0.1800 
     34 N           1.4074  -17.4015  -43.4447 N.am      8 UNK        -0.5000 
     35 C           2.2485  -18.4359  -43.5840 C.2       7 UNK         0.5000 
     36 O           2.1098  -19.3344  -44.4123 O.2       7 UNK        -0.5000 
     37 CA          3.4174  -18.5015  -42.5905 C.3       7 UNK         0.1400 
     38 CB          4.5440  -17.5476  -43.0143 C.3       7 UNK        -0.1800 
     39 N           2.9863  -18.1901  -41.2279 N.am      7 UNK        -0.5000 
     40 C           2.1614  -18.9579  -40.5006 C.2       6 UNK         0.5000 
     41 O           1.6957  -20.0298  -40.8889 O.2       6 UNK        -0.5000 
     42 CA          1.7563  -18.4074  -39.1223 C.3       6 UNK         0.1400 
     43 CB          2.8706  -18.6407  -38.0910 C.3       6 UNK        -0.1800 
     44 N           1.4247  -16.9826  -39.1705 N.am      6 UNK        -0.5000 
     45 C           0.3605  -16.4808  -39.8122 C.2       5 UNK         0.5000 
     46 O          -0.4640  -17.1704  -40.4122 O.2       5 UNK        -0.5000 
     47 CA          0.2090  -14.9487  -39.8092 C.3       5 UNK         0.1400 
     48 CB         -0.5169  -14.4831  -38.5381 C.3       5 UNK        -0.1800 
     49 N           1.4768  -14.2235  -39.9372 N.am      5 UNK        -0.5000 
     50 C           2.3062  -14.3070  -40.9857 C.2       4 UNK         0.5000 
     51 O           2.1485  -15.0834  -41.9298 O.2       4 UNK        -0.5000 
     52 CA          3.5341  -13.3847  -40.9698 C.3       4 UNK         0.1400 
     53 CB          4.8231  -14.1926  -40.7542 C.3       4 UNK        -0.1800 
     54 N           3.6258  -12.6521  -42.2308 N.am      4 UNK        -0.5000 
     55 C           2.9235  -11.5466  -42.5146 C.2       3 UNK         0.5000 
     56 O           2.1682  -10.9935  -41.7139 O.2       3 UNK        -0.5000 
     57 CA          3.0985  -10.9502  -43.9245 C.3       3 UNK         0.1400 
     58 CB          4.2594   -9.9436  -43.9417 C.3       3 UNK        -0.1800 
     59 N           3.3295  -11.9673  -44.9530 N.am      3 UNK        -0.5000 
     60 C           2.3722  -12.7581  -45.4543 C.2       2 UNK         0.5000 
     61 O           1.1918  -12.7117  -45.1014 O.2       2 UNK        -0.5000 
     62 CA          2.8285  -13.7895  -46.5048 C.3       2 UNK         0.1400 
     63 CB          3.3392  -15.0619  -45.8088 C.3       2 UNK        -0.1800 
     64 N           1.7576  -14.1630  -47.4286 N.am      2 UNK        -0.5000 
     65 C           1.2034  -13.3626  -48.3493 C.2       1 UNK         0.5000 
     66 O           1.5702  -12.2036  -48.5637 O.2       1 UNK        -0.5000 
     67 C          -0.4939  -21.7483  -47.5596 C.2       11 UNK         0.5000 
     68 O          -0.6492  -22.5168  -48.5081 O.2       11 UNK        -0.5000 
     69 N          -1.5029  -21.0862  -46.9732 N.am      12 UNK        -0.5000 
     70 CA         -2.9042  -21.2070  -47.3801 C.3       12 UNK         0.1400 
     71 CB         -3.7643  -20.1989  -46.6053 C.3       12 UNK        -0.1800 
     72 C          -3.4547  -22.6351  -47.2147 C.2       12 UNK         0.5000 
     73 O          -4.1707  -23.1056  -48.0970 O.2       12 UNK        -0.5000 
     74 N          -3.0815  -23.3079  -46.1154 N.am      13 UNK        -0.5000 
     75 CA         -3.4143  -24.7073  -45.8493 C.3       13 UNK         0.1400 
     76 CB         -3.0558  -25.0632  -44.3987 C.3       13 UNK        -0.1800 
     77 C          -2.7355  -25.6743  -46.8358 C.2       13 UNK         0.5000 
     78 O          -3.4014  -26.5709  -47.3541 O.2       13 UNK        -0.5000 
     79 N          -1.4403  -25.4599  -47.1114 N.am      14 UNK        -0.5000 
     80 CA         -0.6577  -26.2286  -48.0852 C.3       14 UNK         0.1400 
     81 CB          0.8209  -25.8227  -47.9936 C.3       14 UNK        -0.1800 
     82 C          -1.1771  -26.0741  -49.5277 C.2       14 UNK         0.5000 
     83 O          -1.1931  -27.0484  -50.2802 O.2       14 UNK        -0.5000 
     84 N          -1.6364  -24.8634  -49.8660 N.am      15 UNK        -0.5000 
     85 CA         -2.2884  -24.5179  -51.1285 C.3       15 UNK         0.1400 
     86 CB         -2.0824  -23.0179  -51.3861 C.3       15 UNK        -0.1800 
     87 C          -3.7858  -24.8967  -51.1808 C.2       15 UNK         0.5000 
     88 O          -4.4453  -24.5660  -52.1677 O.2       15 UNK        -0.5000 
     89 N          -4.2997  -25.5688  -50.1386 N.am      16 UNK        -0.5000 
     90 CA         -5.6576  -26.0907  -49.9601 C.3       16 UNK         0.1400 
     91 CB         -5.9322  -27.2449  -50.9474 C.3       16 UNK        -0.1800 
     92 C          -6.7415  -24.9967  -50.0033 C.2       16 UNK         0.5000 
     93 O          -7.1700  -24.5172  -48.9534 O.2       16 UNK        -0.5000 
     94 N          -7.1689  -24.6304  -51.2172 N.am      17 UNK        -0.5000 
     95 CA         -8.1290  -23.5616  -51.4877 C.3       17 UNK         0.1400 
     96 CB         -8.7824  -23.8300  -52.8532 C.3       17 UNK        -0.1800 
     97 C          -7.4859  -22.1611  -51.4746 C.2       17 UNK         0.5000 
     98 O          -8.2163  -21.1698  -51.4912 O.2       17 UNK        -0.5000 
     99 N          -6.1450  -22.0974  -51.5060 N.am      18 UNK        -0.5000 
    100 CA        -5.2780  -20.9138  -51.5982 C.3       18 UNK         0.1400 
    101 CB        -5.5250  -19.9111  -50.4560 C.3       18 UNK        -0.1800 
    102 C         -5.3227  -20.2443  -52.9829 C.2       18 UNK         0.5000 
    103 O         -4.2712  -20.0079  -53.5790 O.2       18 UNK        -0.5000 
    104 N         -6.5302  -20.0340  -53.5211 N.am      19 UNK        -0.5000 
    105 CA        -6.7938  -19.5501  -54.8796 C.3       19 UNK         0.1400 
    106 CB        -8.3101  -19.4003  -55.0688 C.3       19 UNK        -0.1800 
    107 C         -6.1983  -20.4497  -55.9826 C.2       19 UNK         0.5000 
    108 O         -5.8954  -19.9578  -57.0684 O.2       19 UNK        -0.5000 
    109 N         -5.9888  -21.7358  -55.6682 N.am      20 UNK        -0.5000 
    110 CA        -5.2858  -22.7072  -56.5058 C.3       20 UNK         0.1400 
    111 CB        -5.4175  -24.0968  -55.8631 C.3       20 UNK        -0.1800 
    112 C         -3.7994  -22.3613  -56.7402 C.2       20 UNK         0.5000 
    113 O         -3.2548  -22.7442  -57.7764 O.2       20 UNK        -0.5000 
    114 N         -3.1764  -21.6481  -55.7906 N.am      21 UNK        -0.5000 
    115 CA        -1.7955  -21.1764  -55.8796 C.3       21 UNK         0.1400 
    116 CB        -1.0928  -21.3886  -54.5293 C.3       21 UNK        -0.1800 
    117 C         -1.7358  -19.6985  -56.2986 C.2       21 UNK         0.5000 
    118 O         -0.9268  -19.3513  -57.1602 O.2       21 UNK        -0.5000 
    119 N         -2.5803  -18.8563  -55.6872 N.am      22 UNK        -0.5000 
    120 CA        -2.6278  -17.4063  -55.9477 C.3       22 UNK         0.1400 
    121 C         -3.3297  -17.0003  -57.2767 C.2       22 UNK         0.5000 
    122 N         -4.1382  -17.8429  -57.9050 N.am      22 UNK        -0.7600 
    123 O         -3.1227  -15.8904  -57.7598 O.2       22 UNK        -0.5000 
    124 C124       -3.2144  -16.6262  -54.7425 C.3       23 UNK        -0.0398 
    125 S125       -2.0036  -16.4122  -53.3935 S.3       23 UNK        -0.2404 
    126 C126       -2.4139  -17.8106  -52.3115 C.3       23 UNK        -0.0205 
    127 H127        0.4976  -13.8488  -53.6128 H         1 UNK         0.0600 
    128 H128       -0.1766  -12.4083  -52.8470 H         1 UNK         0.0600 
    129 H129        1.5632  -12.5245  -53.1277 H         1 UNK         0.0600 
    130 H130       -0.7223  -12.7617  -50.7169 H         1 UNK         0.3000 
    131 H131        0.2460  -15.0378  -49.2675 H         1 UNK         0.0600 
    132 H132       -2.1380  -14.1071  -49.1474 H         1 UNK         0.0800 
    133 H133       -1.5218  -12.7683  -48.2196 H         1 UNK         0.0800 
    134 H134       -2.4456  -16.9989  -46.6531 H         1 UNK         0.0800 
    135 H135       -3.4037  -16.0354  -47.7504 H         1 UNK         0.0800 
    136 H136       -3.3523  -16.7489  -49.9955 H         1 UNK         0.1150 
    137 H137        0.1259  -18.5824  -51.6955 H         1 UNK         0.1150 
    138 H138        0.1290  -17.3708  -47.5810 H         1 UNK         0.1150 
    139 H139        2.2563  -18.1909  -50.4514 H         1 UNK         0.0800 
    140 H140        2.2525  -17.8516  -48.7438 H         1 UNK         0.0800 
    141 H141        1.0143  -19.4161  -47.0902 H         1 UNK         0.0800 
    142 H142        2.5642  -20.1767  -46.8856 H         1 UNK         0.0800 
    143 H143        1.5207  -22.4124  -47.3248 H         1 UNK         0.0600 
    144 H144        1.1568  -20.8633  -44.9790 H         1 UNK         0.3000 
    145 H145        0.0338  -23.5721  -42.9010 H         1 UNK         0.0600 
    146 H146        2.0002  -22.7664  -41.6421 H         1 UNK         0.0600 
    147 H147        2.5335  -23.6322  -43.0751 H         1 UNK         0.0600 
    148 H148        2.5807  -21.8726  -43.0453 H         1 UNK         0.0600 
    149 H149        0.4486  -20.8392  -42.2852 H         1 UNK         0.3000 
    150 H150       -2.9190  -19.7298  -42.9429 H         1 UNK         0.0600 
    151 H151       -2.7869  -20.8028  -40.6777 H         1 UNK         0.0600 
    152 H152       -2.6225  -19.0556  -40.5878 H         1 UNK         0.0600 
    153 H153       -1.1994  -20.0822  -40.4299 H         1 UNK         0.0600 
    154 H154       -0.7000  -18.2503  -42.0361 H         1 UNK         0.3000 
    155 H155        0.4445  -17.1126  -45.2579 H         1 UNK         0.0600 
    156 H156       -0.6523  -15.8603  -42.6892 H         1 UNK         0.0600 
    157 H157       -1.4643  -15.7640  -44.2348 H         1 UNK         0.0600 
    158 H158        0.1216  -15.0291  -44.0329 H         1 UNK         0.0600 
    159 H159        1.6329  -16.6822  -42.7616 H         1 UNK         0.3000 
    160 H160        3.8105  -19.5204  -42.5973 H         1 UNK         0.0600 
    161 H161        5.3811  -17.5865  -42.3172 H         1 UNK         0.0600 
    162 H162        4.1984  -16.5156  -43.0711 H         1 UNK         0.0600 
    163 H163        4.9275  -17.8153  -43.9996 H         1 UNK         0.0600 
    164 H164        3.2765  -17.3004  -40.8515 H         1 UNK         0.3000 
    165 H165        0.8687  -18.9527  -38.7941 H         1 UNK         0.0600 
    166 H166        2.5580  -18.3250  -37.0955 H         1 UNK         0.0600 
    167 H167        3.1284  -19.6989  -38.0290 H         1 UNK         0.0600 
    168 H168        3.7801  -18.0954  -38.3461 H         1 UNK         0.0600 
    169 H169        2.0526  -16.3457  -38.7030 H         1 UNK         0.3000 
    170 H170       -0.4100  -14.6776  -40.6662 H         1 UNK         0.0600 
    171 H171       -1.4752  -14.9924  -38.4271 H         1 UNK         0.0600 
    172 H172        0.0690  -14.6867  -37.6409 H         1 UNK         0.0600 
    173 H173       -0.7221  -13.4129  -38.5702 H         1 UNK         0.0600 
    174 H174        1.6876  -13.5635  -39.2026 H         1 UNK         0.3000 
    175 H175        3.4401  -12.6732  -40.1465 H         1 UNK         0.0600 
    176 H176        5.0071  -14.8905  -41.5704 H         1 UNK         0.0600 
    177 H177        5.6890  -13.5348  -40.6786 H         1 UNK         0.0600 
    178 H178        4.7736  -14.7708  -39.8307 H         1 UNK         0.0600 
    179 H179        4.1837  -13.0713  -42.9588 H         1 UNK         0.3000 
    180 H180        2.1817  -10.4099  -44.1707 H         1 UNK         0.0600 
    181 H181        5.2132  -10.4227  -43.7172 H         1 UNK         0.0600 
    182 H182        4.1049   -9.1575  -43.2013 H         1 UNK         0.0600 
    183 H183        4.3470   -9.4590  -44.9143 H         1 UNK         0.0600 
    184 H184        4.2762  -12.0603  -45.2921 H         1 UNK         0.3000 
    185 H185        3.6426  -13.3571  -47.0903 H         1 UNK         0.0600 
    186 H186        4.1848  -14.8412  -45.1564 H         1 UNK         0.0600 
    187 H187        2.5641  -15.5174  -45.1924 H         1 UNK         0.0600 
    188 H188        3.6742  -15.8055  -46.5322 H         1 UNK         0.0600 
    189 H189        1.3482  -15.0725  -47.2812 H         1 UNK         0.3000 
    190 H190       -1.3089  -20.4498  -46.2035 H         1 UNK         0.3000 
    191 H191       -2.9615  -20.9522  -48.4406 H         1 UNK         0.0600 
    192 H192       -3.6955  -20.3559  -45.5282 H         1 UNK         0.0600 
    193 H193       -4.8149  -20.2824  -46.8858 H         1 UNK         0.0600 
    194 H194       -3.4530  -19.1767  -46.8165 H         1 UNK         0.0600 
    195 H195       -2.5297  -22.8301  -45.4094 H         1 UNK         0.3000 
    196 H196       -4.4942  -24.8207  -45.9661 H         1 UNK         0.0600 
    197 H197       -1.9925  -24.9269  -44.1997 H         1 UNK         0.0600 
    198 H198       -3.3015  -26.1027  -44.1787 H         1 UNK         0.0600 
    199 H199       -3.6089  -24.4423  -43.6938 H         1 UNK         0.0600 
    200 H200       -0.9453  -24.7271  -46.6101 H         1 UNK         0.3000 
    201 H201       -0.7374  -27.2839  -47.8165 H         1 UNK         0.0600 
    202 H202        1.2185  -26.0056  -46.9952 H         1 UNK         0.0600 
    203 H203        0.9629  -24.7660  -48.2214 H         1 UNK         0.0600 
    204 H204        1.4281  -26.3953  -48.6957 H         1 UNK         0.0600 
    205 H205       -1.5150  -24.1003  -49.2047 H         1 UNK         0.3000 
    206 H206       -1.7995  -25.0645  -51.9372 H         1 UNK         0.0600 
    207 H207       -1.0228  -22.7752  -51.4687 H         1 UNK         0.0600 
    208 H208       -2.5590  -22.7060  -52.3154 H         1 UNK         0.0600 
    209 H209       -2.4954  -22.4168  -50.5760 H         1 UNK         0.0600 
    210 H210       -3.6870  -25.7351  -49.3500 H         1 UNK         0.3000 
    211 H211       -5.6885  -26.5127  -48.9546 H         1 UNK         0.0600 
    212 H212       -5.8272  -26.9391  -51.9886 H         1 UNK         0.0600 
    213 H213       -6.9423  -27.6362  -50.8195 H         1 UNK         0.0600 
    214 H214       -5.2422  -28.0716  -50.7775 H         1 UNK         0.0600 
    215 H215       -6.7077  -25.0407  -52.0184 H         1 UNK         0.3000 
    216 H216       -8.9082  -23.5761  -50.7228 H         1 UNK         0.0600 
    217 H217       -9.5320  -23.0725  -53.0860 H         1 UNK         0.0600 
    218 H218       -9.2863  -24.7967  -52.8653 H         1 UNK         0.0600 
    219 H219       -8.0484  -23.8243  -53.6600 H         1 UNK         0.0600 
    220 H220       -5.6534  -22.9839  -51.5478 H         1 UNK         0.3000 
    221 H221       -4.2638  -21.2848  -51.4729 H         1 UNK         0.0600 
    222 H222       -6.4943  -19.4196  -50.5397 H         1 UNK         0.0600 
    223 H223       -5.4813  -20.4055  -49.4854 H         1 UNK         0.0600 
    224 H224       -4.7644  -19.1301  -50.4548 H         1 UNK         0.0600 
    225 H225       -7.3371  -20.2721  -52.9511 H         1 UNK         0.3000 
    226 H226       -6.3327  -18.5653  -54.9771 H         1 UNK         0.0600 
    227 H227       -8.7299  -18.6998  -54.3466 H         1 UNK         0.0600 
    228 H228       -8.5451  -19.0202  -56.0639 H         1 UNK         0.0600 
    229 H229       -8.8256  -20.3542  -54.9497 H         1 UNK         0.0600 
    230 H230       -6.2695  -22.0501  -54.7523 H         1 UNK         0.3000 
    231 H231       -5.7776  -22.7292  -57.4804 H         1 UNK         0.0600 
    232 H232       -6.4629  -24.3892  -55.7627 H         1 UNK         0.0600 
    233 H233       -4.9632  -24.1261  -54.8718 H         1 UNK         0.0600 
    234 H234       -4.9258  -24.8571  -56.4713 H         1 UNK         0.0600 
    235 H235       -3.7058  -21.3324  -54.9864 H         1 UNK         0.3000 
    236 H236       -1.2467  -21.7533  -56.6271 H         1 UNK         0.0600 
    237 H237       -0.0706  -21.0092  -54.5555 H         1 UNK         0.0600 
    238 H238       -1.6106  -20.8802  -53.7162 H         1 UNK         0.0600 
    239 H239       -1.0382  -22.4484  -54.2812 H         1 UNK         0.0600 
    240 H240       -3.2076  -19.2136  -54.9738 H         1 UNK         0.3000 
    241 H241       -1.5966  -17.0690  -56.0739 H         1 UNK         0.0600 
    242 H242       -4.5674  -17.5507  -58.7682 H         1 UNK         0.3800 
    243 H243       -4.4048  -18.7354  -57.5054 H         1 UNK         0.3800 
    244 H244       -3.5118  -15.6179  -55.0367 H         1 UNK         0.0800 
    245 H245       -4.1221  -17.1044  -54.3713 H         1 UNK         0.0800 
    246 H246       -3.4921  -17.8453  -52.1541 H         1 UNK         0.0800 
    247 H247       -2.1323  -18.7413  -52.8027 H         1 UNK         0.0800 
@<TRIPOS>BOND
     1    1    2 1    
     2    1  127 1    
     3    1  128 1    
     4    1  129 1    
     5    2    3 2    
     6    2    4 am   BACKBONE|DICT|INTERRES
     7    4    5 1    
     8    4  130 1    
     9    5    6 1    
    10    5   65 1    
    11    5  131 1    
    12    6    7 1    
    13    6  132 1    
    14    6  133 1    
    15    7    8 1    
    16    8    9 1    
    17    8  134 1    
    18    8  135 1    
    19    9   10 ar   
    20    9   14 ar   
    21   10   11 ar   
    22   10  136 1    
    23   11   12 ar   
    24   11  126 1    
    25   12   13 ar   
    26   12  137 1    
    27   13   14 ar   
    28   13   15 1    
    29   14  138 1    
    30   15   16 1    
    31   15  139 1    
    32   15  140 1    
    33   16   17 1    
    34   17   18 1    
    35   17  141 1    
    36   17  142 1    
    37   18   19 1    
    38   18   67 1    
    39   18  143 1    
    40   19   20 am   BACKBONE|DICT|INTERRES
    41   19  144 1    
    42   20   21 2    
    43   20   22 1    
    44   22   23 1    
    45   22   24 1    
    46   22  145 1    
    47   23  146 1    
    48   23  147 1    
    49   23  148 1    
    50   24   25 am   BACKBONE|DICT|INTERRES
    51   24  149 1    
    52   25   26 2    
    53   25   27 1    
    54   27   28 1    
    55   27   29 1    
    56   27  150 1    
    57   28  151 1    
    58   28  152 1    
    59   28  153 1    
    60   29   30 am   BACKBONE|DICT|INTERRES
    61   29  154 1    
    62   30   31 2    
    63   30   32 1    
    64   32   33 1    
    65   32   34 1    
    66   32  155 1    
    67   33  156 1    
    68   33  157 1    
    69   33  158 1    
    70   34   35 am   BACKBONE|DICT|INTERRES
    71   34  159 1    
    72   35   36 2    
    73   35   37 1    
    74   37   38 1    
    75   37   39 1    
    76   37  160 1    
    77   38  161 1    
    78   38  162 1    
    79   38  163 1    
    80   39   40 am   BACKBONE|DICT|INTERRES
    81   39  164 1    
    82   40   41 2    
    83   40   42 1    
    84   42   43 1    
    85   42   44 1    
    86   42  165 1    
    87   43  166 1    
    88   43  167 1    
    89   43  168 1    
    90   44   45 am   BACKBONE|DICT|INTERRES
    91   44  169 1    
    92   45   46 2    
    93   45   47 1    
    94   47   48 1    
    95   47   49 1    
    96   47  170 1    
    97   48  171 1    
    98   48  172 1    
    99   48  173 1    
   100   49   50 am   BACKBONE|DICT|INTERRES
   101   49  174 1    
   102   50   51 2    
   103   50   52 1    
   104   52   53 1    
   105   52   54 1    
   106   52  175 1    
   107   53  176 1    
   108   53  177 1    
   109   53  178 1    
   110   54   55 am   BACKBONE|DICT|INTERRES
   111   54  179 1    
   112   55   56 2    
   113   55   57 1    
   114   57   58 1    
   115   57   59 1    
   116   57  180 1    
   117   58  181 1    
   118   58  182 1    
   119   58  183 1    
   120   59   60 am   BACKBONE|DICT|INTERRES
   121   59  184 1    
   122   60   61 2    
   123   60   62 1    
   124   62   63 1    
   125   62   64 1    
   126   62  185 1    
   127   63  186 1    
   128   63  187 1    
   129   63  188 1    
   130   64   65 am   BACKBONE|DICT|INTERRES
   131   64  189 1    
   132   65   66 2    
   133   67   68 2    
   134   67   69 am   BACKBONE|DICT|INTERRES
   135   69   70 1    
   136   69  190 1    
   137   70   71 1    
   138   70   72 1    
   139   70  191 1    
   140   71  192 1    
   141   71  193 1    
   142   71  194 1    
   143   72   73 2    
   144   72   74 am   BACKBONE|DICT|INTERRES
   145   74   75 1    
   146   74  195 1    
   147   75   76 1    
   148   75   77 1    
   149   75  196 1    
   150   76  197 1    
   151   76  198 1    
   152   76  199 1    
   153   77   78 2    
   154   77   79 am   BACKBONE|DICT|INTERRES
   155   79   80 1    
   156   79  200 1    
   157   80   81 1    
   158   80   82 1    
   159   80  201 1    
   160   81  202 1    
   161   81  203 1    
   162   81  204 1    
   163   82   83 2    
   164   82   84 am   BACKBONE|DICT|INTERRES
   165   84   85 1    
   166   84  205 1    
   167   85   86 1    
   168   85   87 1    
   169   85  206 1    
   170   86  207 1    
   171   86  208 1    
   172   86  209 1    
   173   87   88 2    
   174   87   89 am   BACKBONE|DICT|INTERRES
   175   89   90 1    
   176   89  210 1    
   177   90   91 1    
   178   90   92 1    
   179   90  211 1    
   180   91  212 1    
   181   91  213 1    
   182   91  214 1    
   183   92   93 2    
   184   92   94 am   BACKBONE|DICT|INTERRES
   185   94   95 1    
   186   94  215 1    
   187   95   96 1    
   188   95   97 1    
   189   95  216 1    
   190   96  217 1    
   191   96  218 1    
   192   96  219 1    
   193   97   98 2    
   194   97   99 am   BACKBONE|DICT|INTERRES
   195   99  100 1    
   196   99  220 1    
   197  100  101 1    
   198  100  102 1    
   199  100  221 1    
   200  101  222 1    
   201  101  223 1    
   202  101  224 1    
   203  102  103 2    
   204  102  104 am   BACKBONE|DICT|INTERRES
   205  104  105 1    
   206  104  225 1    
   207  105  106 1    
   208  105  107 1    
   209  105  226 1    
   210  106  227 1    
   211  106  228 1    
   212  106  229 1    
   213  107  108 2    
   214  107  109 am   BACKBONE|DICT|INTERRES
   215  109  110 1    
   216  109  230 1    
   217  110  111 1    
   218  110  112 1    
   219  110  231 1    
   220  111  232 1    
   221  111  233 1    
   222  111  234 1    
   223  112  113 2    
   224  112  114 am   BACKBONE|DICT|INTERRES
   225  114  115 1    
   226  114  235 1    
   227  115  116 1    
   228  115  117 1    
   229  115  236 1    
   230  116  237 1    
   231  116  238 1    
   232  116  239 1    
   233  117  118 2    
   234  117  119 am   BACKBONE|DICT|INTERRES
   235  119  120 1    
   236  119  240 1    
   237  120  121 1    
   238  120  124 1    
   239  120  241 1    
   240  121  122 am   BACKBONE|DICT|INTERRES
   241  121  123 2    
   242  122  242 1    
   243  122  243 1    
   244  124  125 1    
   245  124  244 1    
   246  124  245 1    
   247  125  126 1    
   248  126  246 1    
   249  126  247 1    
@<TRIPOS>SUBSTRUCTURE
     1 UNK         1 GROUP             0       ****    0 ROOT    
