@<TRIPOS>MOLECULE
3R540
247   249    1
SMALL
USER_CHARGES


@<TRIPOS>ATOM
      1 CA          8.3406  -11.4441  -46.0347 C.3       0 UNK        -0.1800 
      2 C           6.9757  -12.0502  -46.3298 C.2       0 UNK         0.5000 
      3 O           6.1557  -12.1839  -45.4214 O.2       0 UNK        -0.5000 
      4 N           6.7331  -12.4245  -47.5923 N.am      1 UNK        -0.5000 
      5 CA          5.4575  -12.9579  -48.0740 C.3       1 UNK         0.1400 
      6 C6          5.6350  -13.6776  -49.4369 C.3       23 UNK        -0.0398 
      7 S7          4.1129  -14.3647  -50.1838 S.3       23 UNK        -0.2404 
      8 C8          3.6883  -15.6934  -49.0166 C.3       23 UNK        -0.0205 
      9 C9          2.5455  -16.5485  -49.5413 C.ar      23 UNK        -0.0193 
     10 C10         1.2479  -16.0298  -49.5987 C.ar      23 UNK        -0.1150 
     11 C11         0.1919  -16.8098  -50.0791 C.ar      23 UNK        -0.0193 
     12 C12         0.4422  -18.1184  -50.4993 C.ar      23 UNK        -0.1150 
     13 C13         1.7318  -18.6506  -50.4436 C.ar      23 UNK        -0.0193 
     14 C14         2.7809  -17.8606  -49.9642 C.ar      23 UNK        -0.1150 
     15 C15         1.9921  -20.0721  -50.9192 C.3       23 UNK        -0.0205 
     16 S16         2.0139  -21.2630  -49.5431 S.3       23 UNK        -0.2404 
     17 C17         0.2506  -21.3283  -49.0800 C.3       23 UNK        -0.0398 
     18 CA         -0.0412  -22.4907  -48.1015 C.3       11 UNK         0.1400 
     19 N           0.5513  -22.2848  -46.7749 N.am      11 UNK        -0.5000 
     20 C           0.5827  -23.2119  -45.8062 C.2       10 UNK         0.5000 
     21 O           0.1573  -24.3587  -45.9458 O.2       10 UNK        -0.5000 
     22 CA          1.1268  -22.7744  -44.4340 C.3       10 UNK         0.1400 
     23 CB          2.6620  -22.7260  -44.4337 C.3       10 UNK        -0.1800 
     24 N           0.5859  -21.4844  -44.0050 N.am      10 UNK        -0.5000 
     25 C          -0.7084  -21.2575  -43.7375 C.2       9 UNK         0.5000 
     26 O          -1.5740  -22.1330  -43.7650 O.2       9 UNK        -0.5000 
     27 CA         -1.1138  -19.8001  -43.4411 C.3       9 UNK         0.1400 
     28 CB         -0.8279  -19.4311  -41.9782 C.3       9 UNK        -0.1800 
     29 N          -0.4567  -18.8416  -44.3311 N.am      9 UNK        -0.5000 
     30 C          -0.6268  -18.8085  -45.6606 C.2       8 UNK         0.5000 
     31 O          -1.3995  -19.5429  -46.2715 O.2       8 UNK        -0.5000 
     32 CA          0.2501  -17.8280  -46.4504 C.3       8 UNK         0.1400 
     33 CB         -0.3755  -16.4286  -46.4482 C.3       8 UNK        -0.1800 
     34 N           1.6207  -17.7783  -45.9414 N.am      8 UNK        -0.5000 
     35 C           2.4781  -18.8075  -46.0130 C.2       7 UNK         0.5000 
     36 O           2.2037  -19.8867  -46.5333 O.2       7 UNK        -0.5000 
     37 CA          3.8467  -18.6260  -45.3321 C.3       7 UNK         0.1400 
     38 CB          4.8002  -17.8196  -46.2255 C.3       7 UNK        -0.1800 
     39 N           3.7369  -17.9737  -44.0282 N.am      7 UNK        -0.5000 
     40 C           3.1007  -18.4901  -42.9666 C.2       6 UNK         0.5000 
     41 O           2.6118  -19.6190  -42.9458 O.2       6 UNK        -0.5000 
     42 CA          2.9338  -17.5630  -41.7455 C.3       6 UNK         0.1400 
     43 CB          4.1103  -17.7330  -40.7733 C.3       6 UNK        -0.1800 
     44 N           2.8082  -16.1488  -42.1164 N.am      6 UNK        -0.5000 
     45 C           1.8130  -15.6488  -42.8615 C.2       5 UNK         0.5000 
     46 O           0.8661  -16.3266  -43.2677 O.2       5 UNK        -0.5000 
     47 CA          1.9618  -14.1756  -43.2870 C.3       5 UNK         0.1400 
     48 CB          3.0327  -14.0508  -44.3848 C.3       5 UNK        -0.1800 
     49 N           0.7080  -13.5981  -43.7779 N.am      5 UNK        -0.5000 
     50 C          -0.3316  -13.2749  -42.9930 C.2       4 UNK         0.5000 
     51 O          -0.3218  -13.4299  -41.7703 O.2       4 UNK        -0.5000 
     52 CA         -1.5777  -12.6442  -43.6521 C.3       4 UNK         0.1400 
     53 CB         -1.9294  -11.3030  -42.9843 C.3       4 UNK        -0.1800 
     54 N          -1.4013  -12.4058  -45.0854 N.am      4 UNK        -0.5000 
     55 C          -1.9665  -13.1178  -46.0686 C.2       3 UNK         0.5000 
     56 O          -2.7476  -14.0495  -45.8757 O.2       3 UNK        -0.5000 
     57 CA         -1.5984  -12.7315  -47.5193 C.3       3 UNK         0.1400 
     58 CB         -2.7704  -12.0123  -48.2044 C.3       3 UNK        -0.1800 
     59 N          -0.3897  -11.9069  -47.6530 N.am      3 UNK        -0.5000 
     60 C           0.8416  -12.3185  -47.3312 C.2       2 UNK         0.5000 
     61 O           1.0749  -13.4139  -46.8149 O.2       2 UNK        -0.5000 
     62 CA          2.0005  -11.3457  -47.5816 C.3       2 UNK         0.1400 
     63 CB          2.0746  -10.2772  -46.4765 C.3       2 UNK        -0.1800 
     64 N           3.2127  -12.1493  -47.5841 N.am      2 UNK        -0.5000 
     65 C           4.3939  -11.8390  -48.1189 C.2       1 UNK         0.5000 
     66 O           4.6556  -10.7539  -48.6441 O.2       1 UNK        -0.5000 
     67 C          -1.5536  -22.7787  -48.0168 C.2       11 UNK         0.5000 
     68 O          -2.0255  -23.6873  -48.6984 O.2       11 UNK        -0.5000 
     69 N          -2.2795  -22.0456  -47.1599 N.am      12 UNK        -0.5000 
     70 CA         -3.7013  -22.2541  -46.8841 C.3       12 UNK         0.1400 
     71 CB         -4.2429  -21.1381  -45.9801 C.3       12 UNK        -0.1800 
     72 C          -4.0000  -23.6403  -46.2957 C.2       12 UNK         0.5000 
     73 O          -4.9432  -24.2889  -46.7464 O.2       12 UNK        -0.5000 
     74 N          -3.1741  -24.0874  -45.3413 N.am      13 UNK        -0.5000 
     75 CA         -3.2527  -25.4233  -44.7524 C.3       13 UNK         0.1400 
     76 CB         -2.3084  -25.5080  -43.5436 C.3       13 UNK        -0.1800 
     77 C          -2.9494  -26.5401  -45.7697 C.2       13 UNK         0.5000 
     78 O          -3.6672  -27.5401  -45.8027 O.2       13 UNK        -0.5000 
     79 N          -1.9050  -26.3449  -46.5861 N.am      14 UNK        -0.5000 
     80 CA         -1.4507  -27.3007  -47.5958 C.3       14 UNK         0.1400 
     81 CB         -0.0548  -26.8918  -48.0913 C.3       14 UNK        -0.1800 
     82 C          -2.4218  -27.4490  -48.7812 C.2       14 UNK         0.5000 
     83 O          -2.7129  -28.5741  -49.1889 O.2       14 UNK        -0.5000 
     84 N          -2.8947  -26.3177  -49.3190 N.am      15 UNK        -0.5000 
     85 CA         -3.7181  -26.2513  -50.5295 C.3       15 UNK         0.1400 
     86 CB         -3.2841  -25.0237  -51.3427 C.3       15 UNK        -0.1800 
     87 C          -5.2320  -26.2128  -50.2416 C.2       15 UNK         0.5000 
     88 O          -6.0133  -26.0454  -51.1800 O.2       15 UNK        -0.5000 
     89 N          -5.6196  -26.3496  -48.9641 N.am      16 UNK        -0.5000 
     90 CA         -6.9934  -26.3527  -48.4442 C.3       16 UNK         0.1400 
     91 CB         -7.7412  -27.6223  -48.9011 C.3       16 UNK        -0.1800 
     92 C          -7.7612  -25.0521  -48.7656 C.2       16 UNK         0.5000 
     93 O          -8.9361  -25.0961  -49.1359 O.2       16 UNK        -0.5000 
     94 N          -7.0576  -23.9188  -48.6347 N.am      17 UNK        -0.5000 
     95 CA         -7.4567  -22.5239  -48.8649 C.3       17 UNK         0.1400 
     96 CB         -8.5656  -22.1012  -47.8848 C.3       17 UNK        -0.1800 
     97 C          -7.8416  -22.1683  -50.3168 C.2       17 UNK         0.5000 
     98 O          -7.4284  -21.1177  -50.8066 O.2       17 UNK        -0.5000 
     99 N          -8.6172  -23.0316  -50.9810 N.am      18 UNK        -0.5000 
    100 CA        -9.2123  -22.8189  -52.3020 C.3       18 UNK         0.1400 
    101 CB       -10.1575  -23.9897  -52.6115 C.3       18 UNK        -0.1800 
    102 C         -8.1960  -22.6353  -53.4446 C.2       18 UNK         0.5000 
    103 O         -8.4880  -21.9108  -54.3969 O.2       18 UNK        -0.5000 
    104 N         -7.0321  -23.2859  -53.3305 N.am      19 UNK        -0.5000 
    105 CA        -5.9534  -23.2525  -54.3206 C.3       19 UNK         0.1400 
    106 CB        -5.6848  -24.6919  -54.7950 C.3       19 UNK        -0.1800 
    107 C         -4.6792  -22.5823  -53.7697 C.2       19 UNK         0.5000 
    108 O         -3.6155  -22.7143  -54.3758 O.2       19 UNK        -0.5000 
    109 N         -4.7837  -21.8761  -52.6352 N.am      20 UNK        -0.5000 
    110 CA        -3.6643  -21.3149  -51.8702 C.3       20 UNK         0.1400 
    111 CB        -4.1090  -21.1530  -50.4095 C.3       20 UNK        -0.1800 
    112 C         -3.0756  -20.0089  -52.4458 C.2       20 UNK         0.5000 
    113 O         -2.7304  -19.1117  -51.6771 O.2       20 UNK        -0.5000 
    114 N         -2.9566  -19.9291  -53.7775 N.am      21 UNK        -0.5000 
    115 CA        -2.3412  -18.8793  -54.6033 C.3       21 UNK         0.1400 
    116 CB        -0.8324  -18.7665  -54.3101 C.3       21 UNK        -0.1800 
    117 C         -3.0127  -17.4911  -54.5417 C.2       21 UNK         0.5000 
    118 O         -3.3039  -16.9161  -55.5913 O.2       21 UNK        -0.5000 
    119 N         -3.2284  -16.9708  -53.3306 N.am      22 UNK        -0.5000 
    120 CA        -3.7530  -15.6231  -53.0530 C.3       22 UNK         0.1400 
    121 C         -5.2992  -15.4914  -53.1813 C.2       22 UNK         0.5000 
    122 N         -6.0470  -16.5678  -53.3908 N.am      22 UNK        -0.7600 
    123 O         -5.8313  -14.3876  -53.0991 O.2       22 UNK        -0.5000 
    124 C124       -3.2601  -15.0802  -51.6844 C.3       23 UNK        -0.0398 
    125 S125       -1.4390  -15.1051  -51.5254 S.3       23 UNK        -0.2404 
    126 C126       -1.2216  -16.2526  -50.1308 C.3       23 UNK        -0.0205 
    127 H127        8.8619  -12.0402  -45.2858 H         1 UNK         0.0600 
    128 H128        8.2251  -10.4321  -45.6466 H         1 UNK         0.0600 
    129 H129        8.9654  -11.3968  -46.9270 H         1 UNK         0.0600 
    130 H130        7.4360  -12.2587  -48.2984 H         1 UNK         0.3000 
    131 H131        5.1331  -13.7082  -47.3494 H         1 UNK         0.0600 
    132 H132        6.3560  -14.4896  -49.3324 H         1 UNK         0.0800 
    133 H133        6.0682  -12.9890  -50.1644 H         1 UNK         0.0800 
    134 H134        4.5726  -16.3057  -48.8356 H         1 UNK         0.0800 
    135 H135        3.3970  -15.2642  -48.0574 H         1 UNK         0.0800 
    136 H136        1.0609  -15.0161  -49.2725 H         1 UNK         0.1150 
    137 H137       -0.3686  -18.7283  -50.8679 H         1 UNK         0.1150 
    138 H138        3.7799  -18.2710  -49.9208 H         1 UNK         0.1150 
    139 H139        1.2461  -20.3742  -51.6562 H         1 UNK         0.0800 
    140 H140        2.9547  -20.1114  -51.4309 H         1 UNK         0.0800 
    141 H141       -0.3304  -21.4405  -49.9976 H         1 UNK         0.0800 
    142 H142       -0.0415  -20.3731  -48.6414 H         1 UNK         0.0800 
    143 H143        0.4162  -23.3921  -48.5152 H         1 UNK         0.0600 
    144 H144        0.9792  -21.3780  -46.6058 H         1 UNK         0.3000 
    145 H145        0.8155  -23.5229  -43.7024 H         1 UNK         0.0600 
    146 H146        3.0818  -23.6923  -44.7156 H         1 UNK         0.0600 
    147 H147        3.0455  -21.9853  -45.1349 H         1 UNK         0.0600 
    148 H148        3.0475  -22.4790  -43.4443 H         1 UNK         0.0600 
    149 H149        1.2473  -20.7205  -43.9089 H         1 UNK         0.3000 
    150 H150       -2.1899  -19.7154  -43.6048 H         1 UNK         0.0600 
    151 H151       -1.1329  -18.4069  -41.7620 H         1 UNK         0.0600 
    152 H152        0.2302  -19.5235  -41.7360 H         1 UNK         0.0600 
    153 H153       -1.3760  -20.0854  -41.2993 H         1 UNK         0.0600 
    154 H154        0.1665  -18.1627  -43.9071 H         1 UNK         0.3000 
    155 H155        0.2907  -18.1780  -47.4834 H         1 UNK         0.0600 
    156 H156       -1.3909  -16.4570  -46.8446 H         1 UNK         0.0600 
    157 H157        0.1960  -15.7485  -47.0729 H         1 UNK         0.0600 
    158 H158       -0.4318  -15.9988  -45.4492 H         1 UNK         0.0600 
    159 H159        1.8842  -16.9482  -45.4333 H         1 UNK         0.3000 
    160 H160        4.2766  -19.6184  -45.1803 H         1 UNK         0.0600 
    161 H161        4.8743  -18.2647  -47.2188 H         1 UNK         0.0600 
    162 H162        5.8058  -17.7949  -45.8055 H         1 UNK         0.0600 
    163 H163        4.4634  -16.7900  -46.3465 H         1 UNK         0.0600 
    164 H164        4.1216  -17.0448  -43.9490 H         1 UNK         0.3000 
    165 H165        2.0176  -17.8570  -41.2294 H         1 UNK         0.0600 
    166 H166        3.9646  -17.1402  -39.8701 H         1 UNK         0.0600 
    167 H167        4.2129  -18.7741  -40.4641 H         1 UNK         0.0600 
    168 H168        5.0552  -17.4303  -41.2262 H         1 UNK         0.0600 
    169 H169        3.5546  -15.5375  -41.8176 H         1 UNK         0.3000 
    170 H170        2.2873  -13.5989  -42.4187 H         1 UNK         0.0600 
    171 H171        3.1363  -13.0187  -44.7197 H         1 UNK         0.0600 
    172 H172        4.0118  -14.3652  -44.0220 H         1 UNK         0.0600 
    173 H173        2.7943  -14.6655  -45.2533 H         1 UNK         0.0600 
    174 H174        0.6182  -13.5075  -44.7831 H         1 UNK         0.3000 
    175 H175       -2.4072  -13.3333  -43.4809 H         1 UNK         0.0600 
    176 H176       -1.1189  -10.5798  -43.0831 H         1 UNK         0.0600 
    177 H177       -2.8247  -10.8661  -43.4273 H         1 UNK         0.0600 
    178 H178       -2.1281  -11.4314  -41.9195 H         1 UNK         0.0600 
    179 H179       -0.7751  -11.6570  -45.3418 H         1 UNK         0.3000 
    180 H180       -1.4174  -13.6644  -48.0557 H         1 UNK         0.0600 
    181 H181       -2.5605  -11.8325  -49.2591 H         1 UNK         0.0600 
    182 H182       -2.9830  -11.0519  -47.7331 H         1 UNK         0.0600 
    183 H183       -3.6808  -12.6114  -48.1555 H         1 UNK         0.0600 
    184 H184       -0.5143  -10.9881  -48.0538 H         1 UNK         0.3000 
    185 H185        1.8695  -10.8765  -48.5587 H         1 UNK         0.0600 
    186 H186        2.1922  -10.7271  -45.4897 H         1 UNK         0.0600 
    187 H187        2.9144   -9.6007  -46.6357 H         1 UNK         0.0600 
    188 H188        1.1698   -9.6689  -46.4564 H         1 UNK         0.0600 
    189 H189        3.0560  -13.0731  -47.1998 H         1 UNK         0.3000 
    190 H190       -1.8365  -21.2659  -46.6777 H         1 UNK         0.3000 
    191 H191       -4.2332  -22.1927  -47.8305 H         1 UNK         0.0600 
    192 H192       -3.7358  -21.1165  -45.0161 H         1 UNK         0.0600 
    193 H193       -5.3081  -21.2738  -45.7884 H         1 UNK         0.0600 
    194 H194       -4.1192  -20.1604  -46.4460 H         1 UNK         0.0600 
    195 H195       -2.4444  -23.4726  -44.9939 H         1 UNK         0.3000 
    196 H196       -4.2736  -25.5702  -44.3936 H         1 UNK         0.0600 
    197 H197       -2.3651  -26.4895  -43.0713 H         1 UNK         0.0600 
    198 H198       -2.5698  -24.7669  -42.7880 H         1 UNK         0.0600 
    199 H199       -1.2698  -25.3395  -43.8290 H         1 UNK         0.0600 
    200 H200       -1.3389  -25.5098  -46.4635 H         1 UNK         0.3000 
    201 H201       -1.3624  -28.2779  -47.1164 H         1 UNK         0.0600 
    202 H202        0.6642  -26.8748  -47.2720 H         1 UNK         0.0600 
    203 H203       -0.0638  -25.9011  -48.5471 H         1 UNK         0.0600 
    204 H204        0.3182  -27.5946  -48.8373 H         1 UNK         0.0600 
    205 H205       -2.5949  -25.4224  -48.9362 H         1 UNK         0.3000 
    206 H206       -3.5332  -27.1345  -51.1443 H         1 UNK         0.0600 
    207 H207       -3.7471  -25.0233  -52.3280 H         1 UNK         0.0600 
    208 H208       -3.5687  -24.0999  -50.8424 H         1 UNK         0.0600 
    209 H209       -2.2048  -25.0054  -51.4945 H         1 UNK         0.0600 
    210 H210       -4.8913  -26.4283  -48.2674 H         1 UNK         0.3000 
    211 H211       -6.9079  -26.3932  -47.3574 H         1 UNK         0.0600 
    212 H212       -7.9066  -27.6296  -49.9790 H         1 UNK         0.0600 
    213 H213       -8.7172  -27.6959  -48.4200 H         1 UNK         0.0600 
    214 H214       -7.1839  -28.5223  -48.6412 H         1 UNK         0.0600 
    215 H215       -6.1227  -24.0360  -48.2545 H         1 UNK         0.3000 
    216 H216       -6.5763  -21.9264  -48.6261 H         1 UNK         0.0600 
    217 H217       -8.7980  -21.0410  -47.9933 H         1 UNK         0.0600 
    218 H218       -8.2585  -22.2621  -46.8513 H         1 UNK         0.0600 
    219 H219       -9.4897  -22.6557  -48.0506 H         1 UNK         0.0600 
    220 H220       -8.8930  -23.8753  -50.4827 H         1 UNK         0.3000 
    221 H221       -9.8076  -21.9053  -52.2480 H         1 UNK         0.0600 
    222 H222       -9.6226  -24.9401  -52.6365 H         1 UNK         0.0600 
    223 H223      -10.9457  -24.0689  -51.8624 H         1 UNK         0.0600 
    224 H224      -10.6421  -23.8582  -53.5799 H         1 UNK         0.0600 
    225 H225       -6.8803  -23.8674  -52.5164 H         1 UNK         0.3000 
    226 H226       -6.2475  -22.6664  -55.1932 H         1 UNK         0.0600 
    227 H227       -6.5740  -25.1217  -55.2564 H         1 UNK         0.0600 
    228 H228       -4.8892  -24.7255  -55.5402 H         1 UNK         0.0600 
    229 H229       -5.3944  -25.3423  -53.9700 H         1 UNK         0.0600 
    230 H230       -5.7045  -21.7450  -52.2360 H         1 UNK         0.3000 
    231 H231       -2.8492  -22.0411  -51.8815 H         1 UNK         0.0600 
    232 H232       -4.8646  -20.3742  -50.3023 H         1 UNK         0.0600 
    233 H233       -4.5281  -22.0840  -50.0322 H         1 UNK         0.0600 
    234 H234       -3.2682  -20.8847  -49.7690 H         1 UNK         0.0600 
    235 H235       -3.2589  -20.7507  -54.2907 H         1 UNK         0.3000 
    236 H236       -2.4439  -19.2268  -55.6326 H         1 UNK         0.0600 
    237 H237       -0.6391  -18.4055  -53.2999 H         1 UNK         0.0600 
    238 H238       -0.3341  -19.7292  -54.4233 H         1 UNK         0.0600 
    239 H239       -0.3537  -18.0693  -54.9988 H         1 UNK         0.0600 
    240 H240       -2.9813  -17.5440  -52.5267 H         1 UNK         0.3000 
    241 H241       -3.3464  -14.9586  -53.8178 H         1 UNK         0.0600 
    242 H242       -7.0464  -16.4710  -53.4779 H         1 UNK         0.3800 
    243 H243       -5.6198  -17.4766  -53.4669 H         1 UNK         0.3800 
    244 H244       -3.5831  -14.0466  -51.5483 H         1 UNK         0.0800 
    245 H245       -3.7131  -15.6453  -50.8682 H         1 UNK         0.0800 
    246 H246       -1.9387  -17.0703  -50.2094 H         1 UNK         0.0800 
    247 H247       -1.4509  -15.7352  -49.2000 H         1 UNK         0.0800 
@<TRIPOS>BOND
     1    1    2 1    
     2    1  127 1    
     3    1  128 1    
     4    1  129 1    
     5    2    3 2    
     6    2    4 am   BACKBONE|DICT|INTERRES
     7    4    5 1    
     8    4  130 1    
     9    5    6 1    
    10    5   65 1    
    11    5  131 1    
    12    6    7 1    
    13    6  132 1    
    14    6  133 1    
    15    7    8 1    
    16    8    9 1    
    17    8  134 1    
    18    8  135 1    
    19    9   10 ar   
    20    9   14 ar   
    21   10   11 ar   
    22   10  136 1    
    23   11   12 ar   
    24   11  126 1    
    25   12   13 ar   
    26   12  137 1    
    27   13   14 ar   
    28   13   15 1    
    29   14  138 1    
    30   15   16 1    
    31   15  139 1    
    32   15  140 1    
    33   16   17 1    
    34   17   18 1    
    35   17  141 1    
    36   17  142 1    
    37   18   19 1    
    38   18   67 1    
    39   18  143 1    
    40   19   20 am   BACKBONE|DICT|INTERRES
    41   19  144 1    
    42   20   21 2    
    43   20   22 1    
    44   22   23 1    
    45   22   24 1    
    46   22  145 1    
    47   23  146 1    
    48   23  147 1    
    49   23  148 1    
    50   24   25 am   BACKBONE|DICT|INTERRES
    51   24  149 1    
    52   25   26 2    
    53   25   27 1    
    54   27   28 1    
    55   27   29 1    
    56   27  150 1    
    57   28  151 1    
    58   28  152 1    
    59   28  153 1    
    60   29   30 am   BACKBONE|DICT|INTERRES
    61   29  154 1    
    62   30   31 2    
    63   30   32 1    
    64   32   33 1    
    65   32   34 1    
    66   32  155 1    
    67   33  156 1    
    68   33  157 1    
    69   33  158 1    
    70   34   35 am   BACKBONE|DICT|INTERRES
    71   34  159 1    
    72   35   36 2    
    73   35   37 1    
    74   37   38 1    
    75   37   39 1    
    76   37  160 1    
    77   38  161 1    
    78   38  162 1    
    79   38  163 1    
    80   39   40 am   BACKBONE|DICT|INTERRES
    81   39  164 1    
    82   40   41 2    
    83   40   42 1    
    84   42   43 1    
    85   42   44 1    
    86   42  165 1    
    87   43  166 1    
    88   43  167 1    
    89   43  168 1    
    90   44   45 am   BACKBONE|DICT|INTERRES
    91   44  169 1    
    92   45   46 2    
    93   45   47 1    
    94   47   48 1    
    95   47   49 1    
    96   47  170 1    
    97   48  171 1    
    98   48  172 1    
    99   48  173 1    
   100   49   50 am   BACKBONE|DICT|INTERRES
   101   49  174 1    
   102   50   51 2    
   103   50   52 1    
   104   52   53 1    
   105   52   54 1    
   106   52  175 1    
   107   53  176 1    
   108   53  177 1    
   109   53  178 1    
   110   54   55 am   BACKBONE|DICT|INTERRES
   111   54  179 1    
   112   55   56 2    
   113   55   57 1    
   114   57   58 1    
   115   57   59 1    
   116   57  180 1    
   117   58  181 1    
   118   58  182 1    
   119   58  183 1    
   120   59   60 am   BACKBONE|DICT|INTERRES
   121   59  184 1    
   122   60   61 2    
   123   60   62 1    
   124   62   63 1    
   125   62   64 1    
   126   62  185 1    
   127   63  186 1    
   128   63  187 1    
   129   63  188 1    
   130   64   65 am   BACKBONE|DICT|INTERRES
   131   64  189 1    
   132   65   66 2    
   133   67   68 2    
   134   67   69 am   BACKBONE|DICT|INTERRES
   135   69   70 1    
   136   69  190 1    
   137   70   71 1    
   138   70   72 1    
   139   70  191 1    
   140   71  192 1    
   141   71  193 1    
   142   71  194 1    
   143   72   73 2    
   144   72   74 am   BACKBONE|DICT|INTERRES
   145   74   75 1    
   146   74  195 1    
   147   75   76 1    
   148   75   77 1    
   149   75  196 1    
   150   76  197 1    
   151   76  198 1    
   152   76  199 1    
   153   77   78 2    
   154   77   79 am   BACKBONE|DICT|INTERRES
   155   79   80 1    
   156   79  200 1    
   157   80   81 1    
   158   80   82 1    
   159   80  201 1    
   160   81  202 1    
   161   81  203 1    
   162   81  204 1    
   163   82   83 2    
   164   82   84 am   BACKBONE|DICT|INTERRES
   165   84   85 1    
   166   84  205 1    
   167   85   86 1    
   168   85   87 1    
   169   85  206 1    
   170   86  207 1    
   171   86  208 1    
   172   86  209 1    
   173   87   88 2    
   174   87   89 am   BACKBONE|DICT|INTERRES
   175   89   90 1    
   176   89  210 1    
   177   90   91 1    
   178   90   92 1    
   179   90  211 1    
   180   91  212 1    
   181   91  213 1    
   182   91  214 1    
   183   92   93 2    
   184   92   94 am   BACKBONE|DICT|INTERRES
   185   94   95 1    
   186   94  215 1    
   187   95   96 1    
   188   95   97 1    
   189   95  216 1    
   190   96  217 1    
   191   96  218 1    
   192   96  219 1    
   193   97   98 2    
   194   97   99 am   BACKBONE|DICT|INTERRES
   195   99  100 1    
   196   99  220 1    
   197  100  101 1    
   198  100  102 1    
   199  100  221 1    
   200  101  222 1    
   201  101  223 1    
   202  101  224 1    
   203  102  103 2    
   204  102  104 am   BACKBONE|DICT|INTERRES
   205  104  105 1    
   206  104  225 1    
   207  105  106 1    
   208  105  107 1    
   209  105  226 1    
   210  106  227 1    
   211  106  228 1    
   212  106  229 1    
   213  107  108 2    
   214  107  109 am   BACKBONE|DICT|INTERRES
   215  109  110 1    
   216  109  230 1    
   217  110  111 1    
   218  110  112 1    
   219  110  231 1    
   220  111  232 1    
   221  111  233 1    
   222  111  234 1    
   223  112  113 2    
   224  112  114 am   BACKBONE|DICT|INTERRES
   225  114  115 1    
   226  114  235 1    
   227  115  116 1    
   228  115  117 1    
   229  115  236 1    
   230  116  237 1    
   231  116  238 1    
   232  116  239 1    
   233  117  118 2    
   234  117  119 am   BACKBONE|DICT|INTERRES
   235  119  120 1    
   236  119  240 1    
   237  120  121 1    
   238  120  124 1    
   239  120  241 1    
   240  121  122 am   BACKBONE|DICT|INTERRES
   241  121  123 2    
   242  122  242 1    
   243  122  243 1    
   244  124  125 1    
   245  124  244 1    
   246  124  245 1    
   247  125  126 1    
   248  126  246 1    
   249  126  247 1    
@<TRIPOS>SUBSTRUCTURE
     1 UNK         1 GROUP             0       ****    0 ROOT    
