@<TRIPOS>MOLECULE
3R540
247   249    1
SMALL
USER_CHARGES


@<TRIPOS>ATOM
      1 CA         -2.2791  -17.1215  -50.0571 C.3       0 UNK        -0.1800 
      2 C          -1.8863  -15.9705  -49.1427 C.2       0 UNK         0.5000 
      3 O          -2.7220  -15.1282  -48.8140 O.2       0 UNK        -0.5000 
      4 N          -0.6191  -15.9380  -48.7175 N.am      1 UNK        -0.5000 
      5 CA         -0.0110  -14.8831  -47.8989 C.3       1 UNK         0.1400 
      6 C6          1.5166  -14.8019  -48.1379 C.3       23 UNK        -0.0398 
      7 S7          1.9153  -14.2762  -49.8357 S.3       23 UNK        -0.2404 
      8 C8          3.3228  -15.3620  -50.2329 C.3       23 UNK        -0.0205 
      9 C9          2.9157  -16.7743  -50.6397 C.ar      23 UNK        -0.0193 
     10 C10         1.9652  -16.9770  -51.6465 C.ar      23 UNK        -0.1150 
     11 C11         1.6777  -18.2650  -52.1055 C.ar      23 UNK        -0.0193 
     12 C12         2.3518  -19.3562  -51.5520 C.ar      23 UNK        -0.1150 
     13 C13         3.2939  -19.1737  -50.5353 C.ar      23 UNK        -0.0193 
     14 C14         3.5636  -17.8797  -50.0769 C.ar      23 UNK        -0.1150 
     15 C15         4.0812  -20.3624  -49.9956 C.3       23 UNK        -0.0205 
     16 S16         3.0212  -21.7254  -49.4160 S.3       23 UNK        -0.2404 
     17 C17         2.4754  -21.0770  -47.8059 C.3       23 UNK        -0.0398 
     18 CA          1.3472  -21.9372  -47.1853 C.3       11 UNK         0.1400 
     19 N           1.3544  -21.8744  -45.7223 N.am      11 UNK        -0.5000 
     20 C           0.6058  -22.6355  -44.9112 C.2       10 UNK         0.5000 
     21 O          -0.1260  -23.5420  -45.3067 O.2       10 UNK        -0.5000 
     22 CA          0.6236  -22.2711  -43.4135 C.3       10 UNK         0.1400 
     23 CB          1.8275  -22.9022  -42.6995 C.3       10 UNK        -0.1800 
     24 N           0.6166  -20.8196  -43.2095 N.am      10 UNK        -0.5000 
     25 C          -0.4065  -20.0295  -43.5661 C.2       9 UNK         0.5000 
     26 O          -1.4774  -20.4606  -43.9895 O.2       9 UNK        -0.5000 
     27 CA         -0.1906  -18.5105  -43.4934 C.3       9 UNK         0.1400 
     28 CB         -0.6383  -17.9613  -42.1327 C.3       9 UNK        -0.1800 
     29 N           1.1967  -18.1326  -43.7659 N.am      9 UNK        -0.5000 
     30 C           1.7462  -18.1334  -44.9898 C.2       8 UNK         0.5000 
     31 O           1.1247  -18.4207  -46.0137 O.2       8 UNK        -0.5000 
     32 CA          3.2562  -17.8273  -45.0775 C.3       8 UNK         0.1400 
     33 CB          3.5210  -16.3157  -45.0464 C.3       8 UNK        -0.1800 
     34 N           4.0237  -18.4545  -44.0023 N.am      8 UNK        -0.5000 
     35 C           4.1510  -19.7752  -43.8179 C.2       7 UNK         0.5000 
     36 O           3.6855  -20.6138  -44.5870 O.2       7 UNK        -0.5000 
     37 CA          4.8704  -20.2369  -42.5331 C.3       7 UNK         0.1400 
     38 CB          6.3541  -20.5100  -42.8191 C.3       7 UNK        -0.1800 
     39 N           4.7591  -19.2907  -41.4164 N.am      7 UNK        -0.5000 
     40 C           3.6064  -18.8737  -40.8752 C.2       6 UNK         0.5000 
     41 O           2.4978  -19.2695  -41.2516 O.2       6 UNK        -0.5000 
     42 CA          3.7080  -17.7978  -39.7814 C.3       6 UNK         0.1400 
     43 CB          4.4100  -16.5312  -40.3195 C.3       6 UNK        -0.1800 
     44 N           2.3549  -17.4711  -39.3481 N.am      6 UNK        -0.5000 
     45 C           2.0016  -16.7128  -38.3083 C.2       5 UNK         0.5000 
     46 O           2.7971  -16.2352  -37.4964 O.2       5 UNK        -0.5000 
     47 CA          0.4978  -16.4005  -38.1845 C.3       5 UNK         0.1400 
     48 CB         -0.0116  -16.6286  -36.7517 C.3       5 UNK        -0.1800 
     49 N           0.2103  -15.0216  -38.5838 N.am      5 UNK        -0.5000 
     50 C           0.3757  -14.5285  -39.8180 C.2       4 UNK         0.5000 
     51 O           0.7535  -15.1969  -40.7838 O.2       4 UNK        -0.5000 
     52 CA          0.0787  -13.0354  -40.0078 C.3       4 UNK         0.1400 
     53 CB          1.2568  -12.1757  -39.5119 C.3       4 UNK        -0.1800 
     54 N          -0.1547  -12.8020  -41.4283 N.am      4 UNK        -0.5000 
     55 C          -0.7392  -11.7317  -41.9753 C.2       3 UNK         0.5000 
     56 O          -1.1592  -10.7729  -41.3262 O.2       3 UNK        -0.5000 
     57 CA         -0.8824  -11.7336  -43.5084 C.3       3 UNK         0.1400 
     58 CB          0.3507  -11.0942  -44.1653 C.3       3 UNK        -0.1800 
     59 N          -1.0700  -13.0757  -44.0620 N.am      3 UNK        -0.5000 
     60 C          -2.2136  -13.7703  -44.0284 C.2       2 UNK         0.5000 
     61 O          -3.2456  -13.3432  -43.5077 O.2       2 UNK        -0.5000 
     62 CA         -2.2017  -15.1571  -44.7144 C.3       2 UNK         0.1400 
     63 CB         -3.5953  -15.8091  -44.7555 C.3       2 UNK        -0.1800 
     64 N          -1.6601  -15.1102  -46.0772 N.am      2 UNK        -0.5000 
     65 C          -0.3639  -15.0160  -46.3984 C.2       1 UNK         0.5000 
     66 O           0.5253  -14.9883  -45.5464 O.2       1 UNK        -0.5000 
     67 C          -0.0362  -21.5738  -47.7659 C.2       11 UNK         0.5000 
     68 O          -0.5412  -22.2927  -48.6273 O.2       11 UNK        -0.5000 
     69 N          -0.6506  -20.5028  -47.2411 N.am      12 UNK        -0.5000 
     70 CA         -2.0055  -20.0699  -47.5894 C.3       12 UNK         0.1400 
     71 CB         -2.3166  -18.7432  -46.8832 C.3       12 UNK        -0.1800 
     72 C          -3.0780  -21.1232  -47.2525 C.2       12 UNK         0.5000 
     73 O          -3.9741  -21.3538  -48.0625 O.2       12 UNK        -0.5000 
     74 N          -2.9495  -21.7636  -46.0818 N.am      13 UNK        -0.5000 
     75 CA         -3.8075  -22.8604  -45.6347 C.3       13 UNK         0.1400 
     76 CB         -3.5233  -23.1743  -44.1583 C.3       13 UNK        -0.1800 
     77 C          -3.6557  -24.1192  -46.5072 C.2       13 UNK         0.5000 
     78 O          -4.6638  -24.7235  -46.8729 O.2       13 UNK        -0.5000 
     79 N          -2.4111  -24.4663  -46.8672 N.am      14 UNK        -0.5000 
     80 CA         -2.0822  -25.5662  -47.7794 C.3       14 UNK         0.1400 
     81 CB         -0.5626  -25.7906  -47.7880 C.3       14 UNK        -0.1800 
     82 C          -2.6117  -25.3421  -49.2101 C.2       14 UNK         0.5000 
     83 O          -3.0208  -26.3014  -49.8645 O.2       14 UNK        -0.5000 
     84 N          -2.6365  -24.0769  -49.6496 N.am      15 UNK        -0.5000 
     85 CA         -3.2299  -23.6266  -50.9098 C.3       15 UNK         0.1400 
     86 CB         -2.6617  -22.2431  -51.2568 C.3       15 UNK        -0.1800 
     87 C          -4.7743  -23.5961  -50.8973 C.2       15 UNK         0.5000 
     88 O          -5.3711  -23.3627  -51.9492 O.2       15 UNK        -0.5000 
     89 N          -5.3952  -23.8288  -49.7300 N.am      16 UNK        -0.5000 
     90 CA         -6.8343  -23.9041  -49.4707 C.3       16 UNK         0.1400 
     91 CB         -7.4338  -25.1681  -50.1259 C.3       16 UNK        -0.1800 
     92 C          -7.5638  -22.6011  -49.8516 C.2       16 UNK         0.5000 
     93 O          -7.5435  -21.6462  -49.0743 O.2       16 UNK        -0.5000 
     94 N          -8.1877  -22.5812  -51.0366 N.am      17 UNK        -0.5000 
     95 CA         -8.8504  -21.4128  -51.6179 C.3       17 UNK         0.1400 
     96 CB         -9.7410  -21.8808  -52.7795 C.3       17 UNK        -0.1800 
     97 C          -7.8651  -20.3294  -52.1027 C.2       17 UNK         0.5000 
     98 O          -8.2724  -19.1767  -52.2547 O.2       17 UNK        -0.5000 
     99 N          -6.6029  -20.7186  -52.3382 N.am      18 UNK        -0.5000 
    100 CA        -5.5126  -19.9082  -52.8800 C.3       18 UNK         0.1400 
    101 CB        -5.0830  -18.8127  -51.8806 C.3       18 UNK        -0.1800 
    102 C         -5.8142  -19.3990  -54.3054 C.2       18 UNK         0.5000 
    103 O         -6.4759  -20.1057  -55.0701 O.2       18 UNK        -0.5000 
    104 N         -5.2730  -18.2260  -54.6683 N.am      19 UNK        -0.5000 
    105 CA        -5.2794  -17.6431  -56.0151 C.3       19 UNK         0.1400 
    106 CB        -6.7017  -17.1857  -56.4106 C.3       19 UNK        -0.1800 
    107 C         -4.6187  -18.6112  -57.0184 C.2       19 UNK         0.5000 
    108 O         -3.4196  -18.8650  -56.8963 O.2       19 UNK        -0.5000 
    109 N         -5.4049  -19.1901  -57.9357 N.am      20 UNK        -0.5000 
    110 CA        -4.9722  -20.2248  -58.8784 C.3       20 UNK         0.1400 
    111 CB        -6.1188  -20.5271  -59.8546 C.3       20 UNK        -0.1800 
    112 C         -4.4880  -21.5211  -58.1954 C.2       20 UNK         0.5000 
    113 O         -3.5807  -22.1728  -58.7139 O.2       20 UNK        -0.5000 
    114 N         -5.0594  -21.8529  -57.0273 N.am      21 UNK        -0.5000 
    115 CA        -4.6601  -23.0032  -56.2100 C.3       21 UNK         0.1400 
    116 CB        -5.8160  -23.3906  -55.2742 C.3       21 UNK        -0.1800 
    117 C         -3.3598  -22.7602  -55.4149 C.2       21 UNK         0.5000 
    118 O         -2.8012  -23.7145  -54.8735 O.2       21 UNK        -0.5000 
    119 N         -2.8898  -21.5053  -55.3697 N.am      22 UNK        -0.5000 
    120 CA        -1.5935  -21.1126  -54.7965 C.3       22 UNK         0.1400 
    121 C         -0.3832  -21.3822  -55.7419 C.2       22 UNK         0.5000 
    122 N         -0.5864  -21.7274  -57.0091 N.am      22 UNK        -0.7600 
    123 O          0.7647  -21.2991  -55.3171 O.2       22 UNK        -0.5000 
    124 C124       -1.6339  -19.6410  -54.2952 C.3       23 UNK        -0.0398 
    125 S125       -0.7839  -19.3938  -52.7014 S.3       23 UNK        -0.2404 
    126 C126        0.6912  -18.4782  -53.2429 C.3       23 UNK        -0.0205 
    127 H127       -2.4587  -16.7525  -51.0666 H         1 UNK         0.0600 
    128 H128       -1.4976  -17.8801  -50.1066 H         1 UNK         0.0600 
    129 H129       -3.1918  -17.5967  -49.6985 H         1 UNK         0.0600 
    130 H130        0.0132  -16.6699  -49.0082 H         1 UNK         0.3000 
    131 H131       -0.4346  -13.9262  -48.2119 H         1 UNK         0.0600 
    132 H132        1.9791  -15.7684  -47.9323 H         1 UNK         0.0800 
    133 H133        1.9846  -14.0799  -47.4661 H         1 UNK         0.0800 
    134 H134        3.8735  -14.9179  -51.0630 H         1 UNK         0.0800 
    135 H135        4.0121  -15.3788  -49.3871 H         1 UNK         0.0800 
    136 H136        1.4740  -16.1256  -52.0964 H         1 UNK         0.1150 
    137 H137        2.1507  -20.3505  -51.9262 H         1 UNK         0.1150 
    138 H138        4.3150  -17.7287  -49.3145 H         1 UNK         0.1150 
    139 H139        4.7215  -20.7387  -50.7944 H         1 UNK         0.0800 
    140 H140        4.7486  -20.0584  -49.1876 H         1 UNK         0.0800 
    141 H141        2.1806  -20.0307  -47.9054 H         1 UNK         0.0800 
    142 H142        3.3528  -21.0820  -47.1587 H         1 UNK         0.0800 
    143 H143        1.5375  -22.9831  -47.4364 H         1 UNK         0.0600 
    144 H144        1.9881  -21.2016  -45.3016 H         1 UNK         0.3000 
    145 H145       -0.2841  -22.6746  -42.9598 H         1 UNK         0.0600 
    146 H146        1.8718  -22.6007  -41.6527 H         1 UNK         0.0600 
    147 H147        1.7604  -23.9904  -42.7232 H         1 UNK         0.0600 
    148 H148        2.7703  -22.6283  -43.1704 H         1 UNK         0.0600 
    149 H149        1.4484  -20.3944  -42.8192 H         1 UNK         0.3000 
    150 H150       -0.8230  -18.0567  -44.2581 H         1 UNK         0.0600 
    151 H151       -1.6628  -18.2610  -41.9086 H         1 UNK         0.0600 
    152 H152       -0.6168  -16.8734  -42.1286 H         1 UNK         0.0600 
    153 H153       -0.0071  -18.3182  -41.3196 H         1 UNK         0.0600 
    154 H154        1.7829  -17.9537  -42.9626 H         1 UNK         0.3000 
    155 H155        3.6221  -18.2213  -46.0281 H         1 UNK         0.0600 
    156 H156        3.0400  -15.8179  -45.8854 H         1 UNK         0.0600 
    157 H157        4.5870  -16.0982  -45.1148 H         1 UNK         0.0600 
    158 H158        3.1408  -15.8567  -44.1326 H         1 UNK         0.0600 
    159 H159        4.4455  -17.8365  -43.3257 H         1 UNK         0.3000 
    160 H160        4.4070  -21.1726  -42.2162 H         1 UNK         0.0600 
    161 H161        6.4693  -21.2311  -43.6296 H         1 UNK         0.0600 
    162 H162        6.8553  -20.9247  -41.9443 H         1 UNK         0.0600 
    163 H163        6.8820  -19.6011  -43.1107 H         1 UNK         0.0600 
    164 H164        5.6280  -18.9231  -41.0560 H         1 UNK         0.3000 
    165 H165        4.2664  -18.2102  -38.9392 H         1 UNK         0.0600 
    166 H166        4.4916  -15.7609  -39.5529 H         1 UNK         0.0600 
    167 H167        5.4250  -16.7443  -40.6554 H         1 UNK         0.0600 
    168 H168        3.8657  -16.1010  -41.1616 H         1 UNK         0.0600 
    169 H169        1.6428  -17.8480  -39.9612 H         1 UNK         0.3000 
    170 H170       -0.0578  -17.0683  -38.8468 H         1 UNK         0.0600 
    171 H171        0.1910  -17.6492  -36.4246 H         1 UNK         0.0600 
    172 H172        0.4662  -15.9546  -36.0394 H         1 UNK         0.0600 
    173 H173       -1.0890  -16.4753  -36.6872 H         1 UNK         0.0600 
    174 H174       -0.0737  -14.3963  -37.8438 H         1 UNK         0.3000 
    175 H175       -0.8263  -12.7852  -39.4505 H         1 UNK         0.0600 
    176 H176        1.4606  -12.3591  -38.4564 H         1 UNK         0.0600 
    177 H177        2.1710  -12.3937  -40.0656 H         1 UNK         0.0600 
    178 H178        1.0475  -11.1114  -39.6182 H         1 UNK         0.0600 
    179 H179        0.1366  -13.5718  -42.0187 H         1 UNK         0.3000 
    180 H180       -1.7547  -11.1273  -43.7618 H         1 UNK         0.0600 
    181 H181        1.2567  -11.6677  -43.9649 H         1 UNK         0.0600 
    182 H182        0.5124  -10.0824  -43.7911 H         1 UNK         0.0600 
    183 H183        0.2300  -11.0250  -45.2465 H         1 UNK         0.0600 
    184 H184       -0.2678  -13.5154  -44.5024 H         1 UNK         0.3000 
    185 H185       -1.5578  -15.7954  -44.1086 H         1 UNK         0.0600 
    186 H186       -3.5524  -16.8107  -45.1797 H         1 UNK         0.0600 
    187 H187       -4.0144  -15.9052  -43.7531 H         1 UNK         0.0600 
    188 H188       -4.2951  -15.2229  -45.3522 H         1 UNK         0.0600 
    189 H189       -2.3311  -15.0857  -46.8384 H         1 UNK         0.3000 
    190 H190       -0.1460  -19.9314  -46.5723 H         1 UNK         0.3000 
    191 H191       -2.0255  -19.9001  -48.6676 H         1 UNK         0.0600 
    192 H192       -2.4624  -18.8799  -45.8130 H         1 UNK         0.0600 
    193 H193       -3.2311  -18.2994  -47.2776 H         1 UNK         0.0600 
    194 H194       -1.5123  -18.0214  -47.0162 H         1 UNK         0.0600 
    195 H195       -2.2261  -21.4582  -45.4366 H         1 UNK         0.3000 
    196 H196       -4.8436  -22.5249  -45.7144 H         1 UNK         0.0600 
    197 H197       -2.4958  -23.5035  -44.0047 H         1 UNK         0.0600 
    198 H198       -4.1794  -23.9660  -43.7948 H         1 UNK         0.0600 
    199 H199       -3.6902  -22.2988  -43.5306 H         1 UNK         0.0600 
    200 H200       -1.6274  -23.9472  -46.4807 H         1 UNK         0.3000 
    201 H201       -2.5556  -26.4705  -47.3916 H         1 UNK         0.0600 
    202 H202       -0.1920  -26.0178  -46.7883 H         1 UNK         0.0600 
    203 H203       -0.0274  -24.9133  -48.1512 H         1 UNK         0.0600 
    204 H204       -0.2952  -26.6286  -48.4328 H         1 UNK         0.0600 
    205 H205       -2.2029  -23.3602  -49.0759 H         1 UNK         0.3000 
    206 H206       -2.9287  -24.3202  -51.6975 H         1 UNK         0.0600 
    207 H207       -2.9646  -21.4845  -50.5356 H         1 UNK         0.0600 
    208 H208       -3.0091  -21.9210  -52.2363 H         1 UNK         0.0600 
    209 H209       -1.5721  -22.2580  -51.2907 H         1 UNK         0.0600 
    210 H210       -4.8139  -23.9627  -48.9121 H         1 UNK         0.3000 
    211 H211       -6.9463  -24.0125  -48.3909 H         1 UNK         0.0600 
    212 H212       -7.2875  -25.1895  -51.2061 H         1 UNK         0.0600 
    213 H213       -8.5052  -25.2390  -49.9336 H         1 UNK         0.0600 
    214 H214       -6.9743  -26.0682  -49.7170 H         1 UNK         0.0600 
    215 H215       -8.1227  -23.4018  -51.6215 H         1 UNK         0.3000 
    216 H216       -9.4883  -20.9623  -50.8546 H         1 UNK         0.0600 
    217 H217      -10.2821  -21.0420  -53.2193 H         1 UNK         0.0600 
    218 H218      -10.4834  -22.6045  -52.4425 H         1 UNK         0.0600 
    219 H219       -9.1537  -22.3441  -53.5737 H         1 UNK         0.0600 
    220 H220       -6.3768  -21.6992  -52.1975 H         1 UNK         0.3000 
    221 H221       -4.6735  -20.5925  -52.9937 H         1 UNK         0.0600 
    222 H222       -5.8346  -18.0283  -51.7860 H         1 UNK         0.0600 
    223 H223       -4.9182  -19.2358  -50.8891 H         1 UNK         0.0600 
    224 H224       -4.1459  -18.3447  -52.1824 H         1 UNK         0.0600 
    225 H225       -4.7387  -17.7161  -53.9797 H         1 UNK         0.3000 
    226 H226       -4.6440  -16.7570  -55.9796 H         1 UNK         0.0600 
    227 H227       -7.0803  -16.4491  -55.7019 H         1 UNK         0.0600 
    228 H228       -6.7028  -16.7131  -57.3936 H         1 UNK         0.0600 
    229 H229       -7.4159  -18.0092  -56.4358 H         1 UNK         0.0600 
    230 H230       -6.3870  -18.9557  -57.9404 H         1 UNK         0.3000 
    231 H231       -4.1332  -19.8230  -59.4504 H         1 UNK         0.0600 
    232 H232       -5.8201  -21.2779  -60.5876 H         1 UNK         0.0600 
    233 H233       -6.4128  -19.6346  -60.4072 H         1 UNK         0.0600 
    234 H234       -6.9995  -20.9072  -59.3353 H         1 UNK         0.0600 
    235 H235       -5.7626  -21.2401  -56.6260 H         1 UNK         0.3000 
    236 H236       -4.4760  -23.8499  -56.8746 H         1 UNK         0.0600 
    237 H237       -5.5805  -24.3005  -54.7208 H         1 UNK         0.0600 
    238 H238       -6.0219  -22.6135  -54.5398 H         1 UNK         0.0600 
    239 H239       -6.7334  -23.5776  -55.8321 H         1 UNK         0.0600 
    240 H240       -3.3719  -20.7860  -55.8936 H         1 UNK         0.3000 
    241 H241       -1.4228  -21.7570  -53.9331 H         1 UNK         0.0600 
    242 H242        0.2078  -21.9071  -57.6031 H         1 UNK         0.3800 
    243 H243       -1.5194  -21.8145  -57.3836 H         1 UNK         0.3800 
    244 H244       -2.6635  -19.3300  -54.1243 H         1 UNK         0.0800 
    245 H245       -1.2533  -18.9478  -55.0478 H         1 UNK         0.0800 
    246 H246        1.1916  -19.0255  -54.0419 H         1 UNK         0.0800 
    247 H247        0.3801  -17.5232  -53.6691 H         1 UNK         0.0800 
@<TRIPOS>BOND
     1    1    2 1    
     2    1  127 1    
     3    1  128 1    
     4    1  129 1    
     5    2    3 2    
     6    2    4 am   BACKBONE|DICT|INTERRES
     7    4    5 1    
     8    4  130 1    
     9    5    6 1    
    10    5   65 1    
    11    5  131 1    
    12    6    7 1    
    13    6  132 1    
    14    6  133 1    
    15    7    8 1    
    16    8    9 1    
    17    8  134 1    
    18    8  135 1    
    19    9   10 ar   
    20    9   14 ar   
    21   10   11 ar   
    22   10  136 1    
    23   11   12 ar   
    24   11  126 1    
    25   12   13 ar   
    26   12  137 1    
    27   13   14 ar   
    28   13   15 1    
    29   14  138 1    
    30   15   16 1    
    31   15  139 1    
    32   15  140 1    
    33   16   17 1    
    34   17   18 1    
    35   17  141 1    
    36   17  142 1    
    37   18   19 1    
    38   18   67 1    
    39   18  143 1    
    40   19   20 am   BACKBONE|DICT|INTERRES
    41   19  144 1    
    42   20   21 2    
    43   20   22 1    
    44   22   23 1    
    45   22   24 1    
    46   22  145 1    
    47   23  146 1    
    48   23  147 1    
    49   23  148 1    
    50   24   25 am   BACKBONE|DICT|INTERRES
    51   24  149 1    
    52   25   26 2    
    53   25   27 1    
    54   27   28 1    
    55   27   29 1    
    56   27  150 1    
    57   28  151 1    
    58   28  152 1    
    59   28  153 1    
    60   29   30 am   BACKBONE|DICT|INTERRES
    61   29  154 1    
    62   30   31 2    
    63   30   32 1    
    64   32   33 1    
    65   32   34 1    
    66   32  155 1    
    67   33  156 1    
    68   33  157 1    
    69   33  158 1    
    70   34   35 am   BACKBONE|DICT|INTERRES
    71   34  159 1    
    72   35   36 2    
    73   35   37 1    
    74   37   38 1    
    75   37   39 1    
    76   37  160 1    
    77   38  161 1    
    78   38  162 1    
    79   38  163 1    
    80   39   40 am   BACKBONE|DICT|INTERRES
    81   39  164 1    
    82   40   41 2    
    83   40   42 1    
    84   42   43 1    
    85   42   44 1    
    86   42  165 1    
    87   43  166 1    
    88   43  167 1    
    89   43  168 1    
    90   44   45 am   BACKBONE|DICT|INTERRES
    91   44  169 1    
    92   45   46 2    
    93   45   47 1    
    94   47   48 1    
    95   47   49 1    
    96   47  170 1    
    97   48  171 1    
    98   48  172 1    
    99   48  173 1    
   100   49   50 am   BACKBONE|DICT|INTERRES
   101   49  174 1    
   102   50   51 2    
   103   50   52 1    
   104   52   53 1    
   105   52   54 1    
   106   52  175 1    
   107   53  176 1    
   108   53  177 1    
   109   53  178 1    
   110   54   55 am   BACKBONE|DICT|INTERRES
   111   54  179 1    
   112   55   56 2    
   113   55   57 1    
   114   57   58 1    
   115   57   59 1    
   116   57  180 1    
   117   58  181 1    
   118   58  182 1    
   119   58  183 1    
   120   59   60 am   BACKBONE|DICT|INTERRES
   121   59  184 1    
   122   60   61 2    
   123   60   62 1    
   124   62   63 1    
   125   62   64 1    
   126   62  185 1    
   127   63  186 1    
   128   63  187 1    
   129   63  188 1    
   130   64   65 am   BACKBONE|DICT|INTERRES
   131   64  189 1    
   132   65   66 2    
   133   67   68 2    
   134   67   69 am   BACKBONE|DICT|INTERRES
   135   69   70 1    
   136   69  190 1    
   137   70   71 1    
   138   70   72 1    
   139   70  191 1    
   140   71  192 1    
   141   71  193 1    
   142   71  194 1    
   143   72   73 2    
   144   72   74 am   BACKBONE|DICT|INTERRES
   145   74   75 1    
   146   74  195 1    
   147   75   76 1    
   148   75   77 1    
   149   75  196 1    
   150   76  197 1    
   151   76  198 1    
   152   76  199 1    
   153   77   78 2    
   154   77   79 am   BACKBONE|DICT|INTERRES
   155   79   80 1    
   156   79  200 1    
   157   80   81 1    
   158   80   82 1    
   159   80  201 1    
   160   81  202 1    
   161   81  203 1    
   162   81  204 1    
   163   82   83 2    
   164   82   84 am   BACKBONE|DICT|INTERRES
   165   84   85 1    
   166   84  205 1    
   167   85   86 1    
   168   85   87 1    
   169   85  206 1    
   170   86  207 1    
   171   86  208 1    
   172   86  209 1    
   173   87   88 2    
   174   87   89 am   BACKBONE|DICT|INTERRES
   175   89   90 1    
   176   89  210 1    
   177   90   91 1    
   178   90   92 1    
   179   90  211 1    
   180   91  212 1    
   181   91  213 1    
   182   91  214 1    
   183   92   93 2    
   184   92   94 am   BACKBONE|DICT|INTERRES
   185   94   95 1    
   186   94  215 1    
   187   95   96 1    
   188   95   97 1    
   189   95  216 1    
   190   96  217 1    
   191   96  218 1    
   192   96  219 1    
   193   97   98 2    
   194   97   99 am   BACKBONE|DICT|INTERRES
   195   99  100 1    
   196   99  220 1    
   197  100  101 1    
   198  100  102 1    
   199  100  221 1    
   200  101  222 1    
   201  101  223 1    
   202  101  224 1    
   203  102  103 2    
   204  102  104 am   BACKBONE|DICT|INTERRES
   205  104  105 1    
   206  104  225 1    
   207  105  106 1    
   208  105  107 1    
   209  105  226 1    
   210  106  227 1    
   211  106  228 1    
   212  106  229 1    
   213  107  108 2    
   214  107  109 am   BACKBONE|DICT|INTERRES
   215  109  110 1    
   216  109  230 1    
   217  110  111 1    
   218  110  112 1    
   219  110  231 1    
   220  111  232 1    
   221  111  233 1    
   222  111  234 1    
   223  112  113 2    
   224  112  114 am   BACKBONE|DICT|INTERRES
   225  114  115 1    
   226  114  235 1    
   227  115  116 1    
   228  115  117 1    
   229  115  236 1    
   230  116  237 1    
   231  116  238 1    
   232  116  239 1    
   233  117  118 2    
   234  117  119 am   BACKBONE|DICT|INTERRES
   235  119  120 1    
   236  119  240 1    
   237  120  121 1    
   238  120  124 1    
   239  120  241 1    
   240  121  122 am   BACKBONE|DICT|INTERRES
   241  121  123 2    
   242  122  242 1    
   243  122  243 1    
   244  124  125 1    
   245  124  244 1    
   246  124  245 1    
   247  125  126 1    
   248  126  246 1    
   249  126  247 1    
@<TRIPOS>SUBSTRUCTURE
     1 UNK         1 GROUP             0       ****    0 ROOT    
