@<TRIPOS>MOLECULE
3R540
247   249    1
SMALL
USER_CHARGES


@<TRIPOS>ATOM
      1 CA         -5.6813  -12.1300  -50.0953 C.3       0 UNK        -0.1800 
      2 C          -4.8047  -13.3580  -49.8975 C.2       0 UNK         0.5000 
      3 O          -3.5813  -13.2625  -49.9998 O.2       0 UNK        -0.5000 
      4 N          -5.4205  -14.5090  -49.6016 N.am      1 UNK        -0.5000 
      5 CA         -4.7735  -15.8063  -49.3684 C.3       1 UNK         0.1400 
      6 C6         -5.7272  -16.9898  -49.6806 C.3       23 UNK        -0.0398 
      7 S7         -7.3415  -16.9232  -48.8266 S.3       23 UNK        -0.2404 
      8 C8         -8.2575  -18.2349  -49.7064 C.3       23 UNK        -0.0205 
      9 C9         -7.6047  -19.6121  -49.6148 C.ar      23 UNK        -0.0193 
     10 C10        -7.4963  -20.4103  -50.7577 C.ar      23 UNK        -0.1150 
     11 C11        -6.9232  -21.6837  -50.6865 C.ar      23 UNK        -0.0193 
     12 C12        -6.4262  -22.1476  -49.4653 C.ar      23 UNK        -0.1150 
     13 C13        -6.5245  -21.3613  -48.3130 C.ar      23 UNK        -0.0193 
     14 C14        -7.1357  -20.1057  -48.3932 C.ar      23 UNK        -0.1150 
     15 C15        -6.0027  -21.8891  -46.9818 C.3       23 UNK        -0.0205 
     16 S16        -4.9545  -20.6816  -46.1065 S.3       23 UNK        -0.2404 
     17 C17        -4.3657  -21.6926  -44.7074 C.3       23 UNK        -0.0398 
     18 CA         -2.8417  -21.9549  -44.7809 C.3       11 UNK         0.1400 
     19 N          -2.2351  -22.2930  -43.4922 N.am      11 UNK        -0.5000 
     20 C          -2.5499  -23.2728  -42.6360 C.2       10 UNK         0.5000 
     21 O          -3.4627  -24.0759  -42.8277 O.2       10 UNK        -0.5000 
     22 CA         -1.6733  -23.3973  -41.3766 C.3       10 UNK         0.1400 
     23 CB         -0.5059  -24.3579  -41.6467 C.3       10 UNK        -0.1800 
     24 N          -1.1292  -22.0988  -40.9715 N.am      10 UNK        -0.5000 
     25 C          -1.5263  -21.3979  -39.9005 C.2       9 UNK         0.5000 
     26 O          -2.3366  -21.8120  -39.0705 O.2       9 UNK        -0.5000 
     27 CA         -0.9356  -19.9806  -39.7357 C.3       9 UNK         0.1400 
     28 CB          0.3635  -20.0288  -38.9174 C.3       9 UNK        -0.1800 
     29 N          -0.6663  -19.3107  -41.0090 N.am      9 UNK        -0.5000 
     30 C          -1.5869  -19.0086  -41.9350 C.2       8 UNK         0.5000 
     31 O          -2.7965  -19.1699  -41.7745 O.2       8 UNK        -0.5000 
     32 CA         -1.0748  -18.4701  -43.2847 C.3       8 UNK         0.1400 
     33 CB         -1.2393  -16.9443  -43.3419 C.3       8 UNK        -0.1800 
     34 N           0.3158  -18.8156  -43.6056 N.am      8 UNK        -0.5000 
     35 C           0.8345  -20.0501  -43.6940 C.2       7 UNK         0.5000 
     36 O           0.2081  -21.0776  -43.4422 O.2       7 UNK        -0.5000 
     37 CA          2.3136  -20.1536  -44.0897 C.3       7 UNK         0.1400 
     38 CB          2.4747  -20.0331  -45.6130 C.3       7 UNK        -0.1800 
     39 N           3.1096  -19.1343  -43.4086 N.am      7 UNK        -0.5000 
     40 C           3.5185  -19.2373  -42.1349 C.2       6 UNK         0.5000 
     41 O           3.3286  -20.2321  -41.4348 O.2       6 UNK        -0.5000 
     42 CA          4.2433  -18.0196  -41.5310 C.3       6 UNK         0.1400 
     43 CB          5.7551  -18.1109  -41.7872 C.3       6 UNK        -0.1800 
     44 N           3.7444  -16.7465  -42.0503 N.am      6 UNK        -0.5000 
     45 C           2.5249  -16.2468  -41.8042 C.2       5 UNK         0.5000 
     46 O           1.7011  -16.7820  -41.0619 O.2       5 UNK        -0.5000 
     47 CA          2.1530  -14.9499  -42.5503 C.3       5 UNK         0.1400 
     48 CB          2.5443  -13.7194  -41.7189 C.3       5 UNK        -0.1800 
     49 N           2.7536  -14.8428  -43.8851 N.am      5 UNK        -0.5000 
     50 C           2.5427  -15.7044  -44.8884 C.2       4 UNK         0.5000 
     51 O           1.8383  -16.7103  -44.7884 O.2       4 UNK        -0.5000 
     52 CA          3.2361  -15.3999  -46.2200 C.3       4 UNK         0.1400 
     53 CB          4.0031  -16.6250  -46.7424 C.3       4 UNK        -0.1800 
     54 N           2.2084  -15.0213  -47.1805 N.am      4 UNK        -0.5000 
     55 C           1.9256  -13.7612  -47.5290 C.2       3 UNK         0.5000 
     56 O           2.5823  -12.7833  -47.1680 O.2       3 UNK        -0.5000 
     57 CA          0.6781  -13.5539  -48.4046 C.3       3 UNK         0.1400 
     58 CB          0.9564  -13.9500  -49.8606 C.3       3 UNK        -0.1800 
     59 N          -0.4893  -14.2866  -47.9100 N.am      3 UNK        -0.5000 
     60 C          -1.1394  -13.9952  -46.7735 C.2       2 UNK         0.5000 
     61 O          -0.7977  -13.0924  -46.0080 O.2       2 UNK        -0.5000 
     62 CA         -2.4108  -14.8111  -46.4814 C.3       2 UNK         0.1400 
     63 CB         -3.2779  -14.2057  -45.3587 C.3       2 UNK        -0.1800 
     64 N          -3.1906  -14.9448  -47.7091 N.am      2 UNK        -0.5000 
     65 C          -4.1001  -15.8876  -47.9752 C.2       1 UNK         0.5000 
     66 O          -4.4126  -16.7684  -47.1733 O.2       1 UNK        -0.5000 
     67 C          -2.4482  -22.9466  -45.8934 C.2       11 UNK         0.5000 
     68 O          -2.0122  -22.5157  -46.9583 O.2       11 UNK        -0.5000 
     69 N          -2.5528  -24.2511  -45.6127 N.am      12 UNK        -0.5000 
     70 CA         -2.2099  -25.3493  -46.5202 C.3       12 UNK         0.1400 
     71 CB         -2.8591  -26.6358  -45.9858 C.3       12 UNK        -0.1800 
     72 C          -0.6929  -25.5524  -46.7298 C.2       12 UNK         0.5000 
     73 O          -0.3069  -26.3535  -47.5818 O.2       12 UNK        -0.5000 
     74 N           0.1407  -24.8467  -45.9515 N.am      13 UNK        -0.5000 
     75 CA          1.6052  -24.9132  -45.9859 C.3       13 UNK         0.1400 
     76 CB          2.1604  -24.1473  -44.7757 C.3       13 UNK        -0.1800 
     77 C           2.2434  -24.3939  -47.2915 C.2       13 UNK         0.5000 
     78 O           3.3810  -24.7593  -47.5904 O.2       13 UNK        -0.5000 
     79 N           1.5131  -23.5661  -48.0445 N.am      14 UNK        -0.5000 
     80 CA          1.8883  -23.0544  -49.3574 C.3       14 UNK         0.1400 
     81 CB          2.7375  -21.7813  -49.1962 C.3       14 UNK        -0.1800 
     82 C           0.6007  -22.7787  -50.1440 C.2       14 UNK         0.5000 
     83 O          -0.4591  -22.6328  -49.5321 O.2       14 UNK        -0.5000 
     84 N           0.7061  -22.6937  -51.4769 N.am      15 UNK        -0.5000 
     85 CA         -0.4065  -22.4266  -52.3946 C.3       15 UNK         0.1400 
     86 CB          0.1109  -22.4628  -53.8417 C.3       15 UNK        -0.1800 
     87 C          -1.0826  -21.0799  -52.0842 C.2       15 UNK         0.5000 
     88 O          -0.4863  -20.0323  -52.3422 O.2       15 UNK        -0.5000 
     89 N          -2.2736  -21.1396  -51.4725 N.am      16 UNK        -0.5000 
     90 CA         -3.0574  -20.0115  -50.9568 C.3       16 UNK         0.1400 
     91 CB         -3.5839  -19.1575  -52.1270 C.3       16 UNK        -0.1800 
     92 C          -2.2737  -19.1712  -49.9268 C.2       16 UNK         0.5000 
     93 O          -2.3286  -17.9424  -49.9745 O.2       16 UNK        -0.5000 
     94 N          -1.4919  -19.8437  -49.0668 N.am      17 UNK        -0.5000 
     95 CA         -0.5427  -19.2515  -48.1166 C.3       17 UNK         0.1400 
     96 CB         -1.2858  -18.5279  -46.9830 C.3       17 UNK        -0.1800 
     97 C           0.5029  -18.3530  -48.8141 C.2       17 UNK         0.5000 
     98 O           0.8013  -17.2545  -48.3426 O.2       17 UNK        -0.5000 
     99 N           1.0076  -18.8537  -49.9503 N.am      18 UNK        -0.5000 
    100 CA         1.9997  -18.2672  -50.8552 C.3       18 UNK         0.1400 
    101 CB         3.2701  -17.8170  -50.1058 C.3       18 UNK        -0.1800 
    102 C          1.4471  -17.1712  -51.7883 C.2       18 UNK         0.5000 
    103 O          2.2326  -16.5660  -52.5192 O.2       18 UNK        -0.5000 
    104 N          0.1234  -16.9453  -51.7953 N.am      19 UNK        -0.5000 
    105 CA        -0.5375  -16.0319  -52.7350 C.3       19 UNK         0.1400 
    106 CB        -1.9020  -15.6039  -52.1748 C.3       19 UNK        -0.1800 
    107 C         -0.6747  -16.6214  -54.1565 C.2       19 UNK         0.5000 
    108 O         -0.9301  -15.8644  -55.0935 O.2       19 UNK        -0.5000 
    109 N         -0.4835  -17.9438  -54.2943 N.am      20 UNK        -0.5000 
    110 CA        -0.4392  -18.7197  -55.5382 C.3       20 UNK         0.1400 
    111 CB         0.7550  -18.2864  -56.4141 C.3       20 UNK        -0.1800 
    112 C         -1.7794  -18.7485  -56.3014 C.2       20 UNK         0.5000 
    113 O         -1.7907  -18.7362  -57.5341 O.2       20 UNK        -0.5000 
    114 N         -2.8842  -18.8040  -55.5476 N.am      21 UNK        -0.5000 
    115 CA        -4.2413  -18.9945  -56.0568 C.3       21 UNK         0.1400 
    116 CB        -5.2008  -18.0544  -55.2970 C.3       21 UNK        -0.1800 
    117 C         -4.6221  -20.4903  -55.9797 C.2       21 UNK         0.5000 
    118 O         -3.7958  -21.3444  -56.3076 O.2       21 UNK        -0.5000 
    119 N         -5.8605  -20.7823  -55.5607 N.am      22 UNK        -0.5000 
    120 CA        -6.4520  -22.1298  -55.4224 C.3       22 UNK         0.1400 
    121 C         -6.7843  -22.8387  -56.7719 C.2       22 UNK         0.5000 
    122 N         -6.7870  -22.1447  -57.9036 N.am      22 UNK        -0.7600 
    123 O         -7.0779  -24.0311  -56.7958 O.2       22 UNK        -0.5000 
    124 C124       -5.6895  -23.0710  -54.4403 C.3       23 UNK        -0.0398 
    125 S125       -5.3087  -22.3087  -52.8280 S.3       23 UNK        -0.2404 
    126 C126       -6.8622  -22.5628  -51.9259 C.3       23 UNK        -0.0205 
    127 H127       -5.5357  -11.7234  -51.0961 H         1 UNK         0.0600 
    128 H128       -6.7393  -12.3630  -49.9730 H         1 UNK         0.0600 
    129 H129       -5.4161  -11.3599  -49.3711 H         1 UNK         0.0600 
    130 H130       -6.4253  -14.5173  -49.4945 H         1 UNK         0.3000 
    131 H131       -3.9562  -15.8867  -50.0860 H         1 UNK         0.0600 
    132 H132       -5.2431  -17.9412  -49.4524 H         1 UNK         0.0800 
    133 H133       -5.9245  -17.0080  -50.7529 H         1 UNK         0.0800 
    134 H134       -8.3759  -17.9344  -50.7486 H         1 UNK         0.0800 
    135 H135       -9.2628  -18.2994  -49.2886 H         1 UNK         0.0800 
    136 H136       -7.8712  -20.0478  -51.7046 H         1 UNK         0.1150 
    137 H137       -5.9742  -23.1282  -49.4126 H         1 UNK         0.1150 
    138 H138       -7.2314  -19.5019  -47.5017 H         1 UNK         0.1150 
    139 H139       -6.8516  -22.1541  -46.3503 H         1 UNK         0.0800 
    140 H140       -5.4275  -22.8034  -47.1372 H         1 UNK         0.0800 
    141 H141       -4.9281  -22.6252  -44.6394 H         1 UNK         0.0800 
    142 H142       -4.5968  -21.1378  -43.7969 H         1 UNK         0.0800 
    143 H143       -2.3649  -21.0108  -45.0447 H         1 UNK         0.0600 
    144 H144       -1.3873  -21.7646  -43.2975 H         1 UNK         0.3000 
    145 H145       -2.2922  -23.8237  -40.5846 H         1 UNK         0.0600 
    146 H146        0.0876  -24.5172  -40.7464 H         1 UNK         0.0600 
    147 H147       -0.8652  -25.3334  -41.9775 H         1 UNK         0.0600 
    148 H148        0.1573  -23.9693  -42.4193 H         1 UNK         0.0600 
    149 H149       -0.4680  -21.6694  -41.6086 H         1 UNK         0.3000 
    150 H150       -1.6649  -19.3786  -39.1901 H         1 UNK         0.0600 
    151 H151        0.1972  -20.4966  -37.9462 H         1 UNK         0.0600 
    152 H152        0.7513  -19.0264  -38.7339 H         1 UNK         0.0600 
    153 H153        1.1399  -20.5991  -39.4295 H         1 UNK         0.0600 
    154 H154        0.3001  -19.1018  -41.2178 H         1 UNK         0.3000 
    155 H155       -1.7027  -18.9077  -44.0613 H         1 UNK         0.0600 
    156 H156       -0.7165  -16.4580  -42.5188 H         1 UNK         0.0600 
    157 H157       -2.2908  -16.6630  -43.2729 H         1 UNK         0.0600 
    158 H158       -0.8523  -16.5339  -44.2737 H         1 UNK         0.0600 
    159 H159        0.9109  -18.0354  -43.8748 H         1 UNK         0.3000 
    160 H160        2.6787  -21.1382  -43.7909 H         1 UNK         0.0600 
    161 H161        3.5241  -20.0634  -45.9062 H         1 UNK         0.0600 
    162 H162        2.0435  -19.1081  -45.9954 H         1 UNK         0.0600 
    163 H163        1.9723  -20.8586  -46.1184 H         1 UNK         0.0600 
    164 H164        3.2421  -18.2604  -43.8978 H         1 UNK         0.3000 
    165 H165        4.0770  -18.0357  -40.4516 H         1 UNK         0.0600 
    166 H166        6.2876  -17.2925  -41.3024 H         1 UNK         0.0600 
    167 H167        6.1624  -19.0419  -41.3905 H         1 UNK         0.0600 
    168 H168        5.9867  -18.0789  -42.8526 H         1 UNK         0.0600 
    169 H169        4.3570  -16.2329  -42.6663 H         1 UNK         0.3000 
    170 H170        1.0694  -14.9408  -42.6775 H         1 UNK         0.0600 
    171 H171        2.0923  -13.7586  -40.7268 H         1 UNK         0.0600 
    172 H172        3.6245  -13.6499  -41.5853 H         1 UNK         0.0600 
    173 H173        2.2037  -12.7985  -42.1927 H         1 UNK         0.0600 
    174 H174        3.3323  -14.0319  -44.0520 H         1 UNK         0.3000 
    175 H175        3.9566  -14.5926  -46.0738 H         1 UNK         0.0600 
    176 H176        3.3317  -17.4419  -47.0055 H         1 UNK         0.0600 
    177 H177        4.5806  -16.3718  -47.6312 H         1 UNK         0.0600 
    178 H178        4.7044  -16.9997  -45.9959 H         1 UNK         0.0600 
    179 H179        1.6065  -15.7745  -47.5098 H         1 UNK         0.3000 
    180 H180        0.4355  -12.4891  -48.3896 H         1 UNK         0.0600 
    181 H181        1.1868  -15.0107  -49.9429 H         1 UNK         0.0600 
    182 H182        1.8070  -13.3979  -50.2618 H         1 UNK         0.0600 
    183 H183        0.0994  -13.7381  -50.4997 H         1 UNK         0.0600 
    184 H184       -0.7962  -15.0753  -48.4618 H         1 UNK         0.3000 
    185 H185       -2.0811  -15.7978  -46.1588 H         1 UNK         0.0600 
    186 H186       -2.7107  -14.1127  -44.4318 H         1 UNK         0.0600 
    187 H187       -3.6417  -13.2132  -45.6265 H         1 UNK         0.0600 
    188 H188       -4.1428  -14.8325  -45.1419 H         1 UNK         0.0600 
    189 H189       -3.0197  -14.2435  -48.4262 H         1 UNK         0.3000 
    190 H190       -2.9119  -24.5066  -44.6982 H         1 UNK         0.3000 
    191 H191       -2.6413  -25.1290  -47.4990 H         1 UNK         0.0600 
    192 H192       -2.4724  -26.9005  -45.0008 H         1 UNK         0.0600 
    193 H193       -2.6694  -27.4790  -46.6513 H         1 UNK         0.0600 
    194 H194       -3.9407  -26.5271  -45.9037 H         1 UNK         0.0600 
    195 H195       -0.2673  -24.2097  -45.2847 H         1 UNK         0.3000 
    196 H196        1.8948  -25.9613  -45.8868 H         1 UNK         0.0600 
    197 H197        1.7801  -23.1269  -44.7423 H         1 UNK         0.0600 
    198 H198        3.2497  -24.0936  -44.8042 H         1 UNK         0.0600 
    199 H199        1.8901  -24.6409  -43.8430 H         1 UNK         0.0600 
    200 H200        0.5578  -23.3562  -47.7769 H         1 UNK         0.3000 
    201 H201        2.4592  -23.8126  -49.8976 H         1 UNK         0.0600 
    202 H202        2.9880  -21.3453  -50.1639 H         1 UNK         0.0600 
    203 H203        3.6768  -21.9975  -48.6870 H         1 UNK         0.0600 
    204 H204        2.2158  -21.0219  -48.6150 H         1 UNK         0.0600 
    205 H205        1.6146  -22.8044  -51.9031 H         1 UNK         0.3000 
    206 H206       -1.1416  -23.2256  -52.2779 H         1 UNK         0.0600 
    207 H207        0.5185  -23.4428  -54.0903 H         1 UNK         0.0600 
    208 H208       -0.6947  -22.2584  -54.5485 H         1 UNK         0.0600 
    209 H209        0.8934  -21.7218  -54.0106 H         1 UNK         0.0600 
    210 H210       -2.6532  -22.0526  -51.2643 H         1 UNK         0.3000 
    211 H211       -3.9158  -20.4323  -50.4308 H         1 UNK         0.0600 
    212 H212       -2.7734  -18.6549  -52.6505 H         1 UNK         0.0600 
    213 H213       -4.2759  -18.3925  -51.7791 H         1 UNK         0.0600 
    214 H214       -4.1163  -19.7675  -52.8522 H         1 UNK         0.0600 
    215 H215       -1.4794  -20.8589  -49.1165 H         1 UNK         0.3000 
    216 H216        0.0071  -20.0824  -47.6729 H         1 UNK         0.0600 
    217 H217       -0.5889  -18.1586  -46.2308 H         1 UNK         0.0600 
    218 H218       -1.9962  -19.1891  -46.4895 H         1 UNK         0.0600 
    219 H219       -1.8397  -17.6747  -47.3655 H         1 UNK         0.0600 
    220 H220        0.5956  -19.7109  -50.2927 H         1 UNK         0.3000 
    221 H221        2.2924  -19.0848  -51.5155 H         1 UNK         0.0600 
    222 H222        3.0994  -16.8995  -49.5430 H         1 UNK         0.0600 
    223 H223        3.6179  -18.5828  -49.4126 H         1 UNK         0.0600 
    224 H224        4.0835  -17.6176  -50.8040 H         1 UNK         0.0600 
    225 H225       -0.4737  -17.4703  -51.1683 H         1 UNK         0.3000 
    226 H226        0.0739  -15.1310  -52.8195 H         1 UNK         0.0600 
    227 H227       -2.6128  -16.4271  -52.1551 H         1 UNK         0.0600 
    228 H228       -1.8092  -15.2165  -51.1603 H         1 UNK         0.0600 
    229 H229       -2.3414  -14.8133  -52.7839 H         1 UNK         0.0600 
    230 H230       -0.3308  -18.4916  -53.4509 H         1 UNK         0.3000 
    231 H231       -0.2547  -19.7506  -55.2349 H         1 UNK         0.0600 
    232 H232        1.6850  -18.2996  -55.8456 H         1 UNK         0.0600 
    233 H233        0.6208  -17.2815  -56.8151 H         1 UNK         0.0600 
    234 H234        0.8844  -18.9613  -57.2609 H         1 UNK         0.0600 
    235 H235       -2.7714  -18.8396  -54.5461 H         1 UNK         0.3000 
    236 H236       -4.2835  -18.7157  -57.1115 H         1 UNK         0.0600 
    237 H237       -4.8421  -17.0252  -55.3294 H         1 UNK         0.0600 
    238 H238       -6.1938  -18.0548  -55.7478 H         1 UNK         0.0600 
    239 H239       -5.3115  -18.3298  -54.2489 H         1 UNK         0.0600 
    240 H240       -6.4722  -20.0175  -55.3157 H         1 UNK         0.3000 
    241 H241       -7.4313  -21.9502  -54.9786 H         1 UNK         0.0600 
    242 H242       -6.5638  -21.1627  -57.9054 H         1 UNK         0.3800 
    243 H243       -7.0141  -22.6088  -58.7694 H         1 UNK         0.3800 
    244 H244       -6.2624  -23.9820  -54.2592 H         1 UNK         0.0800 
    245 H245       -4.7481  -23.3960  -54.8849 H         1 UNK         0.0800 
    246 H246       -7.7088  -22.3388  -52.5761 H         1 UNK         0.0800 
    247 H247       -6.9543  -23.6146  -51.6508 H         1 UNK         0.0800 
@<TRIPOS>BOND
     1    1    2 1    
     2    1  127 1    
     3    1  128 1    
     4    1  129 1    
     5    2    3 2    
     6    2    4 am   BACKBONE|DICT|INTERRES
     7    4    5 1    
     8    4  130 1    
     9    5    6 1    
    10    5   65 1    
    11    5  131 1    
    12    6    7 1    
    13    6  132 1    
    14    6  133 1    
    15    7    8 1    
    16    8    9 1    
    17    8  134 1    
    18    8  135 1    
    19    9   10 ar   
    20    9   14 ar   
    21   10   11 ar   
    22   10  136 1    
    23   11   12 ar   
    24   11  126 1    
    25   12   13 ar   
    26   12  137 1    
    27   13   14 ar   
    28   13   15 1    
    29   14  138 1    
    30   15   16 1    
    31   15  139 1    
    32   15  140 1    
    33   16   17 1    
    34   17   18 1    
    35   17  141 1    
    36   17  142 1    
    37   18   19 1    
    38   18   67 1    
    39   18  143 1    
    40   19   20 am   BACKBONE|DICT|INTERRES
    41   19  144 1    
    42   20   21 2    
    43   20   22 1    
    44   22   23 1    
    45   22   24 1    
    46   22  145 1    
    47   23  146 1    
    48   23  147 1    
    49   23  148 1    
    50   24   25 am   BACKBONE|DICT|INTERRES
    51   24  149 1    
    52   25   26 2    
    53   25   27 1    
    54   27   28 1    
    55   27   29 1    
    56   27  150 1    
    57   28  151 1    
    58   28  152 1    
    59   28  153 1    
    60   29   30 am   BACKBONE|DICT|INTERRES
    61   29  154 1    
    62   30   31 2    
    63   30   32 1    
    64   32   33 1    
    65   32   34 1    
    66   32  155 1    
    67   33  156 1    
    68   33  157 1    
    69   33  158 1    
    70   34   35 am   BACKBONE|DICT|INTERRES
    71   34  159 1    
    72   35   36 2    
    73   35   37 1    
    74   37   38 1    
    75   37   39 1    
    76   37  160 1    
    77   38  161 1    
    78   38  162 1    
    79   38  163 1    
    80   39   40 am   BACKBONE|DICT|INTERRES
    81   39  164 1    
    82   40   41 2    
    83   40   42 1    
    84   42   43 1    
    85   42   44 1    
    86   42  165 1    
    87   43  166 1    
    88   43  167 1    
    89   43  168 1    
    90   44   45 am   BACKBONE|DICT|INTERRES
    91   44  169 1    
    92   45   46 2    
    93   45   47 1    
    94   47   48 1    
    95   47   49 1    
    96   47  170 1    
    97   48  171 1    
    98   48  172 1    
    99   48  173 1    
   100   49   50 am   BACKBONE|DICT|INTERRES
   101   49  174 1    
   102   50   51 2    
   103   50   52 1    
   104   52   53 1    
   105   52   54 1    
   106   52  175 1    
   107   53  176 1    
   108   53  177 1    
   109   53  178 1    
   110   54   55 am   BACKBONE|DICT|INTERRES
   111   54  179 1    
   112   55   56 2    
   113   55   57 1    
   114   57   58 1    
   115   57   59 1    
   116   57  180 1    
   117   58  181 1    
   118   58  182 1    
   119   58  183 1    
   120   59   60 am   BACKBONE|DICT|INTERRES
   121   59  184 1    
   122   60   61 2    
   123   60   62 1    
   124   62   63 1    
   125   62   64 1    
   126   62  185 1    
   127   63  186 1    
   128   63  187 1    
   129   63  188 1    
   130   64   65 am   BACKBONE|DICT|INTERRES
   131   64  189 1    
   132   65   66 2    
   133   67   68 2    
   134   67   69 am   BACKBONE|DICT|INTERRES
   135   69   70 1    
   136   69  190 1    
   137   70   71 1    
   138   70   72 1    
   139   70  191 1    
   140   71  192 1    
   141   71  193 1    
   142   71  194 1    
   143   72   73 2    
   144   72   74 am   BACKBONE|DICT|INTERRES
   145   74   75 1    
   146   74  195 1    
   147   75   76 1    
   148   75   77 1    
   149   75  196 1    
   150   76  197 1    
   151   76  198 1    
   152   76  199 1    
   153   77   78 2    
   154   77   79 am   BACKBONE|DICT|INTERRES
   155   79   80 1    
   156   79  200 1    
   157   80   81 1    
   158   80   82 1    
   159   80  201 1    
   160   81  202 1    
   161   81  203 1    
   162   81  204 1    
   163   82   83 2    
   164   82   84 am   BACKBONE|DICT|INTERRES
   165   84   85 1    
   166   84  205 1    
   167   85   86 1    
   168   85   87 1    
   169   85  206 1    
   170   86  207 1    
   171   86  208 1    
   172   86  209 1    
   173   87   88 2    
   174   87   89 am   BACKBONE|DICT|INTERRES
   175   89   90 1    
   176   89  210 1    
   177   90   91 1    
   178   90   92 1    
   179   90  211 1    
   180   91  212 1    
   181   91  213 1    
   182   91  214 1    
   183   92   93 2    
   184   92   94 am   BACKBONE|DICT|INTERRES
   185   94   95 1    
   186   94  215 1    
   187   95   96 1    
   188   95   97 1    
   189   95  216 1    
   190   96  217 1    
   191   96  218 1    
   192   96  219 1    
   193   97   98 2    
   194   97   99 am   BACKBONE|DICT|INTERRES
   195   99  100 1    
   196   99  220 1    
   197  100  101 1    
   198  100  102 1    
   199  100  221 1    
   200  101  222 1    
   201  101  223 1    
   202  101  224 1    
   203  102  103 2    
   204  102  104 am   BACKBONE|DICT|INTERRES
   205  104  105 1    
   206  104  225 1    
   207  105  106 1    
   208  105  107 1    
   209  105  226 1    
   210  106  227 1    
   211  106  228 1    
   212  106  229 1    
   213  107  108 2    
   214  107  109 am   BACKBONE|DICT|INTERRES
   215  109  110 1    
   216  109  230 1    
   217  110  111 1    
   218  110  112 1    
   219  110  231 1    
   220  111  232 1    
   221  111  233 1    
   222  111  234 1    
   223  112  113 2    
   224  112  114 am   BACKBONE|DICT|INTERRES
   225  114  115 1    
   226  114  235 1    
   227  115  116 1    
   228  115  117 1    
   229  115  236 1    
   230  116  237 1    
   231  116  238 1    
   232  116  239 1    
   233  117  118 2    
   234  117  119 am   BACKBONE|DICT|INTERRES
   235  119  120 1    
   236  119  240 1    
   237  120  121 1    
   238  120  124 1    
   239  120  241 1    
   240  121  122 am   BACKBONE|DICT|INTERRES
   241  121  123 2    
   242  122  242 1    
   243  122  243 1    
   244  124  125 1    
   245  124  244 1    
   246  124  245 1    
   247  125  126 1    
   248  126  246 1    
   249  126  247 1    
@<TRIPOS>SUBSTRUCTURE
     1 UNK         1 GROUP             0       ****    0 ROOT    
