@<TRIPOS>MOLECULE
3R540
247   249    1
SMALL
USER_CHARGES


@<TRIPOS>ATOM
      1 CA          4.3947  -10.6822  -47.2026 C.3       0 UNK        -0.1800 
      2 C           3.4322  -11.8601  -47.2121 C.2       0 UNK         0.5000 
      3 O           3.3345  -12.5773  -46.2165 O.2       0 UNK        -0.5000 
      4 N           2.7107  -12.0549  -48.3245 N.am      1 UNK        -0.5000 
      5 CA          1.7505  -13.1476  -48.5351 C.3       1 UNK         0.1400 
      6 C6          1.1511  -13.1401  -49.9608 C.3       23 UNK        -0.0398 
      7 S7          2.4045  -13.3214  -51.2763 S.3       23 UNK        -0.2404 
      8 C8          2.6679  -15.1263  -51.3316 C.3       23 UNK        -0.0205 
      9 C9          1.3775  -15.9095  -51.5313 C.ar      23 UNK        -0.0193 
     10 C10         0.6765  -15.8262  -52.7368 C.ar      23 UNK        -0.1150 
     11 C11        -0.5204  -16.5261  -52.9080 C.ar      23 UNK        -0.0193 
     12 C12        -1.0057  -17.3293  -51.8714 C.ar      23 UNK        -0.1150 
     13 C13        -0.3178  -17.4183  -50.6541 C.ar      23 UNK        -0.0193 
     14 C14         0.8759  -16.7071  -50.4990 C.ar      23 UNK        -0.1150 
     15 C15        -0.7986  -18.2746  -49.4836 C.3       23 UNK        -0.0205 
     16 S16        -2.5412  -18.8147  -49.5445 S.3       23 UNK        -0.2404 
     17 C17        -2.8358  -19.4264  -47.8496 C.3       23 UNK        -0.0398 
     18 CA         -2.0686  -20.7284  -47.5039 C.3       11 UNK         0.1400 
     19 N          -0.6562  -20.4700  -47.2109 N.am      11 UNK        -0.5000 
     20 C           0.2932  -21.3988  -47.0442 C.2       10 UNK         0.5000 
     21 O           0.0742  -22.6086  -47.0779 O.2       10 UNK        -0.5000 
     22 CA          1.7224  -20.9020  -46.7413 C.3       10 UNK         0.1400 
     23 CB          1.9305  -19.3916  -46.9917 C.3       10 UNK        -0.1800 
     24 N           2.1575  -21.2349  -45.3811 N.am      10 UNK        -0.5000 
     25 C           1.4985  -20.9883  -44.2400 C.2       9 UNK         0.5000 
     26 O           0.3489  -20.5425  -44.1900 O.2       9 UNK        -0.5000 
     27 CA          2.2605  -21.3013  -42.9437 C.3       9 UNK         0.1400 
     28 CB          3.4925  -20.3900  -42.7832 C.3       9 UNK        -0.1800 
     29 N           1.3723  -21.1052  -41.8064 N.am      9 UNK        -0.5000 
     30 C           1.4571  -21.7099  -40.6191 C.2       8 UNK         0.5000 
     31 O           2.2996  -22.5695  -40.3536 O.2       8 UNK        -0.5000 
     32 CA          0.4574  -21.2338  -39.5411 C.3       8 UNK         0.1400 
     33 CB          0.6019  -21.9991  -38.2132 C.3       8 UNK        -0.1800 
     34 N           0.6101  -19.7995  -39.2775 N.am      8 UNK        -0.5000 
     35 C           0.1207  -18.8248  -40.0535 C.2       7 UNK         0.5000 
     36 O          -0.5847  -19.0478  -41.0389 O.2       7 UNK        -0.5000 
     37 CA          0.5303  -17.3835  -39.6884 C.3       7 UNK         0.1400 
     38 CB          2.0260  -17.1550  -39.9661 C.3       7 UNK        -0.1800 
     39 N          -0.2341  -16.3980  -40.4492 N.am      7 UNK        -0.5000 
     40 C          -1.5174  -16.0850  -40.2319 C.2       6 UNK         0.5000 
     41 O          -2.1653  -16.4816  -39.2616 O.2       6 UNK        -0.5000 
     42 CA         -2.1943  -15.1847  -41.2819 C.3       6 UNK         0.1400 
     43 CB         -2.0108  -13.7022  -40.9234 C.3       6 UNK        -0.1800 
     44 N          -1.6935  -15.4327  -42.6365 N.am      6 UNK        -0.5000 
     45 C          -1.9972  -16.5171  -43.3655 C.2       5 UNK         0.5000 
     46 O          -2.8114  -17.3689  -43.0090 O.2       5 UNK        -0.5000 
     47 CA         -1.3024  -16.6741  -44.7326 C.3       5 UNK         0.1400 
     48 CB         -2.1755  -16.0733  -45.8452 C.3       5 UNK        -0.1800 
     49 N           0.0278  -16.0670  -44.7910 N.am      5 UNK        -0.5000 
     50 C           1.1105  -16.5373  -44.1554 C.2       4 UNK         0.5000 
     51 O           1.1158  -17.5536  -43.4667 O.2       4 UNK        -0.5000 
     52 CA          2.4026  -15.7103  -44.2783 C.3       4 UNK         0.1400 
     53 CB          3.1090  -15.9863  -45.6140 C.3       4 UNK        -0.1800 
     54 N           2.1655  -14.2746  -44.1349 N.am      4 UNK        -0.5000 
     55 C           1.6905  -13.6898  -43.0261 C.2       3 UNK         0.5000 
     56 O           1.4316  -14.2967  -41.9868 O.2       3 UNK        -0.5000 
     57 CA          1.4101  -12.1803  -43.1126 C.3       3 UNK         0.1400 
     58 CB          2.6984  -11.3660  -42.9203 C.3       3 UNK        -0.1800 
     59 N           0.7811  -11.8177  -44.3825 N.am      3 UNK        -0.5000 
     60 C          -0.4733  -12.1466  -44.7219 C.2       2 UNK         0.5000 
     61 O          -1.2433  -12.7582  -43.9835 O.2       2 UNK        -0.5000 
     62 CA         -0.9312  -11.7619  -46.1393 C.3       2 UNK         0.1400 
     63 CB         -1.4119  -10.3037  -46.1784 C.3       2 UNK        -0.1800 
     64 N           0.1167  -11.9559  -47.1416 N.am      2 UNK        -0.5000 
     65 C           0.6128  -13.1504  -47.4951 C.2       1 UNK         0.5000 
     66 O           0.2321  -14.2182  -47.0168 O.2       1 UNK        -0.5000 
     67 C          -2.7831  -21.4937  -46.3710 C.2       11 UNK         0.5000 
     68 O          -3.6915  -22.2690  -46.6696 O.2       11 UNK        -0.5000 
     69 N          -2.3650  -21.2988  -45.1114 N.am      12 UNK        -0.5000 
     70 CA         -2.9239  -22.0114  -43.9608 C.3       12 UNK         0.1400 
     71 CB         -2.5817  -21.2627  -42.6647 C.3       12 UNK        -0.1800 
     72 C          -2.4279  -23.4656  -43.8941 C.2       12 UNK         0.5000 
     73 O          -3.2006  -24.3547  -43.5374 O.2       12 UNK        -0.5000 
     74 N          -1.1595  -23.6841  -44.2677 N.am      13 UNK        -0.5000 
     75 CA         -0.5359  -25.0058  -44.3432 C.3       13 UNK         0.1400 
     76 CB          0.9919  -24.8493  -44.3647 C.3       13 UNK        -0.1800 
     77 C          -1.0273  -25.8041  -45.5637 C.2       13 UNK         0.5000 
     78 O          -1.2810  -27.0034  -45.4489 O.2       13 UNK        -0.5000 
     79 N          -1.1769  -25.1149  -46.7024 N.am      14 UNK        -0.5000 
     80 CA         -1.6741  -25.6638  -47.9638 C.3       14 UNK         0.1400 
     81 CB         -1.2608  -24.7177  -49.1033 C.3       14 UNK        -0.1800 
     82 C          -3.1993  -25.8852  -47.9850 C.2       14 UNK         0.5000 
     83 O          -3.6904  -26.5301  -48.9099 O.2       14 UNK        -0.5000 
     84 N          -3.9238  -25.3235  -47.0050 N.am      15 UNK        -0.5000 
     85 CA         -5.3864  -25.3174  -46.8771 C.3       15 UNK         0.1400 
     86 CB         -5.9202  -26.7366  -46.5924 C.3       15 UNK        -0.1800 
     87 C          -6.0627  -24.6390  -48.0877 C.2       15 UNK         0.5000 
     88 O          -6.9642  -25.2065  -48.7062 O.2       15 UNK        -0.5000 
     89 N          -5.5615  -23.4402  -48.4161 N.am      16 UNK        -0.5000 
     90 CA         -5.9423  -22.5569  -49.5242 C.3       16 UNK         0.1400 
     91 CB         -7.4292  -22.1580  -49.4444 C.3       16 UNK        -0.1800 
     92 C          -5.5553  -23.0626  -50.9303 C.2       16 UNK         0.5000 
     93 O          -5.8320  -22.3650  -51.9075 O.2       16 UNK        -0.5000 
     94 N          -4.8728  -24.2139  -51.0377 N.am      17 UNK        -0.5000 
     95 CA         -4.3948  -24.7602  -52.3137 C.3       17 UNK         0.1400 
     96 CB         -3.8910  -26.1967  -52.1204 C.3       17 UNK        -0.1800 
     97 C          -3.3139  -23.8866  -52.9805 C.2       17 UNK         0.5000 
     98 O          -3.2088  -23.8853  -54.2059 O.2       17 UNK        -0.5000 
     99 N          -2.5641  -23.1226  -52.1726 N.am      18 UNK        -0.5000 
    100 CA        -1.6120  -22.1149  -52.6391 C.3       18 UNK         0.1400 
    101 CB        -0.7587  -21.6262  -51.4594 C.3       18 UNK        -0.1800 
    102 C         -2.3131  -20.9414  -53.3493 C.2       18 UNK         0.5000 
    103 O         -1.8681  -20.5318  -54.4185 O.2       18 UNK        -0.5000 
    104 N         -3.4340  -20.4659  -52.7867 N.am      19 UNK        -0.5000 
    105 CA        -4.2775  -19.4322  -53.3922 C.3       19 UNK         0.1400 
    106 CB        -5.2957  -18.9169  -52.3644 C.3       19 UNK        -0.1800 
    107 C         -4.9830  -19.9254  -54.6682 C.2       19 UNK         0.5000 
    108 O         -5.0994  -19.1656  -55.6309 O.2       19 UNK        -0.5000 
    109 N         -5.3939  -21.2016  -54.6766 N.am      20 UNK        -0.5000 
    110 CA        -5.9467  -21.8792  -55.8513 C.3       20 UNK         0.1400 
    111 CB        -6.5120  -23.2471  -55.4421 C.3       20 UNK        -0.1800 
    112 C         -4.9219  -22.0256  -56.9951 C.2       20 UNK         0.5000 
    113 O         -5.3061  -21.9338  -58.1613 O.2       20 UNK        -0.5000 
    114 N         -3.6413  -22.2217  -56.6467 N.am      21 UNK        -0.5000 
    115 CA        -2.5205  -22.2452  -57.5869 C.3       21 UNK         0.1400 
    116 CB        -1.2872  -22.8737  -56.9200 C.3       21 UNK        -0.1800 
    117 C         -2.1979  -20.8509  -58.1591 C.2       21 UNK         0.5000 
    118 O         -1.8695  -20.7560  -59.3429 O.2       21 UNK        -0.5000 
    119 N         -2.3181  -19.7982  -57.3351 N.am      22 UNK        -0.5000 
    120 CA        -2.2492  -18.3933  -57.7782 C.3       22 UNK         0.1400 
    121 C         -3.4103  -18.0127  -58.7397 C.2       22 UNK         0.5000 
    122 N         -4.6509  -18.3481  -58.4066 N.am      22 UNK        -0.7600 
    123 O         -3.1849  -17.4083  -59.7847 O.2       22 UNK        -0.5000 
    124 C124       -2.2127  -17.3807  -56.6055 C.3       23 UNK        -0.0398 
    125 S125       -0.8251  -17.6021  -55.4480 S.3       23 UNK        -0.2404 
    126 C126       -1.3161  -16.3805  -54.1938 C.3       23 UNK        -0.0205 
    127 H127        4.3637  -10.1252  -48.1392 H         1 UNK         0.0600 
    128 H128        5.4146  -11.0345  -47.0488 H         1 UNK         0.0600 
    129 H129        4.1427   -9.9997  -46.3910 H         1 UNK         0.0600 
    130 H130        2.8484  -11.4411  -49.1151 H         1 UNK         0.3000 
    131 H131        2.2979  -14.0831  -48.4040 H         1 UNK         0.0600 
    132 H132        0.6243  -12.2013  -50.1404 H         1 UNK         0.0800 
    133 H133        0.3959  -13.9192  -50.0712 H         1 UNK         0.0800 
    134 H134        3.1720  -15.4381  -50.4156 H         1 UNK         0.0800 
    135 H135        3.3538  -15.3567  -52.1480 H         1 UNK         0.0800 
    136 H136        1.0538  -15.2008  -53.5340 H         1 UNK         0.1150 
    137 H137       -1.9257  -17.8742  -52.0211 H         1 UNK         0.1150 
    138 H138        1.4151  -16.7697  -49.5638 H         1 UNK         0.1150 
    139 H139       -0.1683  -19.1624  -49.4606 H         1 UNK         0.0800 
    140 H140       -0.6342  -17.7290  -48.5533 H         1 UNK         0.0800 
    141 H141       -3.9143  -19.5843  -47.7808 H         1 UNK         0.0800 
    142 H142       -2.6095  -18.6380  -47.1319 H         1 UNK         0.0800 
    143 H143       -2.1037  -21.3848  -48.3749 H         1 UNK         0.0600 
    144 H144       -0.3911  -19.5047  -47.0940 H         1 UNK         0.3000 
    145 H145        2.3805  -21.4442  -47.4217 H         1 UNK         0.0600 
    146 H146        1.6945  -19.1214  -48.0205 H         1 UNK         0.0600 
    147 H147        1.3249  -18.7736  -46.3276 H         1 UNK         0.0600 
    148 H148        2.9732  -19.1194  -46.8302 H         1 UNK         0.0600 
    149 H149        3.0765  -21.6491  -45.3180 H         1 UNK         0.3000 
    150 H150        2.5796  -22.3442  -42.9834 H         1 UNK         0.0600 
    151 H151        4.1981  -20.5225  -43.6037 H         1 UNK         0.0600 
    152 H152        4.0295  -20.6093  -41.8603 H         1 UNK         0.0600 
    153 H153        3.2080  -19.3370  -42.7604 H         1 UNK         0.0600 
    154 H154        0.6377  -20.4170  -41.9595 H         1 UNK         0.3000 
    155 H155       -0.5478  -21.4242  -39.9235 H         1 UNK         0.0600 
    156 H156        1.5860  -21.8517  -37.7666 H         1 UNK         0.0600 
    157 H157        0.4647  -23.0708  -38.3627 H         1 UNK         0.0600 
    158 H158       -0.1465  -21.6759  -37.4893 H         1 UNK         0.0600 
    159 H159        1.2090  -19.5523  -38.5030 H         1 UNK         0.3000 
    160 H160        0.3410  -17.2300  -38.6241 H         1 UNK         0.0600 
    161 H161        2.2717  -17.3342  -41.0134 H         1 UNK         0.0600 
    162 H162        2.6484  -17.8192  -39.3658 H         1 UNK         0.0600 
    163 H163        2.3195  -16.1327  -39.7265 H         1 UNK         0.0600 
    164 H164        0.2179  -16.0201  -41.2724 H         1 UNK         0.3000 
    165 H165       -3.2640  -15.4036  -41.2647 H         1 UNK         0.0600 
    166 H166       -2.5676  -13.0604  -41.6061 H         1 UNK         0.0600 
    167 H167       -2.3746  -13.4957  -39.9162 H         1 UNK         0.0600 
    168 H168       -0.9629  -13.4042  -40.9615 H         1 UNK         0.0600 
    169 H169       -1.0787  -14.7322  -43.0317 H         1 UNK         0.3000 
    170 H170       -1.1927  -17.7443  -44.9222 H         1 UNK         0.0600 
    171 H171       -3.1718  -16.5169  -45.8464 H         1 UNK         0.0600 
    172 H172       -2.2958  -14.9964  -45.7197 H         1 UNK         0.0600 
    173 H173       -1.7393  -16.2462  -46.8290 H         1 UNK         0.0600 
    174 H174        0.1258  -15.2507  -45.3886 H         1 UNK         0.3000 
    175 H175        3.0720  -16.0159  -43.4713 H         1 UNK         0.0600 
    176 H176        2.4749  -15.7422  -46.4665 H         1 UNK         0.0600 
    177 H177        4.0272  -15.4054  -45.7029 H         1 UNK         0.0600 
    178 H178        3.3821  -17.0381  -45.6954 H         1 UNK         0.0600 
    179 H179        2.3949  -13.6906  -44.9345 H         1 UNK         0.3000 
    180 H180        0.7230  -11.9209  -42.3043 H         1 UNK         0.0600 
    181 H181        2.4924  -10.2956  -42.9256 H         1 UNK         0.0600 
    182 H182        3.4299  -11.5705  -43.7025 H         1 UNK         0.0600 
    183 H183        3.1675  -11.6018  -41.9642 H         1 UNK         0.0600 
    184 H184        1.3673  -11.3647  -45.0679 H         1 UNK         0.3000 
    185 H185       -1.7734  -12.4059  -46.4017 H         1 UNK         0.0600 
    186 H186       -1.8122  -10.0467  -47.1593 H         1 UNK         0.0600 
    187 H187       -2.2066  -10.1358  -45.4502 H         1 UNK         0.0600 
    188 H188       -0.6053   -9.6056  -45.9509 H         1 UNK         0.0600 
    189 H189        0.4986  -11.1261  -47.5713 H         1 UNK         0.3000 
    190 H190       -1.5591  -20.7083  -44.9301 H         1 UNK         0.3000 
    191 H191       -4.0116  -22.0301  -44.0586 H         1 UNK         0.0600 
    192 H192       -3.0708  -21.7251  -41.8067 H         1 UNK         0.0600 
    193 H193       -2.9104  -20.2241  -42.7066 H         1 UNK         0.0600 
    194 H194       -1.5105  -21.2642  -42.4668 H         1 UNK         0.0600 
    195 H195       -0.6121  -22.8974  -44.5865 H         1 UNK         0.3000 
    196 H196       -0.8044  -25.5686  -43.4465 H         1 UNK         0.0600 
    197 H197        1.3274  -24.2501  -45.2118 H         1 UNK         0.0600 
    198 H198        1.3481  -24.3740  -43.4511 H         1 UNK         0.0600 
    199 H199        1.4824  -25.8209  -44.4354 H         1 UNK         0.0600 
    200 H200       -0.8650  -24.1463  -46.7294 H         1 UNK         0.3000 
    201 H201       -1.1985  -26.6321  -48.1321 H         1 UNK         0.0600 
    202 H202       -0.1820  -24.5611  -49.1143 H         1 UNK         0.0600 
    203 H203       -1.7385  -23.7424  -49.0075 H         1 UNK         0.0600 
    204 H204       -1.5333  -25.1268  -50.0754 H         1 UNK         0.0600 
    205 H205       -3.4255  -24.7782  -46.3158 H         1 UNK         0.3000 
    206 H206       -5.6165  -24.6985  -46.0085 H         1 UNK         0.0600 
    207 H207       -5.4319  -27.1720  -45.7206 H         1 UNK         0.0600 
    208 H208       -6.9912  -26.7154  -46.3883 H         1 UNK         0.0600 
    209 H209       -5.7624  -27.4094  -47.4358 H         1 UNK         0.0600 
    210 H210       -4.8269  -23.0724  -47.8120 H         1 UNK         0.3000 
    211 H211       -5.3595  -21.6467  -49.3753 H         1 UNK         0.0600 
    212 H212       -7.6623  -21.3745  -50.1665 H         1 UNK         0.0600 
    213 H213       -7.6819  -21.7720  -48.4569 H         1 UNK         0.0600 
    214 H214       -8.0890  -22.9993  -49.6568 H         1 UNK         0.0600 
    215 H215       -4.7006  -24.7660  -50.2080 H         1 UNK         0.3000 
    216 H216       -5.2492  -24.7995  -52.9914 H         1 UNK         0.0600 
    217 H217       -3.0001  -26.2348  -51.4951 H         1 UNK         0.0600 
    218 H218       -3.6339  -26.6492  -53.0789 H         1 UNK         0.0600 
    219 H219       -4.6531  -26.8249  -51.6587 H         1 UNK         0.0600 
    220 H220       -2.7138  -23.1898  -51.1784 H         1 UNK         0.3000 
    221 H221       -0.9455  -22.5870  -53.3643 H         1 UNK         0.0600 
    222 H222       -0.1503  -22.4338  -51.0520 H         1 UNK         0.0600 
    223 H223       -1.3760  -21.2363  -50.6528 H         1 UNK         0.0600 
    224 H224       -0.0797  -20.8302  -51.7686 H         1 UNK         0.0600 
    225 H225       -3.7719  -20.8829  -51.9332 H         1 UNK         0.3000 
    226 H226       -3.6346  -18.5974  -53.6770 H         1 UNK         0.0600 
    227 H227       -5.9569  -19.7089  -52.0130 H         1 UNK         0.0600 
    228 H228       -4.7977  -18.4851  -51.4971 H         1 UNK         0.0600 
    229 H229       -5.9226  -18.1363  -52.7972 H         1 UNK         0.0600 
    230 H230       -5.3191  -21.7407  -53.8210 H         1 UNK         0.3000 
    231 H231       -6.7738  -21.2706  -56.2228 H         1 UNK         0.0600 
    232 H232       -5.7231  -23.9361  -55.1438 H         1 UNK         0.0600 
    233 H233       -7.0467  -23.7080  -56.2734 H         1 UNK         0.0600 
    234 H234       -7.2135  -23.1563  -54.6124 H         1 UNK         0.0600 
    235 H235       -3.4173  -22.3583  -55.6682 H         1 UNK         0.3000 
    236 H236       -2.8029  -22.8861  -58.4249 H         1 UNK         0.0600 
    237 H237       -0.9292  -22.2792  -56.0807 H         1 UNK         0.0600 
    238 H238       -1.5064  -23.8757  -56.5507 H         1 UNK         0.0600 
    239 H239       -0.4648  -22.9613  -57.6309 H         1 UNK         0.0600 
    240 H240       -2.5088  -19.9600  -56.3530 H         1 UNK         0.3000 
    241 H241       -1.3182  -18.2788  -58.3369 H         1 UNK         0.0600 
    242 H242       -5.4140  -18.1133  -59.0208 H         1 UNK         0.3800 
    243 H243       -4.8410  -18.7861  -57.5094 H         1 UNK         0.3800 
    244 H244       -3.1428  -17.4322  -56.0385 H         1 UNK         0.0800 
    245 H245       -2.1512  -16.3618  -56.9930 H         1 UNK         0.0800 
    246 H246       -1.1872  -15.3767  -54.6017 H         1 UNK         0.0800 
    247 H247       -2.3794  -16.4838  -53.9735 H         1 UNK         0.0800 
@<TRIPOS>BOND
     1    1    2 1    
     2    1  127 1    
     3    1  128 1    
     4    1  129 1    
     5    2    3 2    
     6    2    4 am   BACKBONE|DICT|INTERRES
     7    4    5 1    
     8    4  130 1    
     9    5    6 1    
    10    5   65 1    
    11    5  131 1    
    12    6    7 1    
    13    6  132 1    
    14    6  133 1    
    15    7    8 1    
    16    8    9 1    
    17    8  134 1    
    18    8  135 1    
    19    9   10 ar   
    20    9   14 ar   
    21   10   11 ar   
    22   10  136 1    
    23   11   12 ar   
    24   11  126 1    
    25   12   13 ar   
    26   12  137 1    
    27   13   14 ar   
    28   13   15 1    
    29   14  138 1    
    30   15   16 1    
    31   15  139 1    
    32   15  140 1    
    33   16   17 1    
    34   17   18 1    
    35   17  141 1    
    36   17  142 1    
    37   18   19 1    
    38   18   67 1    
    39   18  143 1    
    40   19   20 am   BACKBONE|DICT|INTERRES
    41   19  144 1    
    42   20   21 2    
    43   20   22 1    
    44   22   23 1    
    45   22   24 1    
    46   22  145 1    
    47   23  146 1    
    48   23  147 1    
    49   23  148 1    
    50   24   25 am   BACKBONE|DICT|INTERRES
    51   24  149 1    
    52   25   26 2    
    53   25   27 1    
    54   27   28 1    
    55   27   29 1    
    56   27  150 1    
    57   28  151 1    
    58   28  152 1    
    59   28  153 1    
    60   29   30 am   BACKBONE|DICT|INTERRES
    61   29  154 1    
    62   30   31 2    
    63   30   32 1    
    64   32   33 1    
    65   32   34 1    
    66   32  155 1    
    67   33  156 1    
    68   33  157 1    
    69   33  158 1    
    70   34   35 am   BACKBONE|DICT|INTERRES
    71   34  159 1    
    72   35   36 2    
    73   35   37 1    
    74   37   38 1    
    75   37   39 1    
    76   37  160 1    
    77   38  161 1    
    78   38  162 1    
    79   38  163 1    
    80   39   40 am   BACKBONE|DICT|INTERRES
    81   39  164 1    
    82   40   41 2    
    83   40   42 1    
    84   42   43 1    
    85   42   44 1    
    86   42  165 1    
    87   43  166 1    
    88   43  167 1    
    89   43  168 1    
    90   44   45 am   BACKBONE|DICT|INTERRES
    91   44  169 1    
    92   45   46 2    
    93   45   47 1    
    94   47   48 1    
    95   47   49 1    
    96   47  170 1    
    97   48  171 1    
    98   48  172 1    
    99   48  173 1    
   100   49   50 am   BACKBONE|DICT|INTERRES
   101   49  174 1    
   102   50   51 2    
   103   50   52 1    
   104   52   53 1    
   105   52   54 1    
   106   52  175 1    
   107   53  176 1    
   108   53  177 1    
   109   53  178 1    
   110   54   55 am   BACKBONE|DICT|INTERRES
   111   54  179 1    
   112   55   56 2    
   113   55   57 1    
   114   57   58 1    
   115   57   59 1    
   116   57  180 1    
   117   58  181 1    
   118   58  182 1    
   119   58  183 1    
   120   59   60 am   BACKBONE|DICT|INTERRES
   121   59  184 1    
   122   60   61 2    
   123   60   62 1    
   124   62   63 1    
   125   62   64 1    
   126   62  185 1    
   127   63  186 1    
   128   63  187 1    
   129   63  188 1    
   130   64   65 am   BACKBONE|DICT|INTERRES
   131   64  189 1    
   132   65   66 2    
   133   67   68 2    
   134   67   69 am   BACKBONE|DICT|INTERRES
   135   69   70 1    
   136   69  190 1    
   137   70   71 1    
   138   70   72 1    
   139   70  191 1    
   140   71  192 1    
   141   71  193 1    
   142   71  194 1    
   143   72   73 2    
   144   72   74 am   BACKBONE|DICT|INTERRES
   145   74   75 1    
   146   74  195 1    
   147   75   76 1    
   148   75   77 1    
   149   75  196 1    
   150   76  197 1    
   151   76  198 1    
   152   76  199 1    
   153   77   78 2    
   154   77   79 am   BACKBONE|DICT|INTERRES
   155   79   80 1    
   156   79  200 1    
   157   80   81 1    
   158   80   82 1    
   159   80  201 1    
   160   81  202 1    
   161   81  203 1    
   162   81  204 1    
   163   82   83 2    
   164   82   84 am   BACKBONE|DICT|INTERRES
   165   84   85 1    
   166   84  205 1    
   167   85   86 1    
   168   85   87 1    
   169   85  206 1    
   170   86  207 1    
   171   86  208 1    
   172   86  209 1    
   173   87   88 2    
   174   87   89 am   BACKBONE|DICT|INTERRES
   175   89   90 1    
   176   89  210 1    
   177   90   91 1    
   178   90   92 1    
   179   90  211 1    
   180   91  212 1    
   181   91  213 1    
   182   91  214 1    
   183   92   93 2    
   184   92   94 am   BACKBONE|DICT|INTERRES
   185   94   95 1    
   186   94  215 1    
   187   95   96 1    
   188   95   97 1    
   189   95  216 1    
   190   96  217 1    
   191   96  218 1    
   192   96  219 1    
   193   97   98 2    
   194   97   99 am   BACKBONE|DICT|INTERRES
   195   99  100 1    
   196   99  220 1    
   197  100  101 1    
   198  100  102 1    
   199  100  221 1    
   200  101  222 1    
   201  101  223 1    
   202  101  224 1    
   203  102  103 2    
   204  102  104 am   BACKBONE|DICT|INTERRES
   205  104  105 1    
   206  104  225 1    
   207  105  106 1    
   208  105  107 1    
   209  105  226 1    
   210  106  227 1    
   211  106  228 1    
   212  106  229 1    
   213  107  108 2    
   214  107  109 am   BACKBONE|DICT|INTERRES
   215  109  110 1    
   216  109  230 1    
   217  110  111 1    
   218  110  112 1    
   219  110  231 1    
   220  111  232 1    
   221  111  233 1    
   222  111  234 1    
   223  112  113 2    
   224  112  114 am   BACKBONE|DICT|INTERRES
   225  114  115 1    
   226  114  235 1    
   227  115  116 1    
   228  115  117 1    
   229  115  236 1    
   230  116  237 1    
   231  116  238 1    
   232  116  239 1    
   233  117  118 2    
   234  117  119 am   BACKBONE|DICT|INTERRES
   235  119  120 1    
   236  119  240 1    
   237  120  121 1    
   238  120  124 1    
   239  120  241 1    
   240  121  122 am   BACKBONE|DICT|INTERRES
   241  121  123 2    
   242  122  242 1    
   243  122  243 1    
   244  124  125 1    
   245  124  244 1    
   246  124  245 1    
   247  125  126 1    
   248  126  246 1    
   249  126  247 1    
@<TRIPOS>SUBSTRUCTURE
     1 UNK         1 GROUP             0       ****    0 ROOT    
