@<TRIPOS>MOLECULE
3R540
247   249    1
SMALL
USER_CHARGES


@<TRIPOS>ATOM
      1 CA          3.3218  -13.2442  -50.9808 C.3       0 UNK        -0.1800 
      2 C           3.1758  -12.9004  -49.5057 C.2       0 UNK         0.5000 
      3 O           3.0692  -11.7234  -49.1594 O.2       0 UNK        -0.5000 
      4 N           3.1641  -13.9255  -48.6431 N.am      1 UNK        -0.5000 
      5 CA          3.0351  -13.8780  -47.1803 C.3       1 UNK         0.1400 
      6 C6          1.7405  -13.1869  -46.6654 C.3       23 UNK        -0.0398 
      7 S7          0.2650  -14.2407  -46.8506 S.3       23 UNK        -0.2404 
      8 C8         -0.3808  -13.7279  -48.4750 C.3       23 UNK        -0.0205 
      9 C9         -0.6182  -14.9021  -49.4193 C.ar      23 UNK        -0.0193 
     10 C10        -1.7965  -14.9612  -50.1705 C.ar      23 UNK        -0.1150 
     11 C11        -2.0057  -15.9961  -51.0865 C.ar      23 UNK        -0.0193 
     12 C12        -1.0287  -16.9833  -51.2437 C.ar      23 UNK        -0.1150 
     13 C13         0.1445  -16.9487  -50.4885 C.ar      23 UNK        -0.0193 
     14 C14         0.3465  -15.9032  -49.5846 C.ar      23 UNK        -0.1150 
     15 C15         1.1991  -18.0312  -50.6606 C.3       23 UNK        -0.0205 
     16 S16         1.1278  -19.2646  -49.3252 S.3       23 UNK        -0.2404 
     17 C17        -0.4935  -20.0437  -49.6277 C.3       23 UNK        -0.0398 
     18 CA         -0.5597  -21.4806  -49.0588 C.3       11 UNK         0.1400 
     19 N          -0.4173  -21.5168  -47.6038 N.am      11 UNK        -0.5000 
     20 C          -0.3114  -22.6312  -46.8685 C.2       10 UNK         0.5000 
     21 O          -0.3156  -23.7687  -47.3396 O.2       10 UNK        -0.5000 
     22 CA         -0.2528  -22.4328  -45.3431 C.3       10 UNK         0.1400 
     23 CB          1.1560  -22.0330  -44.8788 C.3       10 UNK        -0.1800 
     24 N          -1.2409  -21.4464  -44.9040 N.am      10 UNK        -0.5000 
     25 C          -2.5617  -21.6675  -44.9620 C.2       9 UNK         0.5000 
     26 O          -3.0454  -22.7464  -45.2981 O.2       9 UNK        -0.5000 
     27 CA         -3.5021  -20.4900  -44.6545 C.3       9 UNK         0.1400 
     28 CB         -3.8393  -20.4390  -43.1579 C.3       9 UNK        -0.1800 
     29 N          -2.9433  -19.2101  -45.0874 N.am      9 UNK        -0.5000 
     30 C          -2.8202  -18.8420  -46.3728 C.2       8 UNK         0.5000 
     31 O          -3.2204  -19.5257  -47.3158 O.2       8 UNK        -0.5000 
     32 CA         -2.0836  -17.5173  -46.6564 C.3       8 UNK         0.1400 
     33 CB         -3.0847  -16.3556  -46.7190 C.3       8 UNK        -0.1800 
     34 N          -1.0459  -17.2175  -45.6666 N.am      8 UNK        -0.5000 
     35 C           0.0273  -17.9906  -45.4382 C.2       7 UNK         0.5000 
     36 O           0.2649  -19.0127  -46.0797 O.2       7 UNK        -0.5000 
     37 CA          0.9482  -17.6242  -44.2552 C.3       7 UNK         0.1400 
     38 CB          2.2141  -16.9082  -44.7416 C.3       7 UNK        -0.1800 
     39 N           0.3013  -16.8074  -43.2269 N.am      7 UNK        -0.5000 
     40 C          -0.7590  -17.1889  -42.4983 C.2       6 UNK         0.5000 
     41 O          -1.2708  -18.3052  -42.5833 O.2       6 UNK        -0.5000 
     42 CA         -1.3882  -16.1424  -41.5557 C.3       6 UNK         0.1400 
     43 CB         -0.9095  -16.3654  -40.1135 C.3       6 UNK        -0.1800 
     44 N          -1.1110  -14.7557  -41.9371 N.am      6 UNK        -0.5000 
     45 C          -1.4461  -14.1799  -43.1013 C.2       5 UNK         0.5000 
     46 O          -2.0974  -14.7487  -43.9768 O.2       5 UNK        -0.5000 
     47 CA         -0.9328  -12.7461  -43.3461 C.3       5 UNK         0.1400 
     48 CB         -2.0661  -11.7294  -43.1434 C.3       5 UNK        -0.1800 
     49 N           0.2099  -12.3606  -42.5079 N.am      5 UNK        -0.5000 
     50 C           1.4187  -12.9371  -42.5340 C.2       4 UNK         0.5000 
     51 O           1.7061  -13.9051  -43.2424 O.2       4 UNK        -0.5000 
     52 CA          2.4656  -12.3715  -41.5702 C.3       4 UNK         0.1400 
     53 CB          2.3900  -13.1009  -40.2149 C.3       4 UNK        -0.1800 
     54 N           3.7827  -12.5420  -42.1725 N.am      4 UNK        -0.5000 
     55 C           4.9074  -11.9380  -41.7745 C.2       3 UNK         0.5000 
     56 O           4.9675  -11.1480  -40.8312 O.2       3 UNK        -0.5000 
     57 CA          6.1790  -12.2642  -42.5750 C.3       3 UNK         0.1400 
     58 CB          6.7128  -13.6583  -42.2094 C.3       3 UNK        -0.1800 
     59 N           5.9667  -12.1929  -44.0200 N.am      3 UNK        -0.5000 
     60 C           5.8268  -11.0652  -44.7262 C.2       2 UNK         0.5000 
     61 O           5.8206   -9.9418  -44.2216 O.2       2 UNK        -0.5000 
     62 CA          5.6981  -11.2055  -46.2572 C.3       2 UNK         0.1400 
     63 CB          7.0169  -11.6952  -46.8863 C.3       2 UNK        -0.1800 
     64 N           4.5636  -12.0152  -46.7175 N.am      2 UNK        -0.5000 
     65 C           4.3035  -13.3131  -46.5112 C.2       1 UNK         0.5000 
     66 O           5.0178  -14.0648  -45.8461 O.2       1 UNK        -0.5000 
     67 C          -1.8277  -22.2109  -49.5450 C.2       11 UNK         0.5000 
     68 O          -1.7106  -23.0700  -50.4171 O.2       11 UNK        -0.5000 
     69 N          -2.9972  -21.8663  -48.9885 N.am      12 UNK        -0.5000 
     70 CA         -4.2908  -22.3202  -49.4992 C.3       12 UNK         0.1400 
     71 CB         -5.2677  -21.1379  -49.4916 C.3       12 UNK        -0.1800 
     72 C          -4.8923  -23.5092  -48.7344 C.2       12 UNK         0.5000 
     73 O          -5.3193  -24.4704  -49.3727 O.2       12 UNK        -0.5000 
     74 N          -4.9663  -23.4233  -47.3985 N.am      13 UNK        -0.5000 
     75 CA         -5.6891  -24.3959  -46.5687 C.3       13 UNK         0.1400 
     76 CB         -6.1582  -23.7465  -45.2559 C.3       13 UNK        -0.1800 
     77 C          -4.8631  -25.6660  -46.3109 C.2       13 UNK         0.5000 
     78 O          -5.3947  -26.7691  -46.4417 O.2       13 UNK        -0.5000 
     79 N          -3.5681  -25.4950  -46.0069 N.am      14 UNK        -0.5000 
     80 CA         -2.5891  -26.5900  -45.9668 C.3       14 UNK         0.1400 
     81 CB         -1.4187  -26.2165  -45.0459 C.3       14 UNK        -0.1800 
     82 C          -2.0919  -26.9763  -47.3776 C.2       14 UNK         0.5000 
     83 O          -1.4496  -28.0156  -47.5307 O.2       14 UNK        -0.5000 
     84 N          -2.4325  -26.1482  -48.3752 N.am      15 UNK        -0.5000 
     85 CA         -2.2691  -26.3460  -49.8140 C.3       15 UNK         0.1400 
     86 CB         -3.0907  -27.5603  -50.2957 C.3       15 UNK        -0.1800 
     87 C          -0.8040  -26.3773  -50.2890 C.2       15 UNK         0.5000 
     88 O          -0.4962  -27.0680  -51.2628 O.2       15 UNK        -0.5000 
     89 N           0.0772  -25.5959  -49.6448 N.am      16 UNK        -0.5000 
     90 CA          1.4758  -25.4291  -50.0603 C.3       16 UNK         0.1400 
     91 CB          2.2573  -24.6750  -48.9741 C.3       16 UNK        -0.1800 
     92 C           1.6341  -24.7302  -51.4287 C.2       16 UNK         0.5000 
     93 O           2.6524  -24.9307  -52.0912 O.2       16 UNK        -0.5000 
     94 N           0.6206  -23.9559  -51.8386 N.am      17 UNK        -0.5000 
     95 CA          0.4964  -23.3283  -53.1542 C.3       17 UNK         0.1400 
     96 CB          0.3200  -21.8109  -52.9625 C.3       17 UNK        -0.1800 
     97 C          -0.6768  -23.9471  -53.9450 C.2       17 UNK         0.5000 
     98 O          -1.2308  -23.2856  -54.8244 O.2       17 UNK        -0.5000 
     99 N          -1.0396  -25.1977  -53.6155 N.am      18 UNK        -0.5000 
    100 CA        -2.2032  -25.9469  -54.1005 C.3       18 UNK         0.1400 
    101 CB        -2.1139  -26.2007  -55.6223 C.3       18 UNK        -0.1800 
    102 C         -3.5306  -25.2994  -53.6477 C.2       18 UNK         0.5000 
    103 O         -3.5670  -24.6428  -52.6052 O.2       18 UNK        -0.5000 
    104 N         -4.6104  -25.4990  -54.4140 N.am      19 UNK        -0.5000 
    105 CA        -5.9471  -24.9554  -54.1553 C.3       19 UNK         0.1400 
    106 CB        -6.9805  -25.8068  -54.9149 C.3       19 UNK        -0.1800 
    107 C         -6.0350  -23.4539  -54.5085 C.2       19 UNK         0.5000 
    108 O         -6.8013  -23.0631  -55.3909 O.2       19 UNK        -0.5000 
    109 N         -5.2143  -22.6430  -53.8303 N.am      20 UNK        -0.5000 
    110 CA        -5.0466  -21.2094  -54.0725 C.3       20 UNK         0.1400 
    111 CB        -3.7580  -20.7444  -53.3775 C.3       20 UNK        -0.1800 
    112 C         -6.2575  -20.3564  -53.6390 C.2       20 UNK         0.5000 
    113 O         -6.4583  -19.2768  -54.1957 O.2       20 UNK        -0.5000 
    114 N         -7.0449  -20.8644  -52.6757 N.am      21 UNK        -0.5000 
    115 CA        -8.2950  -20.2920  -52.1503 C.3       21 UNK         0.1400 
    116 CB        -9.3947  -20.3138  -53.2326 C.3       21 UNK        -0.1800 
    117 C         -8.1284  -18.9025  -51.4912 C.2       21 UNK         0.5000 
    118 O         -9.0345  -18.0697  -51.5543 O.2       21 UNK        -0.5000 
    119 N         -6.9685  -18.6852  -50.8621 N.am      22 UNK        -0.5000 
    120 CA        -6.5605  -17.4274  -50.2106 C.3       22 UNK         0.1400 
    121 C         -7.2221  -17.1604  -48.8265 C.2       22 UNK         0.5000 
    122 N         -7.9559  -18.1000  -48.2426 N.am      22 UNK        -0.7600 
    123 O         -7.0712  -16.0745  -48.2741 O.2       22 UNK        -0.5000 
    124 C124       -5.0164  -17.3150  -50.1065 C.3       23 UNK        -0.0398 
    125 S125       -4.1963  -17.5772  -51.7146 S.3       23 UNK        -0.2404 
    126 C126       -3.2660  -16.0313  -51.9380 C.3       23 UNK        -0.0205 
    127 H127        2.4668  -12.8630  -51.5393 H         1 UNK         0.0600 
    128 H128        3.3789  -14.3208  -51.1434 H         1 UNK         0.0600 
    129 H129        4.2260  -12.7891  -51.3849 H         1 UNK         0.0600 
    130 H130        3.2989  -14.8546  -49.0149 H         1 UNK         0.3000 
    131 H131        2.9931  -14.9236  -46.8754 H         1 UNK         0.0600 
    132 H132        1.8255  -12.9696  -45.6017 H         1 UNK         0.0800 
    133 H133        1.5707  -12.2194  -47.1370 H         1 UNK         0.0800 
    134 H134       -1.3076  -13.1774  -48.3079 H         1 UNK         0.0800 
    135 H135        0.3028  -13.0317  -48.9596 H         1 UNK         0.0800 
    136 H136       -2.5434  -14.1881  -50.0574 H         1 UNK         0.1150 
    137 H137       -1.1870  -17.7815  -51.9554 H         1 UNK         0.1150 
    138 H138        1.2569  -15.8753  -49.0054 H         1 UNK         0.1150 
    139 H139        1.0906  -18.5300  -51.6250 H         1 UNK         0.0800 
    140 H140        2.1896  -17.5743  -50.6650 H         1 UNK         0.0800 
    141 H141       -0.6735  -20.0500  -50.7033 H         1 UNK         0.0800 
    142 H142       -1.2716  -19.4146  -49.1948 H         1 UNK         0.0800 
    143 H143        0.2888  -22.0296  -49.4710 H         1 UNK         0.0600 
    144 H144       -0.3502  -20.6191  -47.1337 H         1 UNK         0.3000 
    145 H145       -0.4967  -23.3804  -44.8628 H         1 UNK         0.0600 
    146 H146        1.1862  -21.8711  -43.8013 H         1 UNK         0.0600 
    147 H147        1.5102  -21.1252  -45.3654 H         1 UNK         0.0600 
    148 H148        1.8731  -22.8217  -45.1094 H         1 UNK         0.0600 
    149 H149       -0.9037  -20.5217  -44.6781 H         1 UNK         0.3000 
    150 H150       -4.4326  -20.6560  -45.2017 H         1 UNK         0.0600 
    151 H151       -4.3474  -21.3523  -42.8454 H         1 UNK         0.0600 
    152 H152       -4.5009  -19.6037  -42.9287 H         1 UNK         0.0600 
    153 H153       -2.9444  -20.3390  -42.5435 H         1 UNK         0.0600 
    154 H154       -2.5439  -18.6223  -44.3659 H         1 UNK         0.3000 
    155 H155       -1.5989  -17.6028  -47.6310 H         1 UNK         0.0600 
    156 H156       -3.8568  -16.5432  -47.4645 H         1 UNK         0.0600 
    157 H157       -2.5916  -15.4223  -46.9900 H         1 UNK         0.0600 
    158 H158       -3.5855  -16.2047  -45.7622 H         1 UNK         0.0600 
    159 H159       -1.1881  -16.3891  -45.1001 H         1 UNK         0.3000 
    160 H160        1.2514  -18.5638  -43.7889 H         1 UNK         0.0600 
    161 H161        1.9829  -15.9066  -45.0981 H         1 UNK         0.0600 
    162 H162        2.6916  -17.4524  -45.5576 H         1 UNK         0.0600 
    163 H163        2.9455  -16.8118  -43.9391 H         1 UNK         0.0600 
    164 H164        0.6553  -15.8644  -43.1163 H         1 UNK         0.3000 
    165 H165       -2.4702  -16.2854  -41.5873 H         1 UNK         0.0600 
    166 H166       -1.4131  -15.6908  -39.4210 H         1 UNK         0.0600 
    167 H167       -1.1210  -17.3837  -39.7843 H         1 UNK         0.0600 
    168 H168        0.1654  -16.2057  -40.0178 H         1 UNK         0.0600 
    169 H169       -0.5760  -14.2080  -41.2803 H         1 UNK         0.3000 
    170 H170       -0.6119  -12.6934  -44.3879 H         1 UNK         0.0600 
    171 H171       -2.4147  -11.7163  -42.1100 H         1 UNK         0.0600 
    172 H172       -1.7436  -10.7211  -43.4036 H         1 UNK         0.0600 
    173 H173       -2.9225  -11.9674  -43.7760 H         1 UNK         0.0600 
    174 H174        0.0556  -11.5838  -41.8809 H         1 UNK         0.3000 
    175 H175        2.2762  -11.3055  -41.4278 H         1 UNK         0.0600 
    176 H176        2.6023  -14.1656  -40.3212 H         1 UNK         0.0600 
    177 H177        3.1001  -12.6894  -39.4978 H         1 UNK         0.0600 
    178 H178        1.3977  -13.0059  -39.7724 H         1 UNK         0.0600 
    179 H179        3.8003  -13.1697  -42.9666 H         1 UNK         0.3000 
    180 H180        6.9412  -11.5303  -42.3044 H         1 UNK         0.0600 
    181 H181        7.6623  -13.8581  -42.7063 H         1 UNK         0.0600 
    182 H182        6.0143  -14.4465  -42.4936 H         1 UNK         0.0600 
    183 H183        6.8843  -13.7418  -41.1354 H         1 UNK         0.0600 
    184 H184        5.8886  -13.0709  -44.5269 H         1 UNK         0.3000 
    185 H185        5.5126  -10.2023  -46.6444 H         1 UNK         0.0600 
    186 H186        6.9580  -11.6887  -47.9748 H         1 UNK         0.0600 
    187 H187        7.8475  -11.0479  -46.6023 H         1 UNK         0.0600 
    188 H188        7.2715  -12.7078  -46.5723 H         1 UNK         0.0600 
    189 H189        3.9287  -11.5340  -47.3473 H         1 UNK         0.3000 
    190 H190       -3.0149  -21.1320  -48.2843 H         1 UNK         0.3000 
    191 H191       -4.1834  -22.6348  -50.5402 H         1 UNK         0.0600 
    192 H192       -5.4098  -20.7315  -48.4894 H         1 UNK         0.0600 
    193 H193       -6.2470  -21.4354  -49.8677 H         1 UNK         0.0600 
    194 H194       -4.8924  -20.3376  -50.1265 H         1 UNK         0.0600 
    195 H195       -4.5155  -22.6594  -46.9139 H         1 UNK         0.3000 
    196 H196       -6.5897  -24.6978  -47.1084 H         1 UNK         0.0600 
    197 H197       -6.7137  -22.8279  -45.4452 H         1 UNK         0.0600 
    198 H198       -5.3321  -23.5085  -44.5880 H         1 UNK         0.0600 
    199 H199       -6.8220  -24.4201  -44.7128 H         1 UNK         0.0600 
    200 H200       -3.2239  -24.5483  -45.8618 H         1 UNK         0.3000 
    201 H201       -3.0724  -27.4706  -45.5386 H         1 UNK         0.0600 
    202 H202       -1.7660  -25.7878  -44.1056 H         1 UNK         0.0600 
    203 H203       -0.7457  -25.5062  -45.5187 H         1 UNK         0.0600 
    204 H204       -0.8266  -27.0996  -44.8037 H         1 UNK         0.0600 
    205 H205       -2.9332  -25.3124  -48.1124 H         1 UNK         0.3000 
    206 H206       -2.7108  -25.4651  -50.2772 H         1 UNK         0.0600 
    207 H207       -4.1268  -27.4879  -49.9644 H         1 UNK         0.0600 
    208 H208       -3.1063  -27.6173  -51.3841 H         1 UNK         0.0600 
    209 H209       -2.6820  -28.5004  -49.9245 H         1 UNK         0.0600 
    210 H210       -0.2329  -25.0397  -48.8522 H         1 UNK         0.3000 
    211 H211        1.9113  -26.4261  -50.1527 H         1 UNK         0.0600 
    212 H212        1.9184  -23.6444  -48.8731 H         1 UNK         0.0600 
    213 H213        3.3212  -24.6443  -49.2121 H         1 UNK         0.0600 
    214 H214        2.1551  -25.1599  -48.0030 H         1 UNK         0.0600 
    215 H215       -0.1929  -23.8496  -51.2359 H         1 UNK         0.3000 
    216 H216        1.3995  -23.4938  -53.7443 H         1 UNK         0.0600 
    217 H217        0.3575  -21.2883  -53.9188 H         1 UNK         0.0600 
    218 H218        1.1070  -21.3944  -52.3335 H         1 UNK         0.0600 
    219 H219       -0.6401  -21.5787  -52.5021 H         1 UNK         0.0600 
    220 H220       -0.5386  -25.6473  -52.8587 H         1 UNK         0.3000 
    221 H221       -2.1573  -26.9171  -53.6047 H         1 UNK         0.0600 
    222 H222       -2.2926  -25.2935  -56.2004 H         1 UNK         0.0600 
    223 H223       -1.1302  -26.5811  -55.8980 H         1 UNK         0.0600 
    224 H224       -2.8419  -26.9462  -55.9433 H         1 UNK         0.0600 
    225 H225       -4.5021  -26.0223  -55.2705 H         1 UNK         0.3000 
    226 H226       -6.1635  -25.0490  -53.0888 H         1 UNK         0.0600 
    227 H227       -6.9383  -26.8500  -54.6010 H         1 UNK         0.0600 
    228 H228       -7.9947  -25.4534  -54.7242 H         1 UNK         0.0600 
    229 H229       -6.8172  -25.7739  -55.9928 H         1 UNK         0.0600 
    230 H230       -4.5752  -23.0791  -53.1712 H         1 UNK         0.3000 
    231 H231       -4.9172  -21.0675  -55.1475 H         1 UNK         0.0600 
    232 H232       -3.5332  -19.7087  -53.6320 H         1 UNK         0.0600 
    233 H233       -2.9029  -21.3427  -53.6920 H         1 UNK         0.0600 
    234 H234       -3.8314  -20.8130  -52.2924 H         1 UNK         0.0600 
    235 H235       -6.7884  -21.7682  -52.3062 H         1 UNK         0.3000 
    236 H236       -8.6170  -20.9600  -51.3503 H         1 UNK         0.0600 
    237 H237       -9.1773  -19.6185  -54.0440 H         1 UNK         0.0600 
    238 H238       -9.5026  -21.3088  -53.6646 H         1 UNK         0.0600 
    239 H239      -10.3630  -20.0363  -52.8147 H         1 UNK         0.0600 
    240 H240       -6.2698  -19.4107  -50.8898 H         1 UNK         0.3000 
    241 H241       -6.8966  -16.6127  -50.8549 H         1 UNK         0.0600 
    242 H242       -8.3834  -17.9104  -47.3499 H         1 UNK         0.3800 
    243 H243       -8.1004  -18.9903  -48.6889 H         1 UNK         0.3800 
    244 H244       -4.6215  -18.0461  -49.3992 H         1 UNK         0.0800 
    245 H245       -4.7334  -16.3353  -49.7184 H         1 UNK         0.0800 
    246 H246       -2.9784  -15.9467  -52.9866 H         1 UNK         0.0800 
    247 H247       -3.9147  -15.1794  -51.7283 H         1 UNK         0.0800 
@<TRIPOS>BOND
     1    1    2 1    
     2    1  127 1    
     3    1  128 1    
     4    1  129 1    
     5    2    3 2    
     6    2    4 am   BACKBONE|DICT|INTERRES
     7    4    5 1    
     8    4  130 1    
     9    5    6 1    
    10    5   65 1    
    11    5  131 1    
    12    6    7 1    
    13    6  132 1    
    14    6  133 1    
    15    7    8 1    
    16    8    9 1    
    17    8  134 1    
    18    8  135 1    
    19    9   10 ar   
    20    9   14 ar   
    21   10   11 ar   
    22   10  136 1    
    23   11   12 ar   
    24   11  126 1    
    25   12   13 ar   
    26   12  137 1    
    27   13   14 ar   
    28   13   15 1    
    29   14  138 1    
    30   15   16 1    
    31   15  139 1    
    32   15  140 1    
    33   16   17 1    
    34   17   18 1    
    35   17  141 1    
    36   17  142 1    
    37   18   19 1    
    38   18   67 1    
    39   18  143 1    
    40   19   20 am   BACKBONE|DICT|INTERRES
    41   19  144 1    
    42   20   21 2    
    43   20   22 1    
    44   22   23 1    
    45   22   24 1    
    46   22  145 1    
    47   23  146 1    
    48   23  147 1    
    49   23  148 1    
    50   24   25 am   BACKBONE|DICT|INTERRES
    51   24  149 1    
    52   25   26 2    
    53   25   27 1    
    54   27   28 1    
    55   27   29 1    
    56   27  150 1    
    57   28  151 1    
    58   28  152 1    
    59   28  153 1    
    60   29   30 am   BACKBONE|DICT|INTERRES
    61   29  154 1    
    62   30   31 2    
    63   30   32 1    
    64   32   33 1    
    65   32   34 1    
    66   32  155 1    
    67   33  156 1    
    68   33  157 1    
    69   33  158 1    
    70   34   35 am   BACKBONE|DICT|INTERRES
    71   34  159 1    
    72   35   36 2    
    73   35   37 1    
    74   37   38 1    
    75   37   39 1    
    76   37  160 1    
    77   38  161 1    
    78   38  162 1    
    79   38  163 1    
    80   39   40 am   BACKBONE|DICT|INTERRES
    81   39  164 1    
    82   40   41 2    
    83   40   42 1    
    84   42   43 1    
    85   42   44 1    
    86   42  165 1    
    87   43  166 1    
    88   43  167 1    
    89   43  168 1    
    90   44   45 am   BACKBONE|DICT|INTERRES
    91   44  169 1    
    92   45   46 2    
    93   45   47 1    
    94   47   48 1    
    95   47   49 1    
    96   47  170 1    
    97   48  171 1    
    98   48  172 1    
    99   48  173 1    
   100   49   50 am   BACKBONE|DICT|INTERRES
   101   49  174 1    
   102   50   51 2    
   103   50   52 1    
   104   52   53 1    
   105   52   54 1    
   106   52  175 1    
   107   53  176 1    
   108   53  177 1    
   109   53  178 1    
   110   54   55 am   BACKBONE|DICT|INTERRES
   111   54  179 1    
   112   55   56 2    
   113   55   57 1    
   114   57   58 1    
   115   57   59 1    
   116   57  180 1    
   117   58  181 1    
   118   58  182 1    
   119   58  183 1    
   120   59   60 am   BACKBONE|DICT|INTERRES
   121   59  184 1    
   122   60   61 2    
   123   60   62 1    
   124   62   63 1    
   125   62   64 1    
   126   62  185 1    
   127   63  186 1    
   128   63  187 1    
   129   63  188 1    
   130   64   65 am   BACKBONE|DICT|INTERRES
   131   64  189 1    
   132   65   66 2    
   133   67   68 2    
   134   67   69 am   BACKBONE|DICT|INTERRES
   135   69   70 1    
   136   69  190 1    
   137   70   71 1    
   138   70   72 1    
   139   70  191 1    
   140   71  192 1    
   141   71  193 1    
   142   71  194 1    
   143   72   73 2    
   144   72   74 am   BACKBONE|DICT|INTERRES
   145   74   75 1    
   146   74  195 1    
   147   75   76 1    
   148   75   77 1    
   149   75  196 1    
   150   76  197 1    
   151   76  198 1    
   152   76  199 1    
   153   77   78 2    
   154   77   79 am   BACKBONE|DICT|INTERRES
   155   79   80 1    
   156   79  200 1    
   157   80   81 1    
   158   80   82 1    
   159   80  201 1    
   160   81  202 1    
   161   81  203 1    
   162   81  204 1    
   163   82   83 2    
   164   82   84 am   BACKBONE|DICT|INTERRES
   165   84   85 1    
   166   84  205 1    
   167   85   86 1    
   168   85   87 1    
   169   85  206 1    
   170   86  207 1    
   171   86  208 1    
   172   86  209 1    
   173   87   88 2    
   174   87   89 am   BACKBONE|DICT|INTERRES
   175   89   90 1    
   176   89  210 1    
   177   90   91 1    
   178   90   92 1    
   179   90  211 1    
   180   91  212 1    
   181   91  213 1    
   182   91  214 1    
   183   92   93 2    
   184   92   94 am   BACKBONE|DICT|INTERRES
   185   94   95 1    
   186   94  215 1    
   187   95   96 1    
   188   95   97 1    
   189   95  216 1    
   190   96  217 1    
   191   96  218 1    
   192   96  219 1    
   193   97   98 2    
   194   97   99 am   BACKBONE|DICT|INTERRES
   195   99  100 1    
   196   99  220 1    
   197  100  101 1    
   198  100  102 1    
   199  100  221 1    
   200  101  222 1    
   201  101  223 1    
   202  101  224 1    
   203  102  103 2    
   204  102  104 am   BACKBONE|DICT|INTERRES
   205  104  105 1    
   206  104  225 1    
   207  105  106 1    
   208  105  107 1    
   209  105  226 1    
   210  106  227 1    
   211  106  228 1    
   212  106  229 1    
   213  107  108 2    
   214  107  109 am   BACKBONE|DICT|INTERRES
   215  109  110 1    
   216  109  230 1    
   217  110  111 1    
   218  110  112 1    
   219  110  231 1    
   220  111  232 1    
   221  111  233 1    
   222  111  234 1    
   223  112  113 2    
   224  112  114 am   BACKBONE|DICT|INTERRES
   225  114  115 1    
   226  114  235 1    
   227  115  116 1    
   228  115  117 1    
   229  115  236 1    
   230  116  237 1    
   231  116  238 1    
   232  116  239 1    
   233  117  118 2    
   234  117  119 am   BACKBONE|DICT|INTERRES
   235  119  120 1    
   236  119  240 1    
   237  120  121 1    
   238  120  124 1    
   239  120  241 1    
   240  121  122 am   BACKBONE|DICT|INTERRES
   241  121  123 2    
   242  122  242 1    
   243  122  243 1    
   244  124  125 1    
   245  124  244 1    
   246  124  245 1    
   247  125  126 1    
   248  126  246 1    
   249  126  247 1    
@<TRIPOS>SUBSTRUCTURE
     1 UNK         1 GROUP             0       ****    0 ROOT    
