@<TRIPOS>MOLECULE
3R540
247   249    1
SMALL
USER_CHARGES


@<TRIPOS>ATOM
      1 CA          3.6613  -14.2718  -43.7311 C.3       0 UNK        -0.1800 
      2 C           2.9898  -14.1436  -45.0895 C.2       0 UNK         0.5000 
      3 O           2.1509  -13.2618  -45.2825 O.2       0 UNK        -0.5000 
      4 N           3.3658  -15.0082  -46.0387 N.am      1 UNK        -0.5000 
      5 CA          2.8916  -14.9863  -47.4316 C.3       1 UNK         0.1400 
      6 C6          3.1928  -16.3079  -48.1815 C.3       23 UNK        -0.0398 
      7 S7          2.6542  -17.7821  -47.2535 S.3       23 UNK        -0.2404 
      8 C8          1.7773  -18.7601  -48.5070 C.3       23 UNK        -0.0205 
      9 C9          0.3720  -18.2454  -48.7759 C.ar      23 UNK        -0.0193 
     10 C10         0.0346  -17.7238  -50.0278 C.ar      23 UNK        -0.1150 
     11 C11        -1.2744  -17.3109  -50.2936 C.ar      23 UNK        -0.0193 
     12 C12        -2.2486  -17.4286  -49.2974 C.ar      23 UNK        -0.1150 
     13 C13        -1.9244  -17.9506  -48.0417 C.ar      23 UNK        -0.0193 
     14 C14        -0.6069  -18.3388  -47.7826 C.ar      23 UNK        -0.1150 
     15 C15        -2.9983  -18.0879  -46.9707 C.3       23 UNK        -0.0205 
     16 S16        -3.6187  -19.7920  -46.8250 S.3       23 UNK        -0.2404 
     17 C17        -2.3446  -20.5654  -45.7800 C.3       23 UNK        -0.0398 
     18 CA         -1.3886  -21.5077  -46.5534 C.3       11 UNK         0.1400 
     19 N          -0.0861  -21.6030  -45.8788 N.am      11 UNK        -0.5000 
     20 C           0.9542  -22.3776  -46.2238 C.2       10 UNK         0.5000 
     21 O           0.9546  -23.1440  -47.1856 O.2       10 UNK        -0.5000 
     22 CA          2.1814  -22.3323  -45.3009 C.3       10 UNK         0.1400 
     23 CB          3.0573  -21.1101  -45.6075 C.3       10 UNK        -0.1800 
     24 N           1.7755  -22.3146  -43.8967 N.am      10 UNK        -0.5000 
     25 C           1.3948  -23.4037  -43.2136 C.2       9 UNK         0.5000 
     26 O           1.4415  -24.5467  -43.6684 O.2       9 UNK        -0.5000 
     27 CA          0.8467  -23.1790  -41.7911 C.3       9 UNK         0.1400 
     28 CB          1.9856  -23.2252  -40.7613 C.3       9 UNK        -0.1800 
     29 N           0.1198  -21.9162  -41.6467 N.am      9 UNK        -0.5000 
     30 C          -1.0404  -21.6291  -42.2538 C.2       8 UNK         0.5000 
     31 O          -1.6413  -22.4144  -42.9882 O.2       8 UNK        -0.5000 
     32 CA         -1.5934  -20.2044  -42.0422 C.3       8 UNK         0.1400 
     33 CB         -2.4688  -20.1498  -40.7820 C.3       8 UNK        -0.1800 
     34 N          -0.5574  -19.1680  -41.9562 N.am      8 UNK        -0.5000 
     35 C           0.3601  -18.9094  -42.8972 C.2       7 UNK         0.5000 
     36 O           0.4385  -19.5299  -43.9588 O.2       7 UNK        -0.5000 
     37 CA          1.3484  -17.7712  -42.5945 C.3       7 UNK         0.1400 
     38 CB          2.6807  -17.9428  -43.3416 C.3       7 UNK        -0.1800 
     39 N           0.7634  -16.4794  -42.9464 N.am      7 UNK        -0.5000 
     40 C          -0.0235  -15.7588  -42.1376 C.2       6 UNK         0.5000 
     41 O          -0.3491  -16.1276  -41.0080 O.2       6 UNK        -0.5000 
     42 CA         -0.5219  -14.3955  -42.6544 C.3       6 UNK         0.1400 
     43 CB          0.2532  -13.2425  -41.9964 C.3       6 UNK        -0.1800 
     44 N          -0.4498  -14.2386  -44.1098 N.am      6 UNK        -0.5000 
     45 C          -1.3683  -14.7174  -44.9617 C.2       5 UNK         0.5000 
     46 O          -2.2848  -15.4613  -44.6120 O.2       5 UNK        -0.5000 
     47 CA         -1.2811  -14.2263  -46.4208 C.3       5 UNK         0.1400 
     48 CB         -2.6366  -14.3098  -47.1549 C.3       5 UNK        -0.1800 
     49 N          -0.7954  -12.8473  -46.4383 N.am      5 UNK        -0.5000 
     50 C          -0.3576  -12.1737  -47.5059 C.2       4 UNK         0.5000 
     51 O          -0.2573  -12.6523  -48.6346 O.2       4 UNK        -0.5000 
     52 CA          0.0360  -10.7135  -47.2552 C.3       4 UNK         0.1400 
     53 CB         -1.0239   -9.9557  -46.4232 C.3       4 UNK        -0.1800 
     54 N           1.3420  -10.6851  -46.6051 N.am      4 UNK        -0.5000 
     55 C           2.1154   -9.5995  -46.4785 C.2       3 UNK         0.5000 
     56 O           1.7900   -8.4712  -46.8509 O.2       3 UNK        -0.5000 
     57 CA          3.5088   -9.8226  -45.8680 C.3       3 UNK         0.1400 
     58 CB          3.4217  -10.0851  -44.3551 C.3       3 UNK        -0.1800 
     59 N           4.2002  -10.9298  -46.5273 N.am      3 UNK        -0.5000 
     60 C           4.7532  -10.8585  -47.7482 C.2       2 UNK         0.5000 
     61 O           4.8016   -9.8267  -48.4190 O.2       2 UNK        -0.5000 
     62 CA          5.3551  -12.1567  -48.3192 C.3       2 UNK         0.1400 
     63 CB          6.8556  -12.2416  -47.9983 C.3       2 UNK        -0.1800 
     64 N           4.6879  -13.3515  -47.8020 N.am      2 UNK        -0.5000 
     65 C           3.4864  -13.7903  -48.2070 C.2       1 UNK         0.5000 
     66 O           2.8557  -13.2850  -49.1339 O.2       1 UNK        -0.5000 
     67 C          -2.0550  -22.8774  -46.7936 C.2       11 UNK         0.5000 
     68 O          -2.6227  -23.1030  -47.8641 O.2       11 UNK        -0.5000 
     69 N          -1.9264  -23.7797  -45.8110 N.am      12 UNK        -0.5000 
     70 CA         -2.3927  -25.1664  -45.8494 C.3       12 UNK         0.1400 
     71 CB         -2.0423  -25.8408  -44.5153 C.3       12 UNK        -0.1800 
     72 C          -1.8443  -25.9934  -47.0305 C.2       12 UNK         0.5000 
     73 O          -2.5440  -26.8857  -47.5096 O.2       12 UNK        -0.5000 
     74 N          -0.6244  -25.6771  -47.4833 N.am      13 UNK        -0.5000 
     75 CA          0.0475  -26.3441  -48.5952 C.3       13 UNK         0.1400 
     76 CB          1.4815  -26.7018  -48.1713 C.3       13 UNK        -0.1800 
     77 C           0.0602  -25.4599  -49.8516 C.2       13 UNK         0.5000 
     78 O          -0.3069  -25.9311  -50.9276 O.2       13 UNK        -0.5000 
     79 N           0.4904  -24.2003  -49.6985 N.am      14 UNK        -0.5000 
     80 CA          0.7467  -23.2623  -50.7917 C.3       14 UNK         0.1400 
     81 CB          1.5335  -22.0598  -50.2491 C.3       14 UNK        -0.1800 
     82 C          -0.5291  -22.7768  -51.4930 C.2       14 UNK         0.5000 
     83 O          -0.5351  -22.6528  -52.7170 O.2       14 UNK        -0.5000 
     84 N          -1.5758  -22.5072  -50.7043 N.am      15 UNK        -0.5000 
     85 CA         -2.8644  -22.0073  -51.1811 C.3       15 UNK         0.1400 
     86 CB         -3.2381  -20.7568  -50.3765 C.3       15 UNK        -0.1800 
     87 C          -3.9685  -23.0680  -51.0735 C.2       15 UNK         0.5000 
     88 O          -5.1249  -22.7428  -51.3439 O.2       15 UNK        -0.5000 
     89 N          -3.5995  -24.2936  -50.6715 N.am      16 UNK        -0.5000 
     90 CA         -4.4645  -25.4489  -50.4225 C.3       16 UNK         0.1400 
     91 CB         -5.0334  -25.9939  -51.7483 C.3       16 UNK        -0.1800 
     92 C          -5.5422  -25.1602  -49.3555 C.2       16 UNK         0.5000 
     93 O          -6.7087  -25.5086  -49.5416 O.2       16 UNK        -0.5000 
     94 N          -5.1126  -24.5118  -48.2619 N.am      17 UNK        -0.5000 
     95 CA         -5.9116  -24.0621  -47.1182 C.3       17 UNK         0.1400 
     96 CB         -6.5890  -25.2451  -46.3941 C.3       17 UNK        -0.1800 
     97 C          -6.8807  -22.9337  -47.5123 C.2       17 UNK         0.5000 
     98 O          -8.0863  -23.0297  -47.2766 O.2       17 UNK        -0.5000 
     99 N          -6.3043  -21.8779  -48.1049 N.am      18 UNK        -0.5000 
    100 CA        -6.9572  -20.6373  -48.5357 C.3       18 UNK         0.1400 
    101 CB        -7.5042  -19.8525  -47.3243 C.3       18 UNK        -0.1800 
    102 C         -8.0093  -20.8477  -49.6454 C.2       18 UNK         0.5000 
    103 O         -9.0190  -20.1426  -49.6844 O.2       18 UNK        -0.5000 
    104 N         -7.7331  -21.7894  -50.5570 N.am      19 UNK        -0.5000 
    105 CA        -8.5213  -22.0444  -51.7657 C.3       19 UNK         0.1400 
    106 CB        -8.4017  -23.5328  -52.1275 C.3       19 UNK        -0.1800 
    107 C         -8.0764  -21.1574  -52.9487 C.2       19 UNK         0.5000 
    108 O         -8.6568  -21.2603  -54.0300 O.2       19 UNK        -0.5000 
    109 N         -7.0534  -20.3170  -52.7246 N.am      20 UNK        -0.5000 
    110 CA        -6.4183  -19.3939  -53.6699 C.3       20 UNK         0.1400 
    111 CB        -7.4193  -18.3420  -54.1928 C.3       20 UNK        -0.1800 
    112 C         -5.6481  -20.1181  -54.7927 C.2       20 UNK         0.5000 
    113 O         -5.5552  -19.6063  -55.9093 O.2       20 UNK        -0.5000 
    114 N         -5.0770  -21.2875  -54.4661 N.am      21 UNK        -0.5000 
    115 CA        -4.1994  -22.0585  -55.3546 C.3       21 UNK         0.1400 
    116 CB        -4.1338  -23.5098  -54.8506 C.3       21 UNK        -0.1800 
    117 C         -2.7794  -21.4594  -55.4767 C.2       21 UNK         0.5000 
    118 O         -2.0203  -21.8743  -56.3536 O.2       21 UNK        -0.5000 
    119 N         -2.4455  -20.5159  -54.5882 N.am      22 UNK        -0.5000 
    120 CA        -1.1761  -19.7831  -54.5236 C.3       22 UNK         0.1400 
    121 C         -0.9421  -18.8243  -55.7268 C.2       22 UNK         0.5000 
    122 N          0.3090  -18.5053  -56.0325 N.am      22 UNK        -0.7600 
    123 O         -1.8734  -18.3443  -56.3697 O.2       22 UNK        -0.5000 
    124 C124       -1.0256  -19.0564  -53.1588 C.3       23 UNK        -0.0398 
    125 S125       -2.4395  -17.9775  -52.7242 S.3       23 UNK        -0.2404 
    126 C126       -1.6422  -16.7379  -51.6546 C.3       23 UNK        -0.0205 
    127 H127        4.5551  -14.8938  -43.7822 H         1 UNK         0.0600 
    128 H128        2.9793  -14.7166  -43.0088 H         1 UNK         0.0600 
    129 H129        3.9552  -13.2889  -43.3632 H         1 UNK         0.0600 
    130 H130        4.0271  -15.7391  -45.8167 H         1 UNK         0.3000 
    131 H131        1.8081  -14.8531  -47.4140 H         1 UNK         0.0600 
    132 H132        2.7088  -16.2997  -49.1597 H         1 UNK         0.0800 
    133 H133        4.2628  -16.4125  -48.3701 H         1 UNK         0.0800 
    134 H134        1.7058  -19.7840  -48.1405 H         1 UNK         0.0800 
    135 H135        2.3687  -18.8037  -49.4228 H         1 UNK         0.0800 
    136 H136        0.7872  -17.6491  -50.7998 H         1 UNK         0.1150 
    137 H137       -3.2638  -17.1223  -49.5068 H         1 UNK         0.1150 
    138 H138       -0.3392  -18.7337  -46.8132 H         1 UNK         0.1150 
    139 H139       -2.6216  -17.7362  -46.0098 H         1 UNK         0.0800 
    140 H140       -3.8499  -17.4511  -47.2119 H         1 UNK         0.0800 
    141 H141       -2.8479  -21.0914  -44.9676 H         1 UNK         0.0800 
    142 H142       -1.7820  -19.7687  -45.2961 H         1 UNK         0.0800 
    143 H143       -1.1862  -21.0782  -47.5361 H         1 UNK         0.0600 
    144 H144        0.0470  -20.9748  -45.0905 H         1 UNK         0.3000 
    145 H145        2.7782  -23.2274  -45.4896 H         1 UNK         0.0600 
    146 H146        3.9438  -21.0902  -44.9737 H         1 UNK         0.0600 
    147 H147        3.3977  -21.1244  -46.6436 H         1 UNK         0.0600 
    148 H148        2.5168  -20.1769  -45.4547 H         1 UNK         0.0600 
    149 H149        1.6547  -21.4056  -43.4729 H         1 UNK         0.3000 
    150 H150        0.1535  -23.9940  -41.5722 H         1 UNK         0.0600 
    151 H151        2.5335  -24.1662  -40.8276 H         1 UNK         0.0600 
    152 H152        1.6014  -23.1458  -39.7442 H         1 UNK         0.0600 
    153 H153        2.7015  -22.4169  -40.9151 H         1 UNK         0.0600 
    154 H154        0.5416  -21.2115  -41.0600 H         1 UNK         0.3000 
    155 H155       -2.2247  -19.9637  -42.8982 H         1 UNK         0.0600 
    156 H156       -1.8883  -20.3426  -39.8790 H         1 UNK         0.0600 
    157 H157       -3.2649  -20.8943  -40.8265 H         1 UNK         0.0600 
    158 H158       -2.9440  -19.1745  -40.6740 H         1 UNK         0.0600 
    159 H159       -0.5786  -18.5756  -41.1367 H         1 UNK         0.3000 
    160 H160        1.5734  -17.7963  -41.5260 H         1 UNK         0.0600 
    161 H161        2.5519  -17.8415  -44.4172 H         1 UNK         0.0600 
    162 H162        3.1142  -18.9256  -43.1526 H         1 UNK         0.0600 
    163 H163        3.4113  -17.2012  -43.0203 H         1 UNK         0.0600 
    164 H164        0.9306  -16.1430  -43.8824 H         1 UNK         0.3000 
    165 H165       -1.5661  -14.3052  -42.3470 H         1 UNK         0.0600 
    166 H166       -0.1789  -12.2777  -42.2626 H         1 UNK         0.0600 
    167 H167        0.2243  -13.3194  -40.9086 H         1 UNK         0.0600 
    168 H168        1.3002  -13.2304  -42.2967 H         1 UNK         0.0600 
    169 H169        0.3259  -13.6953  -44.4748 H         1 UNK         0.3000 
    170 H170       -0.5618  -14.8679  -46.9327 H         1 UNK         0.0600 
    171 H171       -3.0544  -15.3119  -47.1082 H         1 UNK         0.0600 
    172 H172       -3.3690  -13.6310  -46.7173 H         1 UNK         0.0600 
    173 H173       -2.5374  -14.0611  -48.2112 H         1 UNK         0.0600 
    174 H174       -0.8449  -12.3623  -45.5533 H         1 UNK         0.3000 
    175 H175        0.1217  -10.2294  -48.2307 H         1 UNK         0.0600 
    176 H176       -1.0333  -10.2765  -45.3808 H         1 UNK         0.0600 
    177 H177       -0.8421   -8.8811  -46.4336 H         1 UNK         0.0600 
    178 H178       -2.0249  -10.1112  -46.8283 H         1 UNK         0.0600 
    179 H179        1.6897  -11.5811  -46.2739 H         1 UNK         0.3000 
    180 H180        4.0927   -8.9112  -46.0151 H         1 UNK         0.0600 
    181 H181        2.8352  -10.9742  -44.1244 H         1 UNK         0.0600 
    182 H182        2.9510   -9.2444  -43.8436 H         1 UNK         0.0600 
    183 H183        4.4129  -10.2157  -43.9201 H         1 UNK         0.0600 
    184 H184        4.1791  -11.8216  -46.0576 H         1 UNK         0.3000 
    185 H185        5.2392  -12.1300  -49.4052 H         1 UNK         0.0600 
    186 H186        7.3882  -11.3750  -48.3927 H         1 UNK         0.0600 
    187 H187        7.0380  -12.2778  -46.9232 H         1 UNK         0.0600 
    188 H188        7.3051  -13.1285  -48.4458 H         1 UNK         0.0600 
    189 H189        5.1480  -13.8376  -47.0463 H         1 UNK         0.3000 
    190 H190       -1.4778  -23.4824  -44.9526 H         1 UNK         0.3000 
    191 H191       -3.4782  -25.1488  -45.9398 H         1 UNK         0.0600 
    192 H192       -0.9641  -25.8722  -44.3533 H         1 UNK         0.0600 
    193 H193       -2.4098  -26.8675  -44.4865 H         1 UNK         0.0600 
    194 H194       -2.4915  -25.3110  -43.6748 H         1 UNK         0.0600 
    195 H195       -0.1390  -24.8891  -47.0699 H         1 UNK         0.3000 
    196 H196       -0.4635  -27.2749  -48.8508 H         1 UNK         0.0600 
    197 H197        2.0213  -27.1865  -48.9858 H         1 UNK         0.0600 
    198 H198        1.4790  -27.3918  -47.3273 H         1 UNK         0.0600 
    199 H199        2.0511  -25.8190  -47.8772 H         1 UNK         0.0600 
    200 H200        0.7411  -23.8744  -48.7661 H         1 UNK         0.3000 
    201 H201        1.3658  -23.7697  -51.5347 H         1 UNK         0.0600 
    202 H202        2.4682  -22.3732  -49.7839 H         1 UNK         0.0600 
    203 H203        0.9537  -21.5148  -49.5041 H         1 UNK         0.0600 
    204 H204        1.7832  -21.3598  -51.0476 H         1 UNK         0.0600 
    205 H205       -1.5023  -22.6677  -49.7071 H         1 UNK         0.3000 
    206 H206       -2.8000  -21.7248  -52.2304 H         1 UNK         0.0600 
    207 H207       -4.1014  -20.2491  -50.8075 H         1 UNK         0.0600 
    208 H208       -3.4839  -21.0114  -49.3486 H         1 UNK         0.0600 
    209 H209       -2.4162  -20.0430  -50.3550 H         1 UNK         0.0600 
    210 H210       -2.6174  -24.4377  -50.4868 H         1 UNK         0.3000 
    211 H211       -3.8248  -26.2249  -49.9996 H         1 UNK         0.0600 
    212 H212       -5.6810  -25.2710  -52.2412 H         1 UNK         0.0600 
    213 H213       -5.6176  -26.8996  -51.5824 H         1 UNK         0.0600 
    214 H214       -4.2322  -26.2479  -52.4424 H         1 UNK         0.0600 
    215 H215       -4.1428  -24.2078  -48.2500 H         1 UNK         0.3000 
    216 H216       -5.2103  -23.6145  -46.4129 H         1 UNK         0.0600 
    217 H217       -7.0604  -24.9125  -45.4687 H         1 UNK         0.0600 
    218 H218       -5.8639  -26.0152  -46.1311 H         1 UNK         0.0600 
    219 H219       -7.3649  -25.7097  -47.0027 H         1 UNK         0.0600 
    220 H220       -5.3066  -21.9157  -48.2567 H         1 UNK         0.3000 
    221 H221       -6.1708  -20.0283  -48.9838 H         1 UNK         0.0600 
    222 H222       -8.3483  -20.3613  -46.8581 H         1 UNK         0.0600 
    223 H223       -6.7358  -19.7128  -46.5642 H         1 UNK         0.0600 
    224 H224       -7.8455  -18.8607  -47.6229 H         1 UNK         0.0600 
    225 H225       -6.8601  -22.3044  -50.4898 H         1 UNK         0.3000 
    226 H226       -9.5728  -21.8278  -51.5670 H         1 UNK         0.0600 
    227 H227       -8.6617  -24.1702  -51.2819 H         1 UNK         0.0600 
    228 H228       -9.0708  -23.7911  -52.9490 H         1 UNK         0.0600 
    229 H229       -7.3894  -23.7849  -52.4401 H         1 UNK         0.0600 
    230 H230       -6.6454  -20.3461  -51.8022 H         1 UNK         0.3000 
    231 H231       -5.6619  -18.8566  -53.0957 H         1 UNK         0.0600 
    232 H232       -7.9448  -17.8549  -53.3713 H         1 UNK         0.0600 
    233 H233       -8.1648  -18.7822  -54.8554 H         1 UNK         0.0600 
    234 H234       -6.9057  -17.5616  -54.7554 H         1 UNK         0.0600 
    235 H235       -5.2381  -21.6651  -53.5418 H         1 UNK         0.3000 
    236 H236       -4.6401  -22.0673  -56.3538 H         1 UNK         0.0600 
    237 H237       -3.6009  -24.1424  -55.5614 H         1 UNK         0.0600 
    238 H238       -3.6100  -23.5845  -53.8982 H         1 UNK         0.0600 
    239 H239       -5.1302  -23.9337  -54.7224 H         1 UNK         0.0600 
    240 H240       -3.1552  -20.1958  -53.9488 H         1 UNK         0.3000 
    241 H241       -0.3878  -20.5368  -54.5757 H         1 UNK         0.0600 
    242 H242        0.4770  -17.8772  -56.8033 H         1 UNK         0.3800 
    243 H243        1.0946  -18.8840  -55.5265 H         1 UNK         0.3800 
    244 H244       -0.1020  -18.4759  -53.1372 H         1 UNK         0.0800 
    245 H245       -0.9197  -19.7960  -52.3647 H         1 UNK         0.0800 
    246 H246       -0.7629  -16.3281  -52.1538 H         1 UNK         0.0800 
    247 H247       -2.3284  -15.9008  -51.5182 H         1 UNK         0.0800 
@<TRIPOS>BOND
     1    1    2 1    
     2    1  127 1    
     3    1  128 1    
     4    1  129 1    
     5    2    3 2    
     6    2    4 am   BACKBONE|DICT|INTERRES
     7    4    5 1    
     8    4  130 1    
     9    5    6 1    
    10    5   65 1    
    11    5  131 1    
    12    6    7 1    
    13    6  132 1    
    14    6  133 1    
    15    7    8 1    
    16    8    9 1    
    17    8  134 1    
    18    8  135 1    
    19    9   10 ar   
    20    9   14 ar   
    21   10   11 ar   
    22   10  136 1    
    23   11   12 ar   
    24   11  126 1    
    25   12   13 ar   
    26   12  137 1    
    27   13   14 ar   
    28   13   15 1    
    29   14  138 1    
    30   15   16 1    
    31   15  139 1    
    32   15  140 1    
    33   16   17 1    
    34   17   18 1    
    35   17  141 1    
    36   17  142 1    
    37   18   19 1    
    38   18   67 1    
    39   18  143 1    
    40   19   20 am   BACKBONE|DICT|INTERRES
    41   19  144 1    
    42   20   21 2    
    43   20   22 1    
    44   22   23 1    
    45   22   24 1    
    46   22  145 1    
    47   23  146 1    
    48   23  147 1    
    49   23  148 1    
    50   24   25 am   BACKBONE|DICT|INTERRES
    51   24  149 1    
    52   25   26 2    
    53   25   27 1    
    54   27   28 1    
    55   27   29 1    
    56   27  150 1    
    57   28  151 1    
    58   28  152 1    
    59   28  153 1    
    60   29   30 am   BACKBONE|DICT|INTERRES
    61   29  154 1    
    62   30   31 2    
    63   30   32 1    
    64   32   33 1    
    65   32   34 1    
    66   32  155 1    
    67   33  156 1    
    68   33  157 1    
    69   33  158 1    
    70   34   35 am   BACKBONE|DICT|INTERRES
    71   34  159 1    
    72   35   36 2    
    73   35   37 1    
    74   37   38 1    
    75   37   39 1    
    76   37  160 1    
    77   38  161 1    
    78   38  162 1    
    79   38  163 1    
    80   39   40 am   BACKBONE|DICT|INTERRES
    81   39  164 1    
    82   40   41 2    
    83   40   42 1    
    84   42   43 1    
    85   42   44 1    
    86   42  165 1    
    87   43  166 1    
    88   43  167 1    
    89   43  168 1    
    90   44   45 am   BACKBONE|DICT|INTERRES
    91   44  169 1    
    92   45   46 2    
    93   45   47 1    
    94   47   48 1    
    95   47   49 1    
    96   47  170 1    
    97   48  171 1    
    98   48  172 1    
    99   48  173 1    
   100   49   50 am   BACKBONE|DICT|INTERRES
   101   49  174 1    
   102   50   51 2    
   103   50   52 1    
   104   52   53 1    
   105   52   54 1    
   106   52  175 1    
   107   53  176 1    
   108   53  177 1    
   109   53  178 1    
   110   54   55 am   BACKBONE|DICT|INTERRES
   111   54  179 1    
   112   55   56 2    
   113   55   57 1    
   114   57   58 1    
   115   57   59 1    
   116   57  180 1    
   117   58  181 1    
   118   58  182 1    
   119   58  183 1    
   120   59   60 am   BACKBONE|DICT|INTERRES
   121   59  184 1    
   122   60   61 2    
   123   60   62 1    
   124   62   63 1    
   125   62   64 1    
   126   62  185 1    
   127   63  186 1    
   128   63  187 1    
   129   63  188 1    
   130   64   65 am   BACKBONE|DICT|INTERRES
   131   64  189 1    
   132   65   66 2    
   133   67   68 2    
   134   67   69 am   BACKBONE|DICT|INTERRES
   135   69   70 1    
   136   69  190 1    
   137   70   71 1    
   138   70   72 1    
   139   70  191 1    
   140   71  192 1    
   141   71  193 1    
   142   71  194 1    
   143   72   73 2    
   144   72   74 am   BACKBONE|DICT|INTERRES
   145   74   75 1    
   146   74  195 1    
   147   75   76 1    
   148   75   77 1    
   149   75  196 1    
   150   76  197 1    
   151   76  198 1    
   152   76  199 1    
   153   77   78 2    
   154   77   79 am   BACKBONE|DICT|INTERRES
   155   79   80 1    
   156   79  200 1    
   157   80   81 1    
   158   80   82 1    
   159   80  201 1    
   160   81  202 1    
   161   81  203 1    
   162   81  204 1    
   163   82   83 2    
   164   82   84 am   BACKBONE|DICT|INTERRES
   165   84   85 1    
   166   84  205 1    
   167   85   86 1    
   168   85   87 1    
   169   85  206 1    
   170   86  207 1    
   171   86  208 1    
   172   86  209 1    
   173   87   88 2    
   174   87   89 am   BACKBONE|DICT|INTERRES
   175   89   90 1    
   176   89  210 1    
   177   90   91 1    
   178   90   92 1    
   179   90  211 1    
   180   91  212 1    
   181   91  213 1    
   182   91  214 1    
   183   92   93 2    
   184   92   94 am   BACKBONE|DICT|INTERRES
   185   94   95 1    
   186   94  215 1    
   187   95   96 1    
   188   95   97 1    
   189   95  216 1    
   190   96  217 1    
   191   96  218 1    
   192   96  219 1    
   193   97   98 2    
   194   97   99 am   BACKBONE|DICT|INTERRES
   195   99  100 1    
   196   99  220 1    
   197  100  101 1    
   198  100  102 1    
   199  100  221 1    
   200  101  222 1    
   201  101  223 1    
   202  101  224 1    
   203  102  103 2    
   204  102  104 am   BACKBONE|DICT|INTERRES
   205  104  105 1    
   206  104  225 1    
   207  105  106 1    
   208  105  107 1    
   209  105  226 1    
   210  106  227 1    
   211  106  228 1    
   212  106  229 1    
   213  107  108 2    
   214  107  109 am   BACKBONE|DICT|INTERRES
   215  109  110 1    
   216  109  230 1    
   217  110  111 1    
   218  110  112 1    
   219  110  231 1    
   220  111  232 1    
   221  111  233 1    
   222  111  234 1    
   223  112  113 2    
   224  112  114 am   BACKBONE|DICT|INTERRES
   225  114  115 1    
   226  114  235 1    
   227  115  116 1    
   228  115  117 1    
   229  115  236 1    
   230  116  237 1    
   231  116  238 1    
   232  116  239 1    
   233  117  118 2    
   234  117  119 am   BACKBONE|DICT|INTERRES
   235  119  120 1    
   236  119  240 1    
   237  120  121 1    
   238  120  124 1    
   239  120  241 1    
   240  121  122 am   BACKBONE|DICT|INTERRES
   241  121  123 2    
   242  122  242 1    
   243  122  243 1    
   244  124  125 1    
   245  124  244 1    
   246  124  245 1    
   247  125  126 1    
   248  126  246 1    
   249  126  247 1    
@<TRIPOS>SUBSTRUCTURE
     1 UNK         1 GROUP             0       ****    0 ROOT    
