@<TRIPOS>MOLECULE
3R540
247   249    1
SMALL
USER_CHARGES


@<TRIPOS>ATOM
      1 CA         -6.4828  -14.9240  -47.3800 C.3       0 UNK        -0.1800 
      2 C          -5.8127  -16.1695  -46.8081 C.2       0 UNK         0.5000 
      3 O          -6.4805  -17.1845  -46.6265 O.2       0 UNK        -0.5000 
      4 N          -4.5090  -16.1454  -46.5086 N.am      1 UNK        -0.5000 
      5 CA         -3.5612  -15.0358  -46.6565 C.3       1 UNK         0.1400 
      6 C6         -2.4521  -15.3532  -47.6940 C.3       23 UNK        -0.0398 
      7 S7         -3.1056  -15.7356  -49.3516 S.3       23 UNK        -0.2404 
      8 C8         -1.5789  -15.7003  -50.3374 C.3       23 UNK        -0.0205 
      9 C9         -0.7454  -16.9634  -50.1703 C.ar      23 UNK        -0.0193 
     10 C10        -0.9320  -18.0413  -51.0400 C.ar      23 UNK        -0.1150 
     11 C11        -0.1029  -19.1646  -50.9697 C.ar      23 UNK        -0.0193 
     12 C12         0.8890  -19.2246  -49.9870 C.ar      23 UNK        -0.1150 
     13 C13         1.0697  -18.1654  -49.0925 C.ar      23 UNK        -0.0193 
     14 C14         0.2523  -17.0346  -49.1925 C.ar      23 UNK        -0.1150 
     15 C15         2.1868  -18.2220  -48.0592 C.3       23 UNK        -0.0205 
     16 S16         1.8800  -19.4607  -46.7592 S.3       23 UNK        -0.2404 
     17 C17         0.4764  -18.7282  -45.8570 C.3       23 UNK        -0.0398 
     18 CA         -0.7708  -19.6377  -45.8506 C.3       11 UNK         0.1400 
     19 N          -0.4794  -20.9491  -45.2661 N.am      11 UNK        -0.5000 
     20 C          -1.3348  -21.9624  -45.0761 C.2       10 UNK         0.5000 
     21 O          -2.5051  -21.9509  -45.4624 O.2       10 UNK        -0.5000 
     22 CA         -0.8074  -23.1529  -44.2511 C.3       10 UNK         0.1400 
     23 CB         -0.3333  -24.2786  -45.1813 C.3       10 UNK        -0.1800 
     24 N           0.2863  -22.8009  -43.3361 N.am      10 UNK        -0.5000 
     25 C           0.2514  -21.8738  -42.3684 C.2       9 UNK         0.5000 
     26 O          -0.7409  -21.1850  -42.1295 O.2       9 UNK        -0.5000 
     27 CA          1.5459  -21.6192  -41.5721 C.3       9 UNK         0.1400 
     28 CB          1.5872  -22.4743  -40.2922 C.3       9 UNK        -0.1800 
     29 N           2.7918  -21.7454  -42.3434 N.am      9 UNK        -0.5000 
     30 C           3.3614  -22.8445  -42.8660 C.2       8 UNK         0.5000 
     31 O           2.8390  -23.9592  -42.8448 O.2       8 UNK        -0.5000 
     32 CA          4.7350  -22.6777  -43.5514 C.3       8 UNK         0.1400 
     33 CB          4.5622  -22.6554  -45.0786 C.3       8 UNK        -0.1800 
     34 N           5.4534  -21.4687  -43.1458 N.am      8 UNK        -0.5000 
     35 C           5.9066  -21.2015  -41.9124 C.2       7 UNK         0.5000 
     36 O           5.8964  -22.0198  -40.9923 O.2       7 UNK        -0.5000 
     37 CA          6.4285  -19.7711  -41.6486 C.3       7 UNK         0.1400 
     38 CB          7.9566  -19.7787  -41.4858 C.3       7 UNK        -0.1800 
     39 N           6.0695  -18.7789  -42.6718 N.am      7 UNK        -0.5000 
     40 C           4.8277  -18.4194  -43.0261 C.2       6 UNK         0.5000 
     41 O           3.8062  -18.9190  -42.5443 O.2       6 UNK        -0.5000 
     42 CA          4.7311  -17.3838  -44.1620 C.3       6 UNK         0.1400 
     43 CB          5.1923  -18.0008  -45.4939 C.3       6 UNK        -0.1800 
     44 N           3.3630  -16.8999  -44.3286 N.am      6 UNK        -0.5000 
     45 C           2.7968  -15.9416  -43.5868 C.2       5 UNK         0.5000 
     46 O           3.3876  -15.3031  -42.7123 O.2       5 UNK        -0.5000 
     47 CA          1.3069  -15.6696  -43.8607 C.3       5 UNK         0.1400 
     48 CB          0.4166  -16.3927  -42.8375 C.3       5 UNK        -0.1800 
     49 N           0.9946  -14.2425  -43.8590 N.am      5 UNK        -0.5000 
     50 C           1.3863  -13.3851  -44.8113 C.2       4 UNK         0.5000 
     51 O           2.0579  -13.7193  -45.7896 O.2       4 UNK        -0.5000 
     52 CA          0.9233  -11.9256  -44.6542 C.3       4 UNK         0.1400 
     53 CB          1.0312  -11.1121  -45.9591 C.3       4 UNK        -0.1800 
     54 N          -0.4512  -11.8747  -44.1570 N.am      4 UNK        -0.5000 
     55 C          -0.9438  -10.9178  -43.3589 C.2       3 UNK         0.5000 
     56 O          -0.2713   -9.9766  -42.9350 O.2       3 UNK        -0.5000 
     57 CA         -2.4351  -11.0032  -42.9665 C.3       3 UNK         0.1400 
     58 CB         -3.2608   -9.9991  -43.7860 C.3       3 UNK        -0.1800 
     59 N          -3.0235  -12.3337  -43.1285 N.am      3 UNK        -0.5000 
     60 C          -2.7077  -13.4097  -42.3965 C.2       2 UNK         0.5000 
     61 O          -1.9063  -13.3880  -41.4621 O.2       2 UNK        -0.5000 
     62 CA         -3.3700  -14.7446  -42.7921 C.3       2 UNK         0.1400 
     63 CB         -4.6043  -15.0101  -41.9170 C.3       2 UNK        -0.1800 
     64 N          -3.7544  -14.8749  -44.2048 N.am      2 UNK        -0.5000 
     65 C          -2.9601  -14.7007  -45.2741 C.2       1 UNK         0.5000 
     66 O          -1.8010  -14.2961  -45.1927 O.2       1 UNK        -0.5000 
     67 C          -1.9394  -18.9050  -45.1555 C.2       11 UNK         0.5000 
     68 O          -2.6066  -18.1077  -45.8095 O.2       11 UNK        -0.5000 
     69 N          -2.2318  -19.2201  -43.8836 N.am      12 UNK        -0.5000 
     70 CA         -3.4106  -18.7321  -43.1590 C.3       12 UNK         0.1400 
     71 CB         -3.3295  -19.1848  -41.6947 C.3       12 UNK        -0.1800 
     72 C          -4.7605  -19.1463  -43.7874 C.2       12 UNK         0.5000 
     73 O          -5.7645  -18.4826  -43.5320 O.2       12 UNK        -0.5000 
     74 N          -4.7516  -20.2018  -44.6127 N.am      13 UNK        -0.5000 
     75 CA         -5.8639  -20.6424  -45.4548 C.3       13 UNK         0.1400 
     76 CB         -6.3156  -22.0354  -44.9804 C.3       13 UNK        -0.1800 
     77 C          -5.4524  -20.6450  -46.9435 C.2       13 UNK         0.5000 
     78 O          -6.0011  -21.4227  -47.7268 O.2       13 UNK        -0.5000 
     79 N          -4.4540  -19.8184  -47.3003 N.am      14 UNK        -0.5000 
     80 CA         -3.8412  -19.6532  -48.6272 C.3       14 UNK         0.1400 
     81 CB         -4.8404  -18.9953  -49.5989 C.3       14 UNK        -0.1800 
     82 C          -3.2346  -20.9535  -49.2001 C.2       14 UNK         0.5000 
     83 O          -3.1031  -21.0861  -50.4161 O.2       14 UNK        -0.5000 
     84 N          -2.9065  -21.9027  -48.3095 N.am      15 UNK        -0.5000 
     85 CA         -2.4815  -23.2754  -48.5853 C.3       15 UNK         0.1400 
     86 CB         -1.0353  -23.2984  -49.1145 C.3       15 UNK        -0.1800 
     87 C          -3.4989  -24.0793  -49.4283 C.2       15 UNK         0.5000 
     88 O          -3.1102  -24.9546  -50.2045 O.2       15 UNK        -0.5000 
     89 N          -4.7933  -23.7785  -49.2303 N.am      16 UNK        -0.5000 
     90 CA         -5.9616  -24.4071  -49.8480 C.3       16 UNK         0.1400 
     91 CB         -6.1626  -25.8307  -49.2812 C.3       16 UNK        -0.1800 
     92 C          -5.9077  -24.3383  -51.3882 C.2       16 UNK         0.5000 
     93 O          -5.9500  -23.2403  -51.9438 O.2       16 UNK        -0.5000 
     94 N          -5.8027  -25.4976  -52.0524 N.am      17 UNK        -0.5000 
     95 CA         -5.7535  -25.6450  -53.5095 C.3       17 UNK         0.1400 
     96 CB         -5.7804  -27.1407  -53.8587 C.3       17 UNK        -0.1800 
     97 C          -4.5471  -24.9579  -54.1799 C.2       17 UNK         0.5000 
     98 O          -4.6268  -24.6265  -55.3638 O.2       17 UNK        -0.5000 
     99 N          -3.4667  -24.7242  -53.4196 N.am      18 UNK        -0.5000 
    100 CA        -2.2719  -24.0145  -53.8795 C.3       18 UNK         0.1400 
    101 CB        -1.1464  -24.1853  -52.8538 C.3       18 UNK        -0.1800 
    102 C         -2.5110  -22.5213  -54.1733 C.2       18 UNK         0.5000 
    103 O         -1.7085  -21.9265  -54.8911 O.2       18 UNK        -0.5000 
    104 N         -3.6147  -21.9422  -53.6743 N.am      19 UNK        -0.5000 
    105 CA        -4.0299  -20.5596  -53.9339 C.3       19 UNK         0.1400 
    106 CB        -5.3425  -20.2755  -53.1918 C.3       19 UNK        -0.1800 
    107 C         -4.1861  -20.2344  -55.4328 C.2       19 UNK         0.5000 
    108 O         -3.8926  -19.1119  -55.8445 O.2       19 UNK        -0.5000 
    109 N         -4.5928  -21.2358  -56.2266 N.am      20 UNK        -0.5000 
    110 CA        -4.6984  -21.1574  -57.6836 C.3       20 UNK         0.1400 
    111 CB        -5.4681  -22.3856  -58.1922 C.3       20 UNK        -0.1800 
    112 C         -3.3339  -21.0434  -58.3938 C.2       20 UNK         0.5000 
    113 O         -3.2750  -20.4851  -59.4900 O.2       20 UNK        -0.5000 
    114 N         -2.2694  -21.5642  -57.7676 N.am      21 UNK        -0.5000 
    115 CA        -0.8930  -21.4530  -58.2473 C.3       21 UNK         0.1400 
    116 CB        -0.0941  -22.6948  -57.8192 C.3       21 UNK        -0.1800 
    117 C         -0.2305  -20.1656  -57.7288 C.2       21 UNK         0.5000 
    118 O          0.4706  -19.4994  -58.4917 O.2       21 UNK        -0.5000 
    119 N         -0.4678  -19.8360  -56.4514 N.am      22 UNK        -0.5000 
    120 CA         0.0301  -18.6147  -55.7983 C.3       22 UNK         0.1400 
    121 C         -0.5823  -17.3029  -56.3661 C.2       22 UNK         0.5000 
    122 N         -1.8602  -17.2747  -56.7241 N.am      22 UNK        -0.7600 
    123 O          0.1133  -16.2980  -56.4851 O.2       22 UNK        -0.5000 
    124 C124       -0.1469  -18.6568  -54.2611 C.3       23 UNK        -0.0398 
    125 S125        0.7507  -20.0319  -53.4644 S.3       23 UNK        -0.2404 
    126 C126       -0.2581  -20.3001  -51.9713 C.3       23 UNK        -0.0205 
    127 H127       -5.9967  -14.6152  -48.3057 H         1 UNK         0.0600 
    128 H128       -6.4433  -14.1012  -46.6662 H         1 UNK         0.0600 
    129 H129       -7.5311  -15.1219  -47.6050 H         1 UNK         0.0600 
    130 H130       -4.0668  -16.9870  -46.1524 H         1 UNK         0.3000 
    131 H131       -4.0671  -14.1269  -46.9817 H         1 UNK         0.0600 
    132 H132       -1.8445  -16.1957  -47.3634 H         1 UNK         0.0800 
    133 H133       -1.7728  -14.5042  -47.7899 H         1 UNK         0.0800 
    134 H134       -0.9894  -14.8192  -50.0795 H         1 UNK         0.0800 
    135 H135       -1.8499  -15.5791  -51.3872 H         1 UNK         0.0800 
    136 H136       -1.7025  -17.9892  -51.7956 H         1 UNK         0.1150 
    137 H137        1.5349  -20.0895  -49.9279 H         1 UNK         0.1150 
    138 H138        0.4076  -16.1980  -48.5258 H         1 UNK         0.1150 
    139 H139        3.1207  -18.4729  -48.5640 H         1 UNK         0.0800 
    140 H140        2.3458  -17.2447  -47.6005 H         1 UNK         0.0800 
    141 H141        0.2353  -17.7574  -46.2936 H         1 UNK         0.0800 
    142 H142        0.8057  -18.5403  -44.8351 H         1 UNK         0.0800 
    143 H143       -1.0727  -19.8091  -46.8858 H         1 UNK         0.0600 
    144 H144        0.4633  -21.0732  -44.9278 H         1 UNK         0.3000 
    145 H145       -1.6367  -23.5253  -43.6468 H         1 UNK         0.0600 
    146 H146        0.0089  -25.1429  -44.6116 H         1 UNK         0.0600 
    147 H147       -1.1417  -24.6198  -45.8280 H         1 UNK         0.0600 
    148 H148        0.4879  -23.9530  -45.8213 H         1 UNK         0.0600 
    149 H149        1.1432  -23.3413  -43.4158 H         1 UNK         0.3000 
    150 H150        1.5100  -20.5738  -41.2610 H         1 UNK         0.0600 
    151 H151        0.7156  -22.2781  -39.6665 H         1 UNK         0.0600 
    152 H152        2.4723  -22.2490  -39.6970 H         1 UNK         0.0600 
    153 H153        1.5937  -23.5419  -40.5132 H         1 UNK         0.0600 
    154 H154        3.2882  -20.8672  -42.4631 H         1 UNK         0.3000 
    155 H155        5.3451  -23.5420  -43.2819 H         1 UNK         0.0600 
    156 H156        3.9704  -21.7987  -45.4048 H         1 UNK         0.0600 
    157 H157        4.0558  -23.5558  -45.4290 H         1 UNK         0.0600 
    158 H158        5.5266  -22.6099  -45.5848 H         1 UNK         0.0600 
    159 H159        5.5206  -20.7359  -43.8355 H         1 UNK         0.3000 
    160 H160        5.9861  -19.4424  -40.7061 H         1 UNK         0.0600 
    161 H161        8.4570  -20.0751  -42.4085 H         1 UNK         0.0600 
    162 H162        8.2653  -20.4768  -40.7064 H         1 UNK         0.0600 
    163 H163        8.3290  -18.7943  -41.2015 H         1 UNK         0.0600 
    164 H164        6.8477  -18.3321  -43.1354 H         1 UNK         0.3000 
    165 H165        5.3830  -16.5414  -43.9208 H         1 UNK         0.0600 
    166 H166        5.0666  -17.2995  -46.3192 H         1 UNK         0.0600 
    167 H167        6.2488  -18.2690  -45.4612 H         1 UNK         0.0600 
    168 H168        4.6345  -18.9057  -45.7362 H         1 UNK         0.0600 
    169 H169        2.8044  -17.4005  -45.0018 H         1 UNK         0.3000 
    170 H170        1.0639  -16.0533  -44.8526 H         1 UNK         0.0600 
    171 H171        0.4609  -15.9178  -41.8567 H         1 UNK         0.0600 
    172 H172       -0.6213  -16.3994  -43.1665 H         1 UNK         0.0600 
    173 H173        0.7190  -17.4328  -42.7081 H         1 UNK         0.0600 
    174 H174        0.4612  -13.8913  -43.0771 H         1 UNK         0.3000 
    175 H175        1.5932  -11.4793  -43.9164 H         1 UNK         0.0600 
    176 H176        0.3969  -11.5299  -46.7418 H         1 UNK         0.0600 
    177 H177        0.7339  -10.0748  -45.8049 H         1 UNK         0.0600 
    178 H178        2.0556  -11.1006  -46.3332 H         1 UNK         0.0600 
    179 H179       -1.0509  -12.6403  -44.4553 H         1 UNK         0.3000 
    180 H180       -2.5097  -10.7273  -41.9126 H         1 UNK         0.0600 
    181 H181       -4.3029   -9.9897  -43.4659 H         1 UNK         0.0600 
    182 H182       -3.2370  -10.2340  -44.8509 H         1 UNK         0.0600 
    183 H183       -2.8768   -8.9852  -43.6651 H         1 UNK         0.0600 
    184 H184       -3.6871  -12.4470  -43.8802 H         1 UNK         0.3000 
    185 H185       -2.6389  -15.5247  -42.5826 H         1 UNK         0.0600 
    186 H186       -5.0174  -16.0019  -42.1021 H         1 UNK         0.0600 
    187 H187       -4.3520  -14.9591  -40.8569 H         1 UNK         0.0600 
    188 H188       -5.3918  -14.2788  -42.1028 H         1 UNK         0.0600 
    189 H189       -4.6910  -15.2114  -44.3764 H         1 UNK         0.3000 
    190 H190       -1.6593  -19.9013  -43.3936 H         1 UNK         0.3000 
    191 H191       -3.3743  -17.6435  -43.1800 H         1 UNK         0.0600 
    192 H192       -4.1650  -18.7895  -41.1154 H         1 UNK         0.0600 
    193 H193       -2.4116  -18.8329  -41.2233 H         1 UNK         0.0600 
    194 H194       -3.3547  -20.2719  -41.6103 H         1 UNK         0.0600 
    195 H195       -3.8817  -20.7076  -44.7504 H         1 UNK         0.3000 
    196 H196       -6.7076  -19.9550  -45.3674 H         1 UNK         0.0600 
    197 H197       -5.5232  -22.7751  -45.1027 H         1 UNK         0.0600 
    198 H198       -6.5993  -22.0191  -43.9280 H         1 UNK         0.0600 
    199 H199       -7.1829  -22.3829  -45.5430 H         1 UNK         0.0600 
    200 H200       -4.0618  -19.2232  -46.5806 H         1 UNK         0.3000 
    201 H201       -3.0071  -18.9619  -48.4970 H         1 UNK         0.0600 
    202 H202       -4.3537  -18.7271  -50.5373 H         1 UNK         0.0600 
    203 H203       -5.2528  -18.0785  -49.1787 H         1 UNK         0.0600 
    204 H204       -5.6719  -19.6600  -49.8338 H         1 UNK         0.0600 
    205 H205       -3.0367  -21.6975  -47.3242 H         1 UNK         0.3000 
    206 H206       -2.4721  -23.7806  -47.6197 H         1 UNK         0.0600 
    207 H207       -0.3453  -22.9066  -48.3670 H         1 UNK         0.0600 
    208 H208       -0.7094  -24.3108  -49.3552 H         1 UNK         0.0600 
    209 H209       -0.9253  -22.6882  -50.0075 H         1 UNK         0.0600 
    210 H210       -5.0095  -22.9906  -48.6279 H         1 UNK         0.3000 
    211 H211       -6.8236  -23.8089  -49.5492 H         1 UNK         0.0600 
    212 H212       -7.0638  -26.2933  -49.6857 H         1 UNK         0.0600 
    213 H213       -6.2800  -25.8013  -48.1978 H         1 UNK         0.0600 
    214 H214       -5.3202  -26.4876  -49.5004 H         1 UNK         0.0600 
    215 H215       -5.7443  -26.3495  -51.5137 H         1 UNK         0.3000 
    216 H216       -6.6544  -25.1822  -53.9175 H         1 UNK         0.0600 
    217 H217       -4.9148  -27.6639  -53.4503 H         1 UNK         0.0600 
    218 H218       -5.7750  -27.2905  -54.9392 H         1 UNK         0.0600 
    219 H219       -6.6787  -27.6213  -53.4707 H         1 UNK         0.0600 
    220 H220       -3.4858  -24.9962  -52.4435 H         1 UNK         0.3000 
    221 H221       -1.9474  -24.4771  -54.8139 H         1 UNK         0.0600 
    222 H222       -0.9281  -25.2375  -52.6709 H         1 UNK         0.0600 
    223 H223       -1.4162  -23.7266  -51.9061 H         1 UNK         0.0600 
    224 H224       -0.2253  -23.7122  -53.1975 H         1 UNK         0.0600 
    225 H225       -4.2264  -22.4873  -53.0776 H         1 UNK         0.3000 
    226 H226       -3.2602  -19.9026  -53.5275 H         1 UNK         0.0600 
    227 H227       -6.1608  -20.8873  -53.5737 H         1 UNK         0.0600 
    228 H228       -5.2439  -20.4836  -52.1270 H         1 UNK         0.0600 
    229 H229       -5.6336  -19.2296  -53.2955 H         1 UNK         0.0600 
    230 H230       -4.7859  -22.1353  -55.8068 H         1 UNK         0.3000 
    231 H231       -5.2751  -20.2644  -57.9334 H         1 UNK         0.0600 
    232 H232       -4.9470  -23.3135  -57.9522 H         1 UNK         0.0600 
    233 H233       -5.5925  -22.3488  -59.2753 H         1 UNK         0.0600 
    234 H234       -6.4643  -22.4374  -57.7527 H         1 UNK         0.0600 
    235 H235       -2.3872  -21.9468  -56.8376 H         1 UNK         0.3000 
    236 H236       -0.8893  -21.4181  -59.3389 H         1 UNK         0.0600 
    237 H237       -0.0230  -22.7830  -56.7350 H         1 UNK         0.0600 
    238 H238       -0.5518  -23.6078  -58.2001 H         1 UNK         0.0600 
    239 H239        0.9235  -22.6536  -58.2095 H         1 UNK         0.0600 
    240 H240       -0.9971  -20.4787  -55.8688 H         1 UNK         0.3000 
    241 H241        1.1024  -18.5651  -55.9979 H         1 UNK         0.0600 
    242 H242       -2.2470  -16.4227  -57.0970 H         1 UNK         0.3800 
    243 H243       -2.4759  -18.0649  -56.5513 H         1 UNK         0.3800 
    244 H244       -1.2073  -18.7308  -54.0183 H         1 UNK         0.0800 
    245 H245        0.2104  -17.7300  -53.8083 H         1 UNK         0.0800 
    246 H246       -1.3045  -20.4257  -52.2478 H         1 UNK         0.0800 
    247 H247        0.0486  -21.2408  -51.5145 H         1 UNK         0.0800 
@<TRIPOS>BOND
     1    1    2 1    
     2    1  127 1    
     3    1  128 1    
     4    1  129 1    
     5    2    3 2    
     6    2    4 am   BACKBONE|DICT|INTERRES
     7    4    5 1    
     8    4  130 1    
     9    5    6 1    
    10    5   65 1    
    11    5  131 1    
    12    6    7 1    
    13    6  132 1    
    14    6  133 1    
    15    7    8 1    
    16    8    9 1    
    17    8  134 1    
    18    8  135 1    
    19    9   10 ar   
    20    9   14 ar   
    21   10   11 ar   
    22   10  136 1    
    23   11   12 ar   
    24   11  126 1    
    25   12   13 ar   
    26   12  137 1    
    27   13   14 ar   
    28   13   15 1    
    29   14  138 1    
    30   15   16 1    
    31   15  139 1    
    32   15  140 1    
    33   16   17 1    
    34   17   18 1    
    35   17  141 1    
    36   17  142 1    
    37   18   19 1    
    38   18   67 1    
    39   18  143 1    
    40   19   20 am   BACKBONE|DICT|INTERRES
    41   19  144 1    
    42   20   21 2    
    43   20   22 1    
    44   22   23 1    
    45   22   24 1    
    46   22  145 1    
    47   23  146 1    
    48   23  147 1    
    49   23  148 1    
    50   24   25 am   BACKBONE|DICT|INTERRES
    51   24  149 1    
    52   25   26 2    
    53   25   27 1    
    54   27   28 1    
    55   27   29 1    
    56   27  150 1    
    57   28  151 1    
    58   28  152 1    
    59   28  153 1    
    60   29   30 am   BACKBONE|DICT|INTERRES
    61   29  154 1    
    62   30   31 2    
    63   30   32 1    
    64   32   33 1    
    65   32   34 1    
    66   32  155 1    
    67   33  156 1    
    68   33  157 1    
    69   33  158 1    
    70   34   35 am   BACKBONE|DICT|INTERRES
    71   34  159 1    
    72   35   36 2    
    73   35   37 1    
    74   37   38 1    
    75   37   39 1    
    76   37  160 1    
    77   38  161 1    
    78   38  162 1    
    79   38  163 1    
    80   39   40 am   BACKBONE|DICT|INTERRES
    81   39  164 1    
    82   40   41 2    
    83   40   42 1    
    84   42   43 1    
    85   42   44 1    
    86   42  165 1    
    87   43  166 1    
    88   43  167 1    
    89   43  168 1    
    90   44   45 am   BACKBONE|DICT|INTERRES
    91   44  169 1    
    92   45   46 2    
    93   45   47 1    
    94   47   48 1    
    95   47   49 1    
    96   47  170 1    
    97   48  171 1    
    98   48  172 1    
    99   48  173 1    
   100   49   50 am   BACKBONE|DICT|INTERRES
   101   49  174 1    
   102   50   51 2    
   103   50   52 1    
   104   52   53 1    
   105   52   54 1    
   106   52  175 1    
   107   53  176 1    
   108   53  177 1    
   109   53  178 1    
   110   54   55 am   BACKBONE|DICT|INTERRES
   111   54  179 1    
   112   55   56 2    
   113   55   57 1    
   114   57   58 1    
   115   57   59 1    
   116   57  180 1    
   117   58  181 1    
   118   58  182 1    
   119   58  183 1    
   120   59   60 am   BACKBONE|DICT|INTERRES
   121   59  184 1    
   122   60   61 2    
   123   60   62 1    
   124   62   63 1    
   125   62   64 1    
   126   62  185 1    
   127   63  186 1    
   128   63  187 1    
   129   63  188 1    
   130   64   65 am   BACKBONE|DICT|INTERRES
   131   64  189 1    
   132   65   66 2    
   133   67   68 2    
   134   67   69 am   BACKBONE|DICT|INTERRES
   135   69   70 1    
   136   69  190 1    
   137   70   71 1    
   138   70   72 1    
   139   70  191 1    
   140   71  192 1    
   141   71  193 1    
   142   71  194 1    
   143   72   73 2    
   144   72   74 am   BACKBONE|DICT|INTERRES
   145   74   75 1    
   146   74  195 1    
   147   75   76 1    
   148   75   77 1    
   149   75  196 1    
   150   76  197 1    
   151   76  198 1    
   152   76  199 1    
   153   77   78 2    
   154   77   79 am   BACKBONE|DICT|INTERRES
   155   79   80 1    
   156   79  200 1    
   157   80   81 1    
   158   80   82 1    
   159   80  201 1    
   160   81  202 1    
   161   81  203 1    
   162   81  204 1    
   163   82   83 2    
   164   82   84 am   BACKBONE|DICT|INTERRES
   165   84   85 1    
   166   84  205 1    
   167   85   86 1    
   168   85   87 1    
   169   85  206 1    
   170   86  207 1    
   171   86  208 1    
   172   86  209 1    
   173   87   88 2    
   174   87   89 am   BACKBONE|DICT|INTERRES
   175   89   90 1    
   176   89  210 1    
   177   90   91 1    
   178   90   92 1    
   179   90  211 1    
   180   91  212 1    
   181   91  213 1    
   182   91  214 1    
   183   92   93 2    
   184   92   94 am   BACKBONE|DICT|INTERRES
   185   94   95 1    
   186   94  215 1    
   187   95   96 1    
   188   95   97 1    
   189   95  216 1    
   190   96  217 1    
   191   96  218 1    
   192   96  219 1    
   193   97   98 2    
   194   97   99 am   BACKBONE|DICT|INTERRES
   195   99  100 1    
   196   99  220 1    
   197  100  101 1    
   198  100  102 1    
   199  100  221 1    
   200  101  222 1    
   201  101  223 1    
   202  101  224 1    
   203  102  103 2    
   204  102  104 am   BACKBONE|DICT|INTERRES
   205  104  105 1    
   206  104  225 1    
   207  105  106 1    
   208  105  107 1    
   209  105  226 1    
   210  106  227 1    
   211  106  228 1    
   212  106  229 1    
   213  107  108 2    
   214  107  109 am   BACKBONE|DICT|INTERRES
   215  109  110 1    
   216  109  230 1    
   217  110  111 1    
   218  110  112 1    
   219  110  231 1    
   220  111  232 1    
   221  111  233 1    
   222  111  234 1    
   223  112  113 2    
   224  112  114 am   BACKBONE|DICT|INTERRES
   225  114  115 1    
   226  114  235 1    
   227  115  116 1    
   228  115  117 1    
   229  115  236 1    
   230  116  237 1    
   231  116  238 1    
   232  116  239 1    
   233  117  118 2    
   234  117  119 am   BACKBONE|DICT|INTERRES
   235  119  120 1    
   236  119  240 1    
   237  120  121 1    
   238  120  124 1    
   239  120  241 1    
   240  121  122 am   BACKBONE|DICT|INTERRES
   241  121  123 2    
   242  122  242 1    
   243  122  243 1    
   244  124  125 1    
   245  124  244 1    
   246  124  245 1    
   247  125  126 1    
   248  126  246 1    
   249  126  247 1    
@<TRIPOS>SUBSTRUCTURE
     1 UNK         1 GROUP             0       ****    0 ROOT    
