@<TRIPOS>MOLECULE
3R540
247   249    1
SMALL
USER_CHARGES


@<TRIPOS>ATOM
      1 CA         -1.3027  -11.0068  -46.0878 C.3       0 UNK        -0.1800 
      2 C           0.1291  -11.2201  -46.5563 C.2       0 UNK         0.5000 
      3 O           0.9292  -10.2840  -46.5379 O.2       0 UNK        -0.5000 
      4 N           0.4623  -12.4501  -46.9646 N.am      1 UNK        -0.5000 
      5 CA          1.7753  -12.8698  -47.4738 C.3       1 UNK         0.1400 
      6 C6          1.6549  -14.1256  -48.3759 C.3       23 UNK        -0.0398 
      7 S7          0.6315  -13.7971  -49.8500 S.3       23 UNK        -0.2404 
      8 C8          1.1384  -15.1506  -50.9544 C.3       23 UNK        -0.0205 
      9 C9          0.5192  -16.4783  -50.5462 C.ar      23 UNK        -0.0193 
     10 C10        -0.8332  -16.7219  -50.8025 C.ar      23 UNK        -0.1150 
     11 C11        -1.4117  -17.9469  -50.4613 C.ar      23 UNK        -0.0193 
     12 C12        -0.6254  -18.9330  -49.8610 C.ar      23 UNK        -0.1150 
     13 C13         0.7298  -18.7050  -49.6037 C.ar      23 UNK        -0.0193 
     14 C14         1.2962  -17.4724  -49.9432 C.ar      23 UNK        -0.1150 
     15 C15         1.5888  -19.8068  -48.9998 C.3       23 UNK        -0.0205 
     16 S16         1.9681  -19.5379  -47.2371 S.3       23 UNK        -0.2404 
     17 C17         0.3236  -19.5376  -46.4473 C.3       23 UNK        -0.0398 
     18 CA         -0.1118  -20.9248  -45.9152 C.3       11 UNK         0.1400 
     19 N          -1.1535  -20.8075  -44.8923 N.am      11 UNK        -0.5000 
     20 C          -1.6745  -21.8267  -44.1938 C.2       10 UNK         0.5000 
     21 O          -1.2664  -22.9860  -44.2587 O.2       10 UNK        -0.5000 
     22 CA         -2.9013  -21.5027  -43.3250 C.3       10 UNK         0.1400 
     23 CB         -2.4784  -20.9555  -41.9535 C.3       10 UNK        -0.1800 
     24 N          -3.7921  -20.5509  -43.9922 N.am      10 UNK        -0.5000 
     25 C          -4.5643  -20.8593  -45.0445 C.2       9 UNK         0.5000 
     26 O          -4.6446  -21.9919  -45.5198 O.2       9 UNK        -0.5000 
     27 CA         -5.3452  -19.7044  -45.7012 C.3       9 UNK         0.1400 
     28 CB         -6.6707  -19.4559  -44.9674 C.3       9 UNK        -0.1800 
     29 N          -4.5788  -18.4581  -45.7600 N.am      9 UNK        -0.5000 
     30 C          -3.4834  -18.2861  -46.5131 C.2       8 UNK         0.5000 
     31 O          -3.0388  -19.1490  -47.2657 O.2       8 UNK        -0.5000 
     32 CA         -2.7211  -16.9561  -46.3612 C.3       8 UNK         0.1400 
     33 CB         -3.2373  -15.9144  -47.3640 C.3       8 UNK        -0.1800 
     34 N          -2.7676  -16.3957  -45.0081 N.am      8 UNK        -0.5000 
     35 C          -2.3412  -17.0127  -43.8985 C.2       7 UNK         0.5000 
     36 O          -1.8913  -18.1599  -43.8894 O.2       7 UNK        -0.5000 
     37 CA         -2.4202  -16.1983  -42.5922 C.3       7 UNK         0.1400 
     38 CB         -2.4163  -17.0970  -41.3432 C.3       7 UNK        -0.1800 
     39 N          -1.3010  -15.2651  -42.5035 N.am      7 UNK        -0.5000 
     40 C          -1.1570  -14.1524  -43.2346 C.2       6 UNK         0.5000 
     41 O          -2.0289  -13.7144  -43.9866 O.2       6 UNK        -0.5000 
     42 CA          0.1882  -13.4087  -43.1265 C.3       6 UNK         0.1400 
     43 CB          0.0385  -12.1288  -42.2907 C.3       6 UNK        -0.1800 
     44 N           1.2910  -14.2085  -42.5814 N.am      6 UNK        -0.5000 
     45 C           1.8481  -15.2644  -43.1911 C.2       5 UNK         0.5000 
     46 O           1.4055  -15.7608  -44.2273 O.2       5 UNK        -0.5000 
     47 CA          3.1034  -15.8426  -42.5122 C.3       5 UNK         0.1400 
     48 CB          2.7722  -17.0791  -41.6533 C.3       5 UNK        -0.1800 
     49 N           4.1781  -16.0803  -43.4821 N.am      5 UNK        -0.5000 
     50 C           4.3133  -17.0723  -44.3779 C.2       4 UNK         0.5000 
     51 O           3.6228  -18.0911  -44.3929 O.2       4 UNK        -0.5000 
     52 CA          5.4285  -16.8988  -45.4323 C.3       4 UNK         0.1400 
     53 CB          5.0230  -17.4665  -46.8041 C.3       4 UNK        -0.1800 
     54 N           5.7740  -15.4873  -45.6017 N.am      4 UNK        -0.5000 
     55 C           6.9813  -14.9419  -45.4077 C.2       3 UNK         0.5000 
     56 O           7.9826  -15.5899  -45.1011 O.2       3 UNK        -0.5000 
     57 CA          7.0963  -13.4089  -45.5653 C.3       3 UNK         0.1400 
     58 CB          7.6647  -13.0551  -46.9481 C.3       3 UNK        -0.1800 
     59 N           5.8347  -12.6856  -45.3748 N.am      3 UNK        -0.5000 
     60 C           5.1204  -12.6624  -44.2415 C.2       2 UNK         0.5000 
     61 O           5.4680  -13.2279  -43.2043 O.2       2 UNK        -0.5000 
     62 CA          3.7599  -11.9407  -44.2803 C.3       2 UNK         0.1400 
     63 CB          3.9198  -10.4713  -43.8650 C.3       2 UNK        -0.1800 
     64 N           3.0258  -11.9982  -45.5508 N.am      2 UNK        -0.5000 
     65 C           2.7786  -13.0720  -46.3160 C.2       1 UNK         0.5000 
     66 O           3.2903  -14.1751  -46.1298 O.2       1 UNK        -0.5000 
     67 C          -0.5570  -21.8631  -47.0569 C.2       11 UNK         0.5000 
     68 O           0.1790  -22.7847  -47.4075 O.2       11 UNK        -0.5000 
     69 N          -1.7728  -21.6437  -47.5794 N.am      12 UNK        -0.5000 
     70 CA         -2.4017  -22.4660  -48.6112 C.3       12 UNK         0.1400 
     71 CB         -3.7354  -21.8394  -49.0372 C.3       12 UNK        -0.1800 
     72 C          -2.6043  -23.9208  -48.1630 C.2       12 UNK         0.5000 
     73 O          -2.2666  -24.8300  -48.9176 O.2       12 UNK        -0.5000 
     74 N          -3.0949  -24.1183  -46.9308 N.am      13 UNK        -0.5000 
     75 CA         -3.2689  -25.4346  -46.3147 C.3       13 UNK         0.1400 
     76 CB         -3.9828  -25.2857  -44.9631 C.3       13 UNK        -0.1800 
     77 C          -1.9439  -26.2049  -46.1566 C.2       13 UNK         0.5000 
     78 O          -1.9007  -27.3973  -46.4604 O.2       13 UNK        -0.5000 
     79 N          -0.8821  -25.5063  -45.7298 N.am      14 UNK        -0.5000 
     80 CA          0.4751  -26.0444  -45.6145 C.3       14 UNK         0.1400 
     81 CB          1.3564  -25.0498  -44.8436 C.3       14 UNK        -0.1800 
     82 C           1.1021  -26.3884  -46.9799 C.2       14 UNK         0.5000 
     83 O           1.7722  -27.4147  -47.1000 O.2       14 UNK        -0.5000 
     84 N           0.8553  -25.5399  -47.9867 N.am      15 UNK        -0.5000 
     85 CA          1.2990  -25.7219  -49.3710 C.3       15 UNK         0.1400 
     86 CB          1.2121  -24.3687  -50.0966 C.3       15 UNK        -0.1800 
     87 C           0.5017  -26.7919  -50.1464 C.2       15 UNK         0.5000 
     88 O           0.9504  -27.2117  -51.2139 O.2       15 UNK        -0.5000 
     89 N          -0.6642  -27.1888  -49.6148 N.am      16 UNK        -0.5000 
     90 CA         -1.6852  -28.0473  -50.2250 C.3       16 UNK         0.1400 
     91 CB         -1.1527  -29.4767  -50.4576 C.3       16 UNK        -0.1800 
     92 C          -2.3058  -27.4056  -51.4861 C.2       16 UNK         0.5000 
     93 O          -2.5496  -28.0895  -52.4824 O.2       16 UNK        -0.5000 
     94 N          -2.5420  -26.0921  -51.4094 N.am      17 UNK        -0.5000 
     95 CA         -3.1540  -25.2585  -52.4377 C.3       17 UNK         0.1400 
     96 CB         -2.2486  -24.0350  -52.6624 C.3       17 UNK        -0.1800 
     97 C          -4.5498  -24.8038  -51.9812 C.2       17 UNK         0.5000 
     98 O          -4.8685  -24.8642  -50.7910 O.2       17 UNK        -0.5000 
     99 N          -5.3536  -24.3218  -52.9348 N.am      18 UNK        -0.5000 
    100 CA        -6.6222  -23.6524  -52.6626 C.3       18 UNK         0.1400 
    101 CB        -7.5415  -23.7847  -53.8871 C.3       18 UNK        -0.1800 
    102 C         -6.3512  -22.1744  -52.3447 C.2       18 UNK         0.5000 
    103 O         -5.7364  -21.4871  -53.1631 O.2       18 UNK        -0.5000 
    104 N         -6.8378  -21.6993  -51.1904 N.am      19 UNK        -0.5000 
    105 CA        -6.6673  -20.3182  -50.7222 C.3       19 UNK         0.1400 
    106 CB        -7.2625  -20.1814  -49.3130 C.3       19 UNK        -0.1800 
    107 C         -7.2721  -19.2692  -51.6753 C.2       19 UNK         0.5000 
    108 O         -6.7170  -18.1811  -51.8250 O.2       19 UNK        -0.5000 
    109 N         -8.3750  -19.6395  -52.3392 N.am      20 UNK        -0.5000 
    110 CA        -9.0516  -18.8338  -53.3542 C.3       20 UNK         0.1400 
    111 CB       -10.4318  -19.4492  -53.6327 C.3       20 UNK        -0.1800 
    112 C         -8.2535  -18.6893  -54.6659 C.2       20 UNK         0.5000 
    113 O         -8.4981  -17.7358  -55.4063 O.2       20 UNK        -0.5000 
    114 N         -7.3322  -19.6246  -54.9433 N.am      21 UNK        -0.5000 
    115 CA        -6.4809  -19.5972  -56.1314 C.3       21 UNK         0.1400 
    116 CB        -6.0489  -21.0238  -56.5070 C.3       21 UNK        -0.1800 
    117 C         -5.2632  -18.6833  -55.9251 C.2       21 UNK         0.5000 
    118 O         -4.9703  -17.8667  -56.7999 O.2       21 UNK        -0.5000 
    119 N         -4.5812  -18.8284  -54.7805 N.am      22 UNK        -0.5000 
    120 CA        -3.4234  -17.9960  -54.4124 C.3       22 UNK         0.1400 
    121 C         -3.7854  -16.5888  -53.8581 C.2       22 UNK         0.5000 
    122 N         -4.9648  -16.3764  -53.2877 N.am      22 UNK        -0.7600 
    123 O         -2.9836  -15.6649  -53.9632 O.2       22 UNK        -0.5000 
    124 C124       -2.4136  -18.7410  -53.5028 C.3       23 UNK        -0.0398 
    125 S125       -3.1378  -19.4951  -52.0062 S.3       23 UNK        -0.2404 
    126 C126       -2.8839  -18.2052  -50.7442 C.3       23 UNK        -0.0205 
    127 H127       -1.3141  -10.7050  -45.0408 H         1 UNK         0.0600 
    128 H128       -1.9005  -11.9134  -46.1864 H         1 UNK         0.0600 
    129 H129       -1.7772  -10.2215  -46.6760 H         1 UNK         0.0600 
    130 H130       -0.2397  -13.1756  -46.9493 H         1 UNK         0.3000 
    131 H131        2.1781  -12.0635  -48.0908 H         1 UNK         0.0600 
    132 H132        2.6427  -14.4481  -48.7103 H         1 UNK         0.0800 
    133 H133        1.2258  -14.9648  -47.8248 H         1 UNK         0.0800 
    134 H134        0.8214  -14.9092  -51.9700 H         1 UNK         0.0800 
    135 H135        2.2269  -15.2180  -50.9859 H         1 UNK         0.0800 
    136 H136       -1.4330  -15.9557  -51.2742 H         1 UNK         0.1150 
    137 H137       -1.0724  -19.8831  -49.6078 H         1 UNK         0.1150 
    138 H138        2.3446  -17.2948  -49.7483 H         1 UNK         0.1150 
    139 H139        1.1149  -20.7798  -49.1316 H         1 UNK         0.0800 
    140 H140        2.5300  -19.8621  -49.5484 H         1 UNK         0.0800 
    141 H141       -0.4192  -19.1133  -47.1198 H         1 UNK         0.0800 
    142 H142        0.3927  -18.8357  -45.6142 H         1 UNK         0.0800 
    143 H143        0.7480  -21.3877  -45.4259 H         1 UNK         0.0600 
    144 H144       -1.5221  -19.8767  -44.7204 H         1 UNK         0.3000 
    145 H145       -3.4524  -22.4310  -43.1604 H         1 UNK         0.0600 
    146 H146       -3.3456  -20.7218  -41.3358 H         1 UNK         0.0600 
    147 H147       -1.8818  -21.6906  -41.4121 H         1 UNK         0.0600 
    148 H148       -1.8757  -20.0522  -42.0434 H         1 UNK         0.0600 
    149 H149       -3.7170  -19.5852  -43.7065 H         1 UNK         0.3000 
    150 H150       -5.5754  -20.0048  -46.7249 H         1 UNK         0.0600 
    151 H151       -7.2699  -20.3665  -44.9267 H         1 UNK         0.0600 
    152 H152       -7.2670  -18.6990  -45.4773 H         1 UNK         0.0600 
    153 H153       -6.5086  -19.1227  -43.9416 H         1 UNK         0.0600 
    154 H154       -4.8810  -17.7010  -45.1651 H         1 UNK         0.3000 
    155 H155       -1.6727  -17.1519  -46.5931 H         1 UNK         0.0600 
    156 H156       -2.6413  -15.0022  -47.3268 H         1 UNK         0.0600 
    157 H157       -3.1812  -16.2937  -48.3850 H         1 UNK         0.0600 
    158 H158       -4.2763  -15.6466  -47.1682 H         1 UNK         0.0600 
    159 H159       -3.0445  -15.4248  -44.9277 H         1 UNK         0.3000 
    160 H160       -3.3555  -15.6345  -42.5978 H         1 UNK         0.0600 
    161 H161       -1.4848  -17.6569  -41.2495 H         1 UNK         0.0600 
    162 H162       -3.2329  -17.8193  -41.3788 H         1 UNK         0.0600 
    163 H163       -2.5442  -16.5082  -40.4348 H         1 UNK         0.0600 
    164 H164       -0.5177  -15.5589  -41.9398 H         1 UNK         0.3000 
    165 H165        0.4666  -13.1167  -44.1400 H         1 UNK         0.0600 
    166 H166        0.9526  -11.5350  -42.3094 H         1 UNK         0.0600 
    167 H167       -0.7624  -11.4980  -42.6784 H         1 UNK         0.0600 
    168 H168       -0.1971  -12.3540  -41.2500 H         1 UNK         0.0600 
    169 H169        1.6862  -13.8818  -41.7110 H         1 UNK         0.3000 
    170 H170        3.5015  -15.0807  -41.8400 H         1 UNK         0.0600 
    171 H171        2.1262  -16.8057  -40.8184 H         1 UNK         0.0600 
    172 H172        2.2477  -17.8464  -42.2236 H         1 UNK         0.0600 
    173 H173        3.6743  -17.5253  -41.2349 H         1 UNK         0.0600 
    174 H174        4.8233  -15.3053  -43.5751 H         1 UNK         0.3000 
    175 H175        6.2897  -17.4631  -45.0700 H         1 UNK         0.0600 
    176 H176        4.8430  -18.5403  -46.7466 H         1 UNK         0.0600 
    177 H177        4.1108  -16.9973  -47.1761 H         1 UNK         0.0600 
    178 H178        5.8074  -17.3104  -47.5446 H         1 UNK         0.0600 
    179 H179        4.9880  -14.8825  -45.8347 H         1 UNK         0.3000 
    180 H180        7.7978  -13.0569  -44.8062 H         1 UNK         0.0600 
    181 H181        6.9909  -13.3617  -47.7492 H         1 UNK         0.0600 
    182 H182        8.6218  -13.5506  -47.1164 H         1 UNK         0.0600 
    183 H183        7.8351  -11.9825  -47.0429 H         1 UNK         0.0600 
    184 H184        5.4587  -12.2119  -46.1829 H         1 UNK         0.3000 
    185 H185        3.1300  -12.4253  -43.5353 H         1 UNK         0.0600 
    186 H186        4.4351  -10.3869  -42.9071 H         1 UNK         0.0600 
    187 H187        4.4959   -9.9078  -44.5999 H         1 UNK         0.0600 
    188 H188        2.9502   -9.9851  -43.7541 H         1 UNK         0.0600 
    189 H189        2.5256  -11.1512  -45.8056 H         1 UNK         0.3000 
    190 H190       -2.2991  -20.8272  -47.2762 H         1 UNK         0.3000 
    191 H191       -1.7363  -22.4691  -49.4765 H         1 UNK         0.0600 
    192 H192       -4.4617  -21.8368  -48.2250 H         1 UNK         0.0600 
    193 H193       -4.1748  -22.3864  -49.8711 H         1 UNK         0.0600 
    194 H194       -3.5983  -20.8109  -49.3624 H         1 UNK         0.0600 
    195 H195       -3.3902  -23.3151  -46.3851 H         1 UNK         0.3000 
    196 H196       -3.9134  -26.0199  -46.9738 H         1 UNK         0.0600 
    197 H197       -4.1563  -26.2599  -44.5043 H         1 UNK         0.0600 
    198 H198       -4.9536  -24.8040  -45.0809 H         1 UNK         0.0600 
    199 H199       -3.3980  -24.6922  -44.2607 H         1 UNK         0.0600 
    200 H200       -1.0109  -24.5353  -45.4596 H         1 UNK         0.3000 
    201 H201        0.4208  -26.9675  -45.0337 H         1 UNK         0.0600 
    202 H202        0.9582  -24.8625  -43.8462 H         1 UNK         0.0600 
    203 H203        1.4288  -24.0913  -45.3583 H         1 UNK         0.0600 
    204 H204        2.3692  -25.4362  -44.7232 H         1 UNK         0.0600 
    205 H205        0.3540  -24.6788  -47.7842 H         1 UNK         0.3000 
    206 H206        2.3444  -26.0365  -49.3593 H         1 UNK         0.0600 
    207 H207        1.8180  -23.6125  -49.5969 H         1 UNK         0.0600 
    208 H208        1.5729  -24.4483  -51.1227 H         1 UNK         0.0600 
    209 H209        0.1860  -24.0019  -50.1376 H         1 UNK         0.0600 
    210 H210       -0.9496  -26.7288  -48.7598 H         1 UNK         0.3000 
    211 H211       -2.4922  -28.1149  -49.4939 H         1 UNK         0.0600 
    212 H212       -0.3867  -29.5064  -51.2328 H         1 UNK         0.0600 
    213 H213       -1.9564  -30.1446  -50.7693 H         1 UNK         0.0600 
    214 H214       -0.7236  -29.8899  -49.5448 H         1 UNK         0.0600 
    215 H215       -2.3958  -25.6315  -50.5113 H         1 UNK         0.3000 
    216 H216       -3.2526  -25.8096  -53.3751 H         1 UNK         0.0600 
    217 H217       -2.1509  -23.4354  -51.7565 H         1 UNK         0.0600 
    218 H218       -2.6466  -23.3850  -53.4426 H         1 UNK         0.0600 
    219 H219       -1.2476  -24.3378  -52.9704 H         1 UNK         0.0600 
    220 H220       -5.0099  -24.2546  -53.8818 H         1 UNK         0.3000 
    221 H221       -7.1182  -24.1254  -51.8122 H         1 UNK         0.0600 
    222 H222       -7.7633  -24.8305  -54.0999 H         1 UNK         0.0600 
    223 H223       -7.0923  -23.3507  -54.7808 H         1 UNK         0.0600 
    224 H224       -8.4928  -23.2784  -53.7186 H         1 UNK         0.0600 
    225 H225       -7.3311  -22.3262  -50.5713 H         1 UNK         0.3000 
    226 H226       -5.5978  -20.1212  -50.6545 H         1 UNK         0.0600 
    227 H227       -6.8115  -20.8948  -48.6237 H         1 UNK         0.0600 
    228 H228       -7.0848  -19.1832  -48.9103 H         1 UNK         0.0600 
    229 H229       -8.3400  -20.3505  -49.3121 H         1 UNK         0.0600 
    230 H230       -8.7591  -20.5545  -52.1555 H         1 UNK         0.3000 
    231 H231       -9.1996  -17.8306  -52.9487 H         1 UNK         0.0600 
    232 H232      -10.3481  -20.4629  -54.0265 H         1 UNK         0.0600 
    233 H233      -10.9834  -18.8574  -54.3645 H         1 UNK         0.0600 
    234 H234      -11.0370  -19.4884  -52.7269 H         1 UNK         0.0600 
    235 H235       -7.1312  -20.3444  -54.2603 H         1 UNK         0.3000 
    236 H236       -7.0574  -19.2024  -56.9710 H         1 UNK         0.0600 
    237 H237       -6.9137  -21.6674  -56.6678 H         1 UNK         0.0600 
    238 H238       -5.4709  -21.0206  -57.4318 H         1 UNK         0.0600 
    239 H239       -5.4261  -21.4812  -55.7388 H         1 UNK         0.0600 
    240 H240       -4.8725  -19.5242  -54.1047 H         1 UNK         0.3000 
    241 H241       -2.8755  -17.7933  -55.3351 H         1 UNK         0.0600 
    242 H242       -5.1843  -15.4539  -52.9494 H         1 UNK         0.3800 
    243 H243       -5.5966  -17.1421  -53.0782 H         1 UNK         0.3800 
    244 H244       -1.5793  -18.0924  -53.2329 H         1 UNK         0.0800 
    245 H245       -1.9649  -19.5542  -54.0743 H         1 UNK         0.0800 
    246 H246       -3.3885  -17.2892  -51.0516 H         1 UNK         0.0800 
    247 H247       -3.3733  -18.5158  -49.8219 H         1 UNK         0.0800 
@<TRIPOS>BOND
     1    1    2 1    
     2    1  127 1    
     3    1  128 1    
     4    1  129 1    
     5    2    3 2    
     6    2    4 am   BACKBONE|DICT|INTERRES
     7    4    5 1    
     8    4  130 1    
     9    5    6 1    
    10    5   65 1    
    11    5  131 1    
    12    6    7 1    
    13    6  132 1    
    14    6  133 1    
    15    7    8 1    
    16    8    9 1    
    17    8  134 1    
    18    8  135 1    
    19    9   10 ar   
    20    9   14 ar   
    21   10   11 ar   
    22   10  136 1    
    23   11   12 ar   
    24   11  126 1    
    25   12   13 ar   
    26   12  137 1    
    27   13   14 ar   
    28   13   15 1    
    29   14  138 1    
    30   15   16 1    
    31   15  139 1    
    32   15  140 1    
    33   16   17 1    
    34   17   18 1    
    35   17  141 1    
    36   17  142 1    
    37   18   19 1    
    38   18   67 1    
    39   18  143 1    
    40   19   20 am   BACKBONE|DICT|INTERRES
    41   19  144 1    
    42   20   21 2    
    43   20   22 1    
    44   22   23 1    
    45   22   24 1    
    46   22  145 1    
    47   23  146 1    
    48   23  147 1    
    49   23  148 1    
    50   24   25 am   BACKBONE|DICT|INTERRES
    51   24  149 1    
    52   25   26 2    
    53   25   27 1    
    54   27   28 1    
    55   27   29 1    
    56   27  150 1    
    57   28  151 1    
    58   28  152 1    
    59   28  153 1    
    60   29   30 am   BACKBONE|DICT|INTERRES
    61   29  154 1    
    62   30   31 2    
    63   30   32 1    
    64   32   33 1    
    65   32   34 1    
    66   32  155 1    
    67   33  156 1    
    68   33  157 1    
    69   33  158 1    
    70   34   35 am   BACKBONE|DICT|INTERRES
    71   34  159 1    
    72   35   36 2    
    73   35   37 1    
    74   37   38 1    
    75   37   39 1    
    76   37  160 1    
    77   38  161 1    
    78   38  162 1    
    79   38  163 1    
    80   39   40 am   BACKBONE|DICT|INTERRES
    81   39  164 1    
    82   40   41 2    
    83   40   42 1    
    84   42   43 1    
    85   42   44 1    
    86   42  165 1    
    87   43  166 1    
    88   43  167 1    
    89   43  168 1    
    90   44   45 am   BACKBONE|DICT|INTERRES
    91   44  169 1    
    92   45   46 2    
    93   45   47 1    
    94   47   48 1    
    95   47   49 1    
    96   47  170 1    
    97   48  171 1    
    98   48  172 1    
    99   48  173 1    
   100   49   50 am   BACKBONE|DICT|INTERRES
   101   49  174 1    
   102   50   51 2    
   103   50   52 1    
   104   52   53 1    
   105   52   54 1    
   106   52  175 1    
   107   53  176 1    
   108   53  177 1    
   109   53  178 1    
   110   54   55 am   BACKBONE|DICT|INTERRES
   111   54  179 1    
   112   55   56 2    
   113   55   57 1    
   114   57   58 1    
   115   57   59 1    
   116   57  180 1    
   117   58  181 1    
   118   58  182 1    
   119   58  183 1    
   120   59   60 am   BACKBONE|DICT|INTERRES
   121   59  184 1    
   122   60   61 2    
   123   60   62 1    
   124   62   63 1    
   125   62   64 1    
   126   62  185 1    
   127   63  186 1    
   128   63  187 1    
   129   63  188 1    
   130   64   65 am   BACKBONE|DICT|INTERRES
   131   64  189 1    
   132   65   66 2    
   133   67   68 2    
   134   67   69 am   BACKBONE|DICT|INTERRES
   135   69   70 1    
   136   69  190 1    
   137   70   71 1    
   138   70   72 1    
   139   70  191 1    
   140   71  192 1    
   141   71  193 1    
   142   71  194 1    
   143   72   73 2    
   144   72   74 am   BACKBONE|DICT|INTERRES
   145   74   75 1    
   146   74  195 1    
   147   75   76 1    
   148   75   77 1    
   149   75  196 1    
   150   76  197 1    
   151   76  198 1    
   152   76  199 1    
   153   77   78 2    
   154   77   79 am   BACKBONE|DICT|INTERRES
   155   79   80 1    
   156   79  200 1    
   157   80   81 1    
   158   80   82 1    
   159   80  201 1    
   160   81  202 1    
   161   81  203 1    
   162   81  204 1    
   163   82   83 2    
   164   82   84 am   BACKBONE|DICT|INTERRES
   165   84   85 1    
   166   84  205 1    
   167   85   86 1    
   168   85   87 1    
   169   85  206 1    
   170   86  207 1    
   171   86  208 1    
   172   86  209 1    
   173   87   88 2    
   174   87   89 am   BACKBONE|DICT|INTERRES
   175   89   90 1    
   176   89  210 1    
   177   90   91 1    
   178   90   92 1    
   179   90  211 1    
   180   91  212 1    
   181   91  213 1    
   182   91  214 1    
   183   92   93 2    
   184   92   94 am   BACKBONE|DICT|INTERRES
   185   94   95 1    
   186   94  215 1    
   187   95   96 1    
   188   95   97 1    
   189   95  216 1    
   190   96  217 1    
   191   96  218 1    
   192   96  219 1    
   193   97   98 2    
   194   97   99 am   BACKBONE|DICT|INTERRES
   195   99  100 1    
   196   99  220 1    
   197  100  101 1    
   198  100  102 1    
   199  100  221 1    
   200  101  222 1    
   201  101  223 1    
   202  101  224 1    
   203  102  103 2    
   204  102  104 am   BACKBONE|DICT|INTERRES
   205  104  105 1    
   206  104  225 1    
   207  105  106 1    
   208  105  107 1    
   209  105  226 1    
   210  106  227 1    
   211  106  228 1    
   212  106  229 1    
   213  107  108 2    
   214  107  109 am   BACKBONE|DICT|INTERRES
   215  109  110 1    
   216  109  230 1    
   217  110  111 1    
   218  110  112 1    
   219  110  231 1    
   220  111  232 1    
   221  111  233 1    
   222  111  234 1    
   223  112  113 2    
   224  112  114 am   BACKBONE|DICT|INTERRES
   225  114  115 1    
   226  114  235 1    
   227  115  116 1    
   228  115  117 1    
   229  115  236 1    
   230  116  237 1    
   231  116  238 1    
   232  116  239 1    
   233  117  118 2    
   234  117  119 am   BACKBONE|DICT|INTERRES
   235  119  120 1    
   236  119  240 1    
   237  120  121 1    
   238  120  124 1    
   239  120  241 1    
   240  121  122 am   BACKBONE|DICT|INTERRES
   241  121  123 2    
   242  122  242 1    
   243  122  243 1    
   244  124  125 1    
   245  124  244 1    
   246  124  245 1    
   247  125  126 1    
   248  126  246 1    
   249  126  247 1    
@<TRIPOS>SUBSTRUCTURE
     1 UNK         1 GROUP             0       ****    0 ROOT    
