@<TRIPOS>MOLECULE
3R540
247   249    1
SMALL
USER_CHARGES


@<TRIPOS>ATOM
      1 CA          5.3834  -11.1810  -51.9711 C.3       0 UNK        -0.1800 
      2 C           5.0947  -11.8471  -50.6336 C.2       0 UNK         0.5000 
      3 O           6.0243  -12.1513  -49.8847 O.2       0 UNK        -0.5000 
      4 N           3.8117  -12.0659  -50.3209 N.am      1 UNK        -0.5000 
      5 CA          3.3202  -12.7084  -49.0949 C.3       1 UNK         0.1400 
      6 C6          1.9235  -13.3488  -49.3013 C.3       23 UNK        -0.0398 
      7 S7          1.9367  -14.6692  -50.5636 S.3       23 UNK        -0.2404 
      8 C8          2.3958  -16.1187  -49.5511 C.3       23 UNK        -0.0205 
      9 C9          1.6011  -17.3773  -49.8827 C.ar      23 UNK        -0.0193 
     10 C10         0.2184  -17.3221  -50.0872 C.ar      23 UNK        -0.1150 
     11 C11        -0.5234  -18.4889  -50.2832 C.ar      23 UNK        -0.0193 
     12 C12         0.1289  -19.7246  -50.2704 C.ar      23 UNK        -0.1150 
     13 C13         1.5118  -19.7981  -50.0844 C.ar      23 UNK        -0.0193 
     14 C14         2.2429  -18.6197  -49.9009 C.ar      23 UNK        -0.1150 
     15 C15         2.1998  -21.1576  -50.0460 C.3       23 UNK        -0.0205 
     16 S16         3.0866  -21.4787  -48.4816 S.3       23 UNK        -0.2404 
     17 C17         1.8331  -21.0866  -47.2116 C.3       23 UNK        -0.0398 
     18 CA          1.1118  -22.3155  -46.6145 C.3       11 UNK         0.1400 
     19 N           0.3836  -21.9467  -45.4003 N.am      11 UNK        -0.5000 
     20 C          -0.2234  -22.7955  -44.5621 C.2       10 UNK         0.5000 
     21 O          -0.2009  -24.0194  -44.6901 O.2       10 UNK        -0.5000 
     22 CA         -1.0276  -22.1621  -43.4112 C.3       10 UNK         0.1400 
     23 CB         -0.1008  -21.7294  -42.2654 C.3       10 UNK        -0.1800 
     24 N          -1.8319  -21.0195  -43.8508 N.am      10 UNK        -0.5000 
     25 C          -2.8516  -21.1073  -44.7174 C.2       9 UNK         0.5000 
     26 O          -3.2432  -22.1664  -45.2065 O.2       9 UNK        -0.5000 
     27 CA         -3.5223  -19.7898  -45.1440 C.3       9 UNK         0.1400 
     28 CB         -4.5132  -19.3092  -44.0741 C.3       9 UNK        -0.1800 
     29 N          -2.5594  -18.7292  -45.4380 N.am      9 UNK        -0.5000 
     30 C          -1.6466  -18.7848  -46.4181 C.2       8 UNK         0.5000 
     31 O          -1.5382  -19.7314  -47.1951 O.2       8 UNK        -0.5000 
     32 CA         -0.6491  -17.6162  -46.5078 C.3       8 UNK         0.1400 
     33 CB         -1.3038  -16.3844  -47.1487 C.3       8 UNK        -0.1800 
     34 N          -0.0898  -17.2526  -45.2056 N.am      8 UNK        -0.5000 
     35 C           0.6058  -18.0839  -44.4161 C.2       7 UNK         0.5000 
     36 O           0.8903  -19.2409  -44.7186 O.2       7 UNK        -0.5000 
     37 CA          1.0146  -17.5509  -43.0362 C.3       7 UNK         0.1400 
     38 CB          2.2797  -16.6951  -43.1405 C.3       7 UNK        -0.1800 
     39 N          -0.0542  -16.7700  -42.4206 N.am      7 UNK        -0.5000 
     40 C          -1.1851  -17.2994  -41.9359 C.2       6 UNK         0.5000 
     41 O          -1.4297  -18.5070  -41.9250 O.2       6 UNK        -0.5000 
     42 CA         -2.2342  -16.2992  -41.4191 C.3       6 UNK         0.1400 
     43 CB         -1.8736  -15.8076  -40.0091 C.3       6 UNK        -0.1800 
     44 N          -2.3966  -15.1485  -42.3106 N.am      6 UNK        -0.5000 
     45 C          -2.8773  -15.2304  -43.5584 C.2       5 UNK         0.5000 
     46 O          -3.2354  -16.2833  -44.0840 O.2       5 UNK        -0.5000 
     47 CA         -2.9588  -13.9251  -44.3671 C.3       5 UNK         0.1400 
     48 CB         -4.2891  -13.2095  -44.0882 C.3       5 UNK        -0.1800 
     49 N          -1.8555  -12.9879  -44.1463 N.am      5 UNK        -0.5000 
     50 C          -0.5493  -13.2309  -44.3276 C.2       4 UNK         0.5000 
     51 O          -0.0855  -14.3451  -44.5851 O.2       4 UNK        -0.5000 
     52 CA          0.3594  -11.9856  -44.2663 C.3       4 UNK         0.1400 
     53 CB          0.0562  -11.0788  -43.0516 C.3       4 UNK        -0.1800 
     54 N           1.7925  -12.2761  -44.3624 N.am      4 UNK        -0.5000 
     55 C           2.5927  -12.8256  -43.4353 C.2       3 UNK         0.5000 
     56 O           2.1918  -13.2630  -42.3559 O.2       3 UNK        -0.5000 
     57 CA          4.1099  -12.8667  -43.7418 C.3       3 UNK         0.1400 
     58 CB          4.6253  -14.3079  -43.8640 C.3       3 UNK        -0.1800 
     59 N           4.4904  -12.1398  -44.9545 N.am      3 UNK        -0.5000 
     60 C           4.5357  -10.8070  -45.0858 C.2       2 UNK         0.5000 
     61 O           4.3408  -10.0226  -44.1569 O.2       2 UNK        -0.5000 
     62 CA          4.8165  -10.2572  -46.5001 C.3       2 UNK         0.1400 
     63 CB          6.2737   -9.7846  -46.6153 C.3       2 UNK        -0.1800 
     64 N           4.5432  -11.2098  -47.5827 N.am      2 UNK        -0.5000 
     65 C           3.3492  -11.7315  -47.8956 C.2       1 UNK         0.5000 
     66 O           2.3180  -11.4741  -47.2711 O.2       1 UNK        -0.5000 
     67 C           0.1896  -23.0086  -47.6385 C.2       11 UNK         0.5000 
     68 O           0.5471  -24.0685  -48.1522 O.2       11 UNK        -0.5000 
     69 N          -0.9982  -22.4337  -47.8788 N.am      12 UNK        -0.5000 
     70 CA         -2.0328  -23.0053  -48.7397 C.3       12 UNK         0.1400 
     71 CB         -3.1903  -22.0129  -48.9005 C.3       12 UNK        -0.1800 
     72 C          -2.5422  -24.3631  -48.2316 C.2       12 UNK         0.5000 
     73 O          -2.6488  -25.2950  -49.0260 O.2       12 UNK        -0.5000 
     74 N          -2.7918  -24.4736  -46.9188 N.am      13 UNK        -0.5000 
     75 CA         -3.1935  -25.7164  -46.2581 C.3       13 UNK         0.1400 
     76 CB         -3.5444  -25.4377  -44.7891 C.3       13 UNK        -0.1800 
     77 C          -2.1305  -26.8253  -46.3700 C.2       13 UNK         0.5000 
     78 O          -2.4824  -27.9692  -46.6590 O.2       13 UNK        -0.5000 
     79 N          -0.8521  -26.4630  -46.1893 N.am      14 UNK        -0.5000 
     80 CA          0.2977  -27.3547  -46.3600 C.3       14 UNK         0.1400 
     81 CB          1.5652  -26.6632  -45.8355 C.3       14 UNK        -0.1800 
     82 C           0.4889  -27.8166  -47.8182 C.2       14 UNK         0.5000 
     83 O           0.8236  -28.9790  -48.0488 O.2       14 UNK        -0.5000 
     84 N           0.2453  -26.9098  -48.7737 N.am      15 UNK        -0.5000 
     85 CA          0.2781  -27.1738  -50.2144 C.3       15 UNK         0.1400 
     86 CB          0.4058  -25.8331  -50.9566 C.3       15 UNK        -0.1800 
     87 C          -0.9485  -27.9553  -50.7322 C.2       15 UNK         0.5000 
     88 O          -0.9140  -28.4335  -51.8668 O.2       15 UNK        -0.5000 
     89 N          -2.0055  -28.0501  -49.9113 N.am      16 UNK        -0.5000 
     90 CA         -3.3346  -28.5925  -50.2129 C.3       16 UNK         0.1400 
     91 CB         -3.2679  -30.1062  -50.5044 C.3       16 UNK        -0.1800 
     92 C          -4.0610  -27.7841  -51.3111 C.2       16 UNK         0.5000 
     93 O          -4.7161  -28.3598  -52.1825 O.2       16 UNK        -0.5000 
     94 N          -3.9187  -26.4567  -51.2436 N.am      17 UNK        -0.5000 
     95 CA         -4.5125  -25.4734  -52.1421 C.3       17 UNK         0.1400 
     96 CB         -3.3836  -24.5739  -52.6740 C.3       17 UNK        -0.1800 
     97 C          -5.5494  -24.6266  -51.3858 C.2       17 UNK         0.5000 
     98 O          -5.5572  -24.6015  -50.1525 O.2       17 UNK        -0.5000 
     99 N          -6.3933  -23.9158  -52.1418 N.am      18 UNK        -0.5000 
    100 CA        -7.2942  -22.8953  -51.6119 C.3       18 UNK         0.1400 
    101 CB        -8.4488  -22.6731  -52.6019 C.3       18 UNK        -0.1800 
    102 C         -6.5138  -21.5896  -51.3944 C.2       18 UNK         0.5000 
    103 O         -5.8378  -21.1329  -52.3174 O.2       18 UNK        -0.5000 
    104 N         -6.6454  -20.9879  -50.2053 N.am      19 UNK        -0.5000 
    105 CA        -5.9599  -19.7450  -49.8285 C.3       19 UNK         0.1400 
    106 CB        -6.1605  -19.4945  -48.3263 C.3       19 UNK        -0.1800 
    107 C         -6.3948  -18.5158  -50.6530 C.2       19 UNK         0.5000 
    108 O         -5.6346  -17.5554  -50.7590 O.2       19 UNK        -0.5000 
    109 N         -7.5972  -18.5769  -51.2412 N.am      20 UNK        -0.5000 
    110 CA        -8.1460  -17.5655  -52.1449 C.3       20 UNK         0.1400 
    111 CB        -9.6600  -17.7953  -52.2741 C.3       20 UNK        -0.1800 
    112 C         -7.4835  -17.5545  -53.5390 C.2       20 UNK         0.5000 
    113 O         -7.6283  -16.5669  -54.2601 O.2       20 UNK        -0.5000 
    114 N         -6.7789  -18.6358  -53.9045 N.am      21 UNK        -0.5000 
    115 CA        -6.0909  -18.7898  -55.1899 C.3       21 UNK         0.1400 
    116 CB        -6.1117  -20.2768  -55.5843 C.3       21 UNK        -0.1800 
    117 C         -4.6477  -18.2418  -55.1728 C.2       21 UNK         0.5000 
    118 O         -3.9329  -18.3958  -56.1647 O.2       21 UNK        -0.5000 
    119 N         -4.2326  -17.6301  -54.0602 N.am      22 UNK        -0.5000 
    120 CA        -2.8756  -17.1358  -53.8032 C.3       22 UNK         0.1400 
    121 C         -2.8799  -15.8562  -52.9196 C.2       22 UNK         0.5000 
    122 N         -1.7172  -15.2983  -52.6070 N.am      22 UNK        -0.7600 
    123 O         -3.9249  -15.3365  -52.5343 O.2       22 UNK        -0.5000 
    124 C124       -1.9323  -18.2628  -53.2896 C.3       23 UNK        -0.0398 
    125 S125       -2.6261  -19.2845  -51.9400 S.3       23 UNK        -0.2404 
    126 C126       -2.0338  -18.4096  -50.4575 C.3       23 UNK        -0.0205 
    127 H127        5.9120  -10.2406  -51.8153 H         1 UNK         0.0600 
    128 H128        4.4681  -10.9698  -52.5246 H         1 UNK         0.0600 
    129 H129        6.0099  -11.8284  -52.5845 H         1 UNK         0.0600 
    130 H130        3.0950  -11.7802  -50.9727 H         1 UNK         0.3000 
    131 H131        4.0063  -13.5185  -48.8379 H         1 UNK         0.0600 
    132 H132        1.5344  -13.7576  -48.3670 H         1 UNK         0.0800 
    133 H133        1.2031  -12.5904  -49.6124 H         1 UNK         0.0800 
    134 H134        3.4646  -16.2958  -49.6799 H         1 UNK         0.0800 
    135 H135        2.2470  -15.9089  -48.4916 H         1 UNK         0.0800 
    136 H136       -0.2879  -16.3678  -50.0644 H         1 UNK         0.1150 
    137 H137       -0.4478  -20.6302  -50.3953 H         1 UNK         0.1150 
    138 H138        3.3090  -18.6783  -49.7315 H         1 UNK         0.1150 
    139 H139        1.4787  -21.9603  -50.2083 H         1 UNK         0.0800 
    140 H140        2.9103  -21.2163  -50.8713 H         1 UNK         0.0800 
    141 H141        2.3781  -20.5761  -46.4170 H         1 UNK         0.0800 
    142 H142        1.1120  -20.3551  -47.5744 H         1 UNK         0.0800 
    143 H143        1.8719  -23.0410  -46.3170 H         1 UNK         0.0600 
    144 H144        0.3492  -20.9519  -45.1886 H         1 UNK         0.3000 
    145 H145       -1.7098  -22.9226  -43.0258 H         1 UNK         0.0600 
    146 H146        0.4903  -22.5712  -41.9027 H         1 UNK         0.0600 
    147 H147        0.5944  -20.9505  -42.5793 H         1 UNK         0.0600 
    148 H148       -0.6726  -21.3446  -41.4208 H         1 UNK         0.0600 
    149 H149       -1.5810  -20.1116  -43.4781 H         1 UNK         0.3000 
    150 H150       -4.0822  -19.9885  -46.0592 H         1 UNK         0.0600 
    151 H151       -5.2413  -20.0859  -43.8369 H         1 UNK         0.0600 
    152 H152       -5.0690  -18.4366  -44.4178 H         1 UNK         0.0600 
    153 H153       -4.0051  -19.0378  -43.1479 H         1 UNK         0.0600 
    154 H154       -2.6154  -17.8932  -44.8615 H         1 UNK         0.3000 
    155 H155        0.1775  -17.9355  -47.1457 H         1 UNK         0.0600 
    156 H156       -0.5770  -15.5878  -47.3094 H         1 UNK         0.0600 
    157 H157       -1.7434  -16.6296  -48.1146 H         1 UNK         0.0600 
    158 H158       -2.1054  -15.9907  -46.5280 H         1 UNK         0.0600 
    159 H159       -0.2412  -16.2984  -44.8922 H         1 UNK         0.3000 
    160 H160        1.2337  -18.4061  -42.3933 H         1 UNK         0.0600 
    161 H161        2.1155  -15.8267  -43.7781 H         1 UNK         0.0600 
    162 H162        3.1061  -17.2661  -43.5655 H         1 UNK         0.0600 
    163 H163        2.5961  -16.3385  -42.1602 H         1 UNK         0.0600 
    164 H164        0.0443  -15.7647  -42.4473 H         1 UNK         0.3000 
    165 H165       -3.1915  -16.8220  -41.3636 H         1 UNK         0.0600 
    166 H166       -2.6548  -15.1640  -39.6045 H         1 UNK         0.0600 
    167 H167       -1.7568  -16.6467  -39.3219 H         1 UNK         0.0600 
    168 H168       -0.9388  -15.2456  -40.0033 H         1 UNK         0.0600 
    169 H169       -2.1157  -14.2455  -41.9577 H         1 UNK         0.3000 
    170 H170       -2.9433  -14.1922  -45.4242 H         1 UNK         0.0600 
    171 H171       -5.1357  -13.8744  -44.2658 H         1 UNK         0.0600 
    172 H172       -4.3529  -12.8658  -43.0550 H         1 UNK         0.0600 
    173 H173       -4.4171  -12.3444  -44.7391 H         1 UNK         0.0600 
    174 H174       -2.1301  -12.0406  -43.9310 H         1 UNK         0.3000 
    175 H175        0.1314  -11.4105  -45.1649 H         1 UNK         0.0600 
    176 H176        0.1116  -11.6268  -42.1105 H         1 UNK         0.0600 
    177 H177        0.7607  -10.2486  -42.9957 H         1 UNK         0.0600 
    178 H178       -0.9404  -10.6417  -43.1163 H         1 UNK         0.0600 
    179 H179        2.2136  -11.9984  -45.2414 H         1 UNK         0.3000 
    180 H180        4.6168  -12.4006  -42.8944 H         1 UNK         0.0600 
    181 H181        4.1436  -14.8403  -44.6848 H         1 UNK         0.0600 
    182 H182        4.4415  -14.8657  -42.9458 H         1 UNK         0.0600 
    183 H183        5.7013  -14.3283  -44.0378 H         1 UNK         0.0600 
    184 H184        4.6801  -12.6990  -45.7726 H         1 UNK         0.3000 
    185 H185        4.1635   -9.3944  -46.6462 H         1 UNK         0.0600 
    186 H186        6.5093   -9.0478  -45.8461 H         1 UNK         0.0600 
    187 H187        6.9742  -10.6131  -46.5031 H         1 UNK         0.0600 
    188 H188        6.4610   -9.3151  -47.5813 H         1 UNK         0.0600 
    189 H189        5.3286  -11.4677  -48.1734 H         1 UNK         0.3000 
    190 H190       -1.2107  -21.5338  -47.4528 H         1 UNK         0.3000 
    191 H191       -1.5893  -23.1652  -49.7244 H         1 UNK         0.0600 
    192 H192       -2.8441  -21.0894  -49.3586 H         1 UNK         0.0600 
    193 H193       -3.6473  -21.7636  -47.9429 H         1 UNK         0.0600 
    194 H194       -3.9700  -22.4203  -49.5443 H         1 UNK         0.0600 
    195 H195       -2.7220  -23.6469  -46.3316 H         1 UNK         0.3000 
    196 H196       -4.0960  -26.0747  -46.7577 H         1 UNK         0.0600 
    197 H197       -3.8619  -26.3502  -44.2830 H         1 UNK         0.0600 
    198 H198       -4.3615  -24.7206  -44.7092 H         1 UNK         0.0600 
    199 H199       -2.6930  -25.0361  -44.2395 H         1 UNK         0.0600 
    200 H200       -0.6497  -25.5081  -45.9068 H         1 UNK         0.3000 
    201 H201        0.1222  -28.2446  -45.7521 H         1 UNK         0.0600 
    202 H202        1.4646  -26.4040  -44.7814 H         1 UNK         0.0600 
    203 H203        1.7817  -25.7466  -46.3848 H         1 UNK         0.0600 
    204 H204        2.4340  -27.3159  -45.9291 H         1 UNK         0.0600 
    205 H205        0.0442  -25.9534  -48.4958 H         1 UNK         0.3000 
    206 H206        1.1645  -27.7716  -50.4359 H         1 UNK         0.0600 
    207 H207        1.2972  -25.2901  -50.6418 H         1 UNK         0.0600 
    208 H208        0.4815  -25.9854  -52.0339 H         1 UNK         0.0600 
    209 H209       -0.4575  -25.1918  -50.7764 H         1 UNK         0.0600 
    210 H210       -1.9294  -27.5799  -49.0186 H         1 UNK         0.3000 
    211 H211       -3.9233  -28.4608  -49.3039 H         1 UNK         0.0600 
    212 H212       -2.7498  -30.3195  -51.4395 H         1 UNK         0.0600 
    213 H213       -4.2690  -30.5316  -50.5827 H         1 UNK         0.0600 
    214 H214       -2.7517  -30.6380  -49.7051 H         1 UNK         0.0600 
    215 H215       -3.4294  -26.0639  -50.4394 H         1 UNK         0.3000 
    216 H216       -5.0074  -25.9643  -52.9824 H         1 UNK         0.0600 
    217 H217       -2.6316  -25.1590  -53.2039 H         1 UNK         0.0600 
    218 H218       -2.8813  -24.0401  -51.8658 H         1 UNK         0.0600 
    219 H219       -3.7662  -23.8275  -53.3713 H         1 UNK         0.0600 
    220 H220       -6.2994  -23.9474  -53.1466 H         1 UNK         0.3000 
    221 H221       -7.7148  -23.2343  -50.6626 H         1 UNK         0.0600 
    222 H222       -8.0896  -22.3305  -53.5735 H         1 UNK         0.0600 
    223 H223       -9.0146  -23.5915  -52.7591 H         1 UNK         0.0600 
    224 H224       -9.1457  -21.9225  -52.2270 H         1 UNK         0.0600 
    225 H225       -7.2221  -21.4174  -49.4962 H         1 UNK         0.3000 
    226 H226       -4.8935  -19.8880  -50.0078 H         1 UNK         0.0600 
    227 H227       -5.8149  -20.3430  -47.7360 H         1 UNK         0.0600 
    228 H228       -5.5972  -18.6198  -47.9980 H         1 UNK         0.0600 
    229 H229       -7.2096  -19.3216  -48.0838 H         1 UNK         0.0600 
    230 H230       -8.1587  -19.4017  -51.0908 H         1 UNK         0.3000 
    231 H231       -7.9855  -16.5816  -51.6988 H         1 UNK         0.0600 
    232 H232      -10.1176  -17.0398  -52.9142 H         1 UNK         0.0600 
    233 H233      -10.1527  -17.7371  -51.3034 H         1 UNK         0.0600 
    234 H234       -9.8831  -18.7712  -52.7074 H         1 UNK         0.0600 
    235 H235       -6.6534  -19.3949  -53.2442 H         1 UNK         0.3000 
    236 H236       -6.6352  -18.2366  -55.9579 H         1 UNK         0.0600 
    237 H237       -7.1250  -20.6783  -55.5665 H         1 UNK         0.0600 
    238 H238       -5.7254  -20.4189  -56.5943 H         1 UNK         0.0600 
    239 H239       -5.4984  -20.8800  -54.9146 H         1 UNK         0.0600 
    240 H240       -4.8784  -17.5043  -53.2920 H         1 UNK         0.3000 
    241 H241       -2.4751  -16.7864  -54.7566 H         1 UNK         0.0600 
    242 H242       -0.8388  -15.6725  -52.9284 H         1 UNK         0.3800 
    243 H243       -1.7194  -14.4589  -52.0497 H         1 UNK         0.3800 
    244 H244       -1.7271  -18.9432  -54.1168 H         1 UNK         0.0800 
    245 H245       -0.9559  -17.8747  -52.9988 H         1 UNK         0.0800 
    246 H246       -2.3710  -17.3737  -50.4990 H         1 UNK         0.0800 
    247 H247       -2.5102  -18.8395  -49.5774 H         1 UNK         0.0800 
@<TRIPOS>BOND
     1    1    2 1    
     2    1  127 1    
     3    1  128 1    
     4    1  129 1    
     5    2    3 2    
     6    2    4 am   BACKBONE|DICT|INTERRES
     7    4    5 1    
     8    4  130 1    
     9    5    6 1    
    10    5   65 1    
    11    5  131 1    
    12    6    7 1    
    13    6  132 1    
    14    6  133 1    
    15    7    8 1    
    16    8    9 1    
    17    8  134 1    
    18    8  135 1    
    19    9   10 ar   
    20    9   14 ar   
    21   10   11 ar   
    22   10  136 1    
    23   11   12 ar   
    24   11  126 1    
    25   12   13 ar   
    26   12  137 1    
    27   13   14 ar   
    28   13   15 1    
    29   14  138 1    
    30   15   16 1    
    31   15  139 1    
    32   15  140 1    
    33   16   17 1    
    34   17   18 1    
    35   17  141 1    
    36   17  142 1    
    37   18   19 1    
    38   18   67 1    
    39   18  143 1    
    40   19   20 am   BACKBONE|DICT|INTERRES
    41   19  144 1    
    42   20   21 2    
    43   20   22 1    
    44   22   23 1    
    45   22   24 1    
    46   22  145 1    
    47   23  146 1    
    48   23  147 1    
    49   23  148 1    
    50   24   25 am   BACKBONE|DICT|INTERRES
    51   24  149 1    
    52   25   26 2    
    53   25   27 1    
    54   27   28 1    
    55   27   29 1    
    56   27  150 1    
    57   28  151 1    
    58   28  152 1    
    59   28  153 1    
    60   29   30 am   BACKBONE|DICT|INTERRES
    61   29  154 1    
    62   30   31 2    
    63   30   32 1    
    64   32   33 1    
    65   32   34 1    
    66   32  155 1    
    67   33  156 1    
    68   33  157 1    
    69   33  158 1    
    70   34   35 am   BACKBONE|DICT|INTERRES
    71   34  159 1    
    72   35   36 2    
    73   35   37 1    
    74   37   38 1    
    75   37   39 1    
    76   37  160 1    
    77   38  161 1    
    78   38  162 1    
    79   38  163 1    
    80   39   40 am   BACKBONE|DICT|INTERRES
    81   39  164 1    
    82   40   41 2    
    83   40   42 1    
    84   42   43 1    
    85   42   44 1    
    86   42  165 1    
    87   43  166 1    
    88   43  167 1    
    89   43  168 1    
    90   44   45 am   BACKBONE|DICT|INTERRES
    91   44  169 1    
    92   45   46 2    
    93   45   47 1    
    94   47   48 1    
    95   47   49 1    
    96   47  170 1    
    97   48  171 1    
    98   48  172 1    
    99   48  173 1    
   100   49   50 am   BACKBONE|DICT|INTERRES
   101   49  174 1    
   102   50   51 2    
   103   50   52 1    
   104   52   53 1    
   105   52   54 1    
   106   52  175 1    
   107   53  176 1    
   108   53  177 1    
   109   53  178 1    
   110   54   55 am   BACKBONE|DICT|INTERRES
   111   54  179 1    
   112   55   56 2    
   113   55   57 1    
   114   57   58 1    
   115   57   59 1    
   116   57  180 1    
   117   58  181 1    
   118   58  182 1    
   119   58  183 1    
   120   59   60 am   BACKBONE|DICT|INTERRES
   121   59  184 1    
   122   60   61 2    
   123   60   62 1    
   124   62   63 1    
   125   62   64 1    
   126   62  185 1    
   127   63  186 1    
   128   63  187 1    
   129   63  188 1    
   130   64   65 am   BACKBONE|DICT|INTERRES
   131   64  189 1    
   132   65   66 2    
   133   67   68 2    
   134   67   69 am   BACKBONE|DICT|INTERRES
   135   69   70 1    
   136   69  190 1    
   137   70   71 1    
   138   70   72 1    
   139   70  191 1    
   140   71  192 1    
   141   71  193 1    
   142   71  194 1    
   143   72   73 2    
   144   72   74 am   BACKBONE|DICT|INTERRES
   145   74   75 1    
   146   74  195 1    
   147   75   76 1    
   148   75   77 1    
   149   75  196 1    
   150   76  197 1    
   151   76  198 1    
   152   76  199 1    
   153   77   78 2    
   154   77   79 am   BACKBONE|DICT|INTERRES
   155   79   80 1    
   156   79  200 1    
   157   80   81 1    
   158   80   82 1    
   159   80  201 1    
   160   81  202 1    
   161   81  203 1    
   162   81  204 1    
   163   82   83 2    
   164   82   84 am   BACKBONE|DICT|INTERRES
   165   84   85 1    
   166   84  205 1    
   167   85   86 1    
   168   85   87 1    
   169   85  206 1    
   170   86  207 1    
   171   86  208 1    
   172   86  209 1    
   173   87   88 2    
   174   87   89 am   BACKBONE|DICT|INTERRES
   175   89   90 1    
   176   89  210 1    
   177   90   91 1    
   178   90   92 1    
   179   90  211 1    
   180   91  212 1    
   181   91  213 1    
   182   91  214 1    
   183   92   93 2    
   184   92   94 am   BACKBONE|DICT|INTERRES
   185   94   95 1    
   186   94  215 1    
   187   95   96 1    
   188   95   97 1    
   189   95  216 1    
   190   96  217 1    
   191   96  218 1    
   192   96  219 1    
   193   97   98 2    
   194   97   99 am   BACKBONE|DICT|INTERRES
   195   99  100 1    
   196   99  220 1    
   197  100  101 1    
   198  100  102 1    
   199  100  221 1    
   200  101  222 1    
   201  101  223 1    
   202  101  224 1    
   203  102  103 2    
   204  102  104 am   BACKBONE|DICT|INTERRES
   205  104  105 1    
   206  104  225 1    
   207  105  106 1    
   208  105  107 1    
   209  105  226 1    
   210  106  227 1    
   211  106  228 1    
   212  106  229 1    
   213  107  108 2    
   214  107  109 am   BACKBONE|DICT|INTERRES
   215  109  110 1    
   216  109  230 1    
   217  110  111 1    
   218  110  112 1    
   219  110  231 1    
   220  111  232 1    
   221  111  233 1    
   222  111  234 1    
   223  112  113 2    
   224  112  114 am   BACKBONE|DICT|INTERRES
   225  114  115 1    
   226  114  235 1    
   227  115  116 1    
   228  115  117 1    
   229  115  236 1    
   230  116  237 1    
   231  116  238 1    
   232  116  239 1    
   233  117  118 2    
   234  117  119 am   BACKBONE|DICT|INTERRES
   235  119  120 1    
   236  119  240 1    
   237  120  121 1    
   238  120  124 1    
   239  120  241 1    
   240  121  122 am   BACKBONE|DICT|INTERRES
   241  121  123 2    
   242  122  242 1    
   243  122  243 1    
   244  124  125 1    
   245  124  244 1    
   246  124  245 1    
   247  125  126 1    
   248  126  246 1    
   249  126  247 1    
@<TRIPOS>SUBSTRUCTURE
     1 UNK         1 GROUP             0       ****    0 ROOT    
