@<TRIPOS>MOLECULE
3R540
247   249    1
SMALL
USER_CHARGES


@<TRIPOS>ATOM
      1 CA          1.2139  -11.9834  -50.1372 C.3       0 UNK        -0.1800 
      2 C           1.5829  -13.2863  -50.8434 C.2       0 UNK         0.5000 
      3 O           1.8231  -13.2658  -52.0484 O.2       0 UNK        -0.5000 
      4 N           1.6550  -14.4372  -50.1614 N.am      1 UNK        -0.5000 
      5 CA          1.3516  -14.6858  -48.7509 C.3       1 UNK         0.1400 
      6 C6          2.0221  -15.9871  -48.2531 C.3       23 UNK        -0.0398 
      7 S7          3.8461  -15.9151  -48.1999 S.3       23 UNK        -0.2404 
      8 C8          4.3615  -16.4794  -49.8586 C.3       23 UNK        -0.0205 
      9 C9          3.7457  -17.8120  -50.2637 C.ar      23 UNK        -0.0193 
     10 C10         2.7672  -17.8560  -51.2596 C.ar      23 UNK        -0.1150 
     11 C11         2.1865  -19.0694  -51.6331 C.ar      23 UNK        -0.0193 
     12 C12         2.6030  -20.2495  -51.0077 C.ar      23 UNK        -0.1150 
     13 C13         3.5936  -20.2284  -50.0138 C.ar      23 UNK        -0.0193 
     14 C14         4.1553  -18.9993  -49.6511 C.ar      23 UNK        -0.1150 
     15 C15         4.1054  -21.4886  -49.3056 C.3       23 UNK        -0.0205 
     16 S16         3.1765  -23.0343  -49.6085 S.3       23 UNK        -0.2404 
     17 C17         1.5562  -22.6273  -48.8807 C.3       23 UNK        -0.0398 
     18 CA          1.0644  -23.6590  -47.8456 C.3       11 UNK         0.1400 
     19 N           1.9713  -23.8146  -46.7083 N.am      11 UNK        -0.5000 
     20 C           1.9664  -24.8824  -45.8984 C.2       10 UNK         0.5000 
     21 O           1.2327  -25.8570  -46.0629 O.2       10 UNK        -0.5000 
     22 CA          2.8990  -24.8374  -44.6733 C.3       10 UNK         0.1400 
     23 CB          4.2759  -25.4197  -45.0243 C.3       10 UNK        -0.1800 
     24 N           3.0713  -23.4907  -44.1249 N.am      10 UNK        -0.5000 
     25 C           2.0851  -22.7309  -43.6296 C.2       9 UNK         0.5000 
     26 O           0.9139  -23.1048  -43.5603 O.2       9 UNK        -0.5000 
     27 CA          2.4496  -21.3057  -43.1673 C.3       9 UNK         0.1400 
     28 CB          3.9650  -21.0818  -42.9688 C.3       9 UNK        -0.1800 
     29 N           1.9056  -20.2674  -44.0492 N.am      9 UNK        -0.5000 
     30 C           2.0884  -20.1356  -45.3740 C.2       8 UNK         0.5000 
     31 O           2.6551  -20.9813  -46.0659 O.2       8 UNK        -0.5000 
     32 CA          1.5554  -18.8538  -46.0523 C.3       8 UNK         0.1400 
     33 CB          0.6725  -19.1560  -47.2751 C.3       8 UNK        -0.1800 
     34 N           0.8158  -17.9807  -45.1377 N.am      8 UNK        -0.5000 
     35 C           1.3832  -17.0557  -44.3530 C.2       7 UNK         0.5000 
     36 O           2.5913  -16.8222  -44.3337 O.2       7 UNK        -0.5000 
     37 CA          0.4471  -16.2612  -43.4239 C.3       7 UNK         0.1400 
     38 CB          0.0512  -14.9352  -44.0905 C.3       7 UNK        -0.1800 
     39 N          -0.7603  -16.9805  -42.9885 N.am      7 UNK        -0.5000 
     40 C          -0.7538  -18.1156  -42.2681 C.2       6 UNK         0.5000 
     41 O           0.2739  -18.7533  -42.0352 O.2       6 UNK        -0.5000 
     42 CA         -2.0894  -18.6297  -41.6911 C.3       6 UNK         0.1400 
     43 CB         -1.9849  -18.8086  -40.1670 C.3       6 UNK        -0.1800 
     44 N          -3.2137  -17.7349  -41.9682 N.am      6 UNK        -0.5000 
     45 C          -4.1821  -17.9579  -42.8665 C.2       5 UNK         0.5000 
     46 O          -4.2399  -18.9573  -43.5810 O.2       5 UNK        -0.5000 
     47 CA         -5.2742  -16.8752  -42.9988 C.3       5 UNK         0.1400 
     48 CB         -6.5195  -17.2714  -42.1906 C.3       5 UNK        -0.1800 
     49 N          -4.8504  -15.5300  -42.5917 N.am      5 UNK        -0.5000 
     50 C          -3.8659  -14.8371  -43.1748 C.2       4 UNK         0.5000 
     51 O          -3.1681  -15.2844  -44.0912 O.2       4 UNK        -0.5000 
     52 CA         -3.5809  -13.4352  -42.6189 C.3       4 UNK         0.1400 
     53 CB         -2.8671  -13.5113  -41.2568 C.3       4 UNK        -0.1800 
     54 N          -2.7302  -12.7681  -43.5902 N.am      4 UNK        -0.5000 
     55 C          -2.5310  -11.4585  -43.7491 C.2       3 UNK         0.5000 
     56 O          -3.0250  -10.5939  -43.0245 O.2       3 UNK        -0.5000 
     57 CA         -1.6228  -11.0505  -44.9283 C.3       3 UNK         0.1400 
     58 CB         -0.2101  -10.7168  -44.4237 C.3       3 UNK        -0.1800 
     59 N          -1.5187  -12.0818  -45.9701 N.am      3 UNK        -0.5000 
     60 C          -2.5078  -12.4154  -46.8150 C.2       2 UNK         0.5000 
     61 O          -3.6126  -11.8713  -46.8022 O.2       2 UNK        -0.5000 
     62 CA         -2.2139  -13.5290  -47.8413 C.3       2 UNK         0.1400 
     63 CB         -2.9497  -13.3017  -49.1777 C.3       2 UNK        -0.1800 
     64 N          -0.7747  -13.6741  -48.0743 N.am      2 UNK        -0.5000 
     65 C          -0.1763  -14.7676  -48.5608 C.2       1 UNK         0.5000 
     66 O          -0.7738  -15.7997  -48.8790 O.2       1 UNK        -0.5000 
     67 C          -0.3566  -23.2989  -47.3729 C.2       11 UNK         0.5000 
     68 O          -1.3214  -23.7485  -47.9859 O.2       11 UNK        -0.5000 
     69 N          -0.4793  -22.5324  -46.2785 N.am      12 UNK        -0.5000 
     70 CA         -1.7678  -22.1880  -45.6715 C.3       12 UNK         0.1400 
     71 CB         -1.6028  -21.0537  -44.6508 C.3       12 UNK        -0.1800 
     72 C          -2.4419  -23.4125  -45.0322 C.2       12 UNK         0.5000 
     73 O          -3.6461  -23.5984  -45.2028 O.2       12 UNK        -0.5000 
     74 N          -1.6405  -24.2660  -44.3794 N.am      13 UNK        -0.5000 
     75 CA         -2.0567  -25.5657  -43.8453 C.3       13 UNK         0.1400 
     76 CB         -0.8978  -26.1729  -43.0409 C.3       13 UNK        -0.1800 
     77 C          -2.5375  -26.5458  -44.9369 C.2       13 UNK         0.5000 
     78 O          -3.4280  -27.3554  -44.6779 O.2       13 UNK        -0.5000 
     79 N          -1.9677  -26.4274  -46.1438 N.am      14 UNK        -0.5000 
     80 CA         -2.3624  -27.1660  -47.3448 C.3       14 UNK         0.1400 
     81 CB         -1.1370  -27.2899  -48.2659 C.3       14 UNK        -0.1800 
     82 C          -3.5475  -26.5229  -48.0998 C.2       14 UNK         0.5000 
     83 O          -3.9895  -27.0908  -49.0993 O.2       14 UNK        -0.5000 
     84 N          -4.0301  -25.3598  -47.6316 N.am      15 UNK        -0.5000 
     85 CA         -5.0794  -24.5207  -48.2241 C.3       15 UNK         0.1400 
     86 CB         -6.4441  -25.2404  -48.2005 C.3       15 UNK        -0.1800 
     87 C          -4.6995  -23.9756  -49.6190 C.2       15 UNK         0.5000 
     88 O          -5.5514  -23.8798  -50.5037 O.2       15 UNK        -0.5000 
     89 N          -3.4191  -23.6260  -49.7818 N.am      16 UNK        -0.5000 
     90 CA         -2.7986  -23.1532  -51.0147 C.3       16 UNK         0.1400 
     91 CB         -1.9126  -24.2768  -51.5835 C.3       16 UNK        -0.1800 
     92 C          -2.0144  -21.8538  -50.7550 C.2       16 UNK         0.5000 
     93 O          -0.9183  -21.6788  -51.2851 O.2       16 UNK        -0.5000 
     94 N          -2.5866  -20.9533  -49.9435 N.am      17 UNK        -0.5000 
     95 CA         -2.1113  -19.5769  -49.7685 C.3       17 UNK         0.1400 
     96 CB         -2.8003  -18.9735  -48.5338 C.3       17 UNK        -0.1800 
     97 C          -2.3996  -18.7281  -51.0237 C.2       17 UNK         0.5000 
     98 O          -3.1589  -19.1604  -51.8952 O.2       17 UNK        -0.5000 
     99 N          -1.8372  -17.5129  -51.1043 N.am      18 UNK        -0.5000 
    100 CA        -2.0503  -16.6118  -52.2479 C.3       18 UNK         0.1400 
    101 CB        -1.0565  -15.4454  -52.2007 C.3       18 UNK        -0.1800 
    102 C         -3.5049  -16.1095  -52.3670 C.2       18 UNK         0.5000 
    103 O         -3.9459  -15.7827  -53.4684 O.2       18 UNK        -0.5000 
    104 N         -4.2479  -16.1411  -51.2505 N.am      19 UNK        -0.5000 
    105 CA        -5.6975  -15.9338  -51.1878 C.3       19 UNK         0.1400 
    106 CB        -6.1176  -15.8353  -49.7132 C.3       19 UNK        -0.1800 
    107 C         -6.5058  -17.0403  -51.9025 C.2       19 UNK         0.5000 
    108 O         -7.6337  -16.7874  -52.3253 O.2       19 UNK        -0.5000 
    109 N         -5.9066  -18.2302  -52.0477 N.am      20 UNK        -0.5000 
    110 CA        -6.4201  -19.3765  -52.7985 C.3       20 UNK         0.1400 
    111 CB        -6.3010  -20.6329  -51.9159 C.3       20 UNK        -0.1800 
    112 C         -5.6603  -19.5366  -54.1337 C.2       20 UNK         0.5000 
    113 O         -5.5548  -20.6497  -54.6530 O.2       20 UNK        -0.5000 
    114 N         -5.1049  -18.4263  -54.6477 N.am      21 UNK        -0.5000 
    115 CA        -4.3311  -18.2939  -55.8888 C.3       21 UNK         0.1400 
    116 CB        -5.2329  -18.5497  -57.1141 C.3       21 UNK        -0.1800 
    117 C         -3.0380  -19.1382  -55.9227 C.2       21 UNK         0.5000 
    118 O         -2.5200  -19.4170  -57.0052 O.2       21 UNK        -0.5000 
    119 N         -2.5381  -19.5310  -54.7434 N.am      22 UNK        -0.5000 
    120 CA        -1.4123  -20.4553  -54.5520 C.3       22 UNK         0.1400 
    121 C         -1.7175  -21.9280  -54.9693 C.2       22 UNK         0.5000 
    122 N         -2.9800  -22.3345  -55.0672 N.am      22 UNK        -0.7600 
    123 O         -0.8094  -22.7231  -55.1931 O.2       22 UNK        -0.5000 
    124 C124       -0.0705  -19.8864  -55.1038 C.3       23 UNK        -0.0398 
    125 S125        1.3715  -20.2486  -54.0425 S.3       23 UNK        -0.2404 
    126 C126        1.0734  -19.0843  -52.6726 C.3       23 UNK        -0.0205 
    127 H127        1.6904  -11.8924  -49.1625 H         1 UNK         0.0600 
    128 H128        0.1335  -11.9062  -50.0199 H         1 UNK         0.0600 
    129 H129        1.5407  -11.1311  -50.7333 H         1 UNK         0.0600 
    130 H130        1.8920  -15.2666  -50.6813 H         1 UNK         0.3000 
    131 H131        1.7410  -13.8696  -48.1411 H         1 UNK         0.0600 
    132 H132        1.6994  -16.1847  -47.2312 H         1 UNK         0.0800 
    133 H133        1.6977  -16.8481  -48.8373 H         1 UNK         0.0800 
    134 H134        4.1266  -15.7052  -50.5899 H         1 UNK         0.0800 
    135 H135        5.4481  -16.5752  -49.8691 H         1 UNK         0.0800 
    136 H136        2.4495  -16.9425  -51.7409 H         1 UNK         0.1150 
    137 H137        2.1435  -21.1788  -51.3099 H         1 UNK         0.1150 
    138 H138        4.9161  -18.9635  -48.8837 H         1 UNK         0.1150 
    139 H139        5.1382  -21.6538  -49.6144 H         1 UNK         0.0800 
    140 H140        4.1350  -21.3101  -48.2302 H         1 UNK         0.0800 
    141 H141        0.8484  -22.5607  -49.7055 H         1 UNK         0.0800 
    142 H142        1.5985  -21.6364  -48.4348 H         1 UNK         0.0800 
    143 H143        0.9963  -24.6213  -48.3576 H         1 UNK         0.0600 
    144 H144        2.5657  -23.0218  -46.4908 H         1 UNK         0.3000 
    145 H145        2.4510  -25.4589  -43.8953 H         1 UNK         0.0600 
    146 H146        4.9198  -25.4687  -44.1460 H         1 UNK         0.0600 
    147 H147        4.7842  -24.8219  -45.7821 H         1 UNK         0.0600 
    148 H148        4.1825  -26.4341  -45.4146 H         1 UNK         0.0600 
    149 H149        4.0000  -23.0979  -44.1726 H         1 UNK         0.3000 
    150 H150        1.9666  -21.1703  -42.1984 H         1 UNK         0.0600 
    151 H151        4.3878  -21.8187  -42.2845 H         1 UNK         0.0600 
    152 H152        4.1555  -20.0995  -42.5361 H         1 UNK         0.0600 
    153 H153        4.5184  -21.1373  -43.9070 H         1 UNK         0.0600 
    154 H154        1.3807  -19.5460  -43.5664 H         1 UNK         0.3000 
    155 H155        2.4340  -18.3172  -46.4159 H         1 UNK         0.0600 
    156 H156        1.2867  -19.4595  -48.1218 H         1 UNK         0.0600 
    157 H157        0.1161  -18.2750  -47.5947 H         1 UNK         0.0600 
    158 H158       -0.0481  -19.9485  -47.0841 H         1 UNK         0.0600 
    159 H159       -0.1841  -18.1074  -45.0839 H         1 UNK         0.3000 
    160 H160        1.0217  -16.0249  -42.5259 H         1 UNK         0.0600 
    161 H161       -0.5961  -15.0955  -44.9535 H         1 UNK         0.0600 
    162 H162        0.9307  -14.3899  -44.4359 H         1 UNK         0.0600 
    163 H163       -0.4667  -14.2883  -43.3845 H         1 UNK         0.0600 
    164 H164       -1.6480  -16.5414  -43.2013 H         1 UNK         0.3000 
    165 H165       -2.2695  -19.6126  -42.1284 H         1 UNK         0.0600 
    166 H166       -2.9140  -19.2004  -39.7525 H         1 UNK         0.0600 
    167 H167       -1.1944  -19.5132  -39.9050 H         1 UNK         0.0600 
    168 H168       -1.7649  -17.8658  -39.6646 H         1 UNK         0.0600 
    169 H169       -3.2571  -16.8859  -41.4239 H         1 UNK         0.3000 
    170 H170       -5.5533  -16.8282  -44.0535 H         1 UNK         0.0600 
    171 H171       -6.3099  -17.3069  -41.1208 H         1 UNK         0.0600 
    172 H172       -6.8814  -18.2569  -42.4870 H         1 UNK         0.0600 
    173 H173       -7.3356  -16.5666  -42.3510 H         1 UNK         0.0600 
    174 H174       -5.3705  -15.1053  -41.8371 H         1 UNK         0.3000 
    175 H175       -4.5233  -12.8920  -42.5246 H         1 UNK         0.0600 
    176 H176       -1.9330  -14.0707  -41.3218 H         1 UNK         0.0600 
    177 H177       -2.6334  -12.5169  -40.8764 H         1 UNK         0.0600 
    178 H178       -3.4932  -14.0013  -40.5105 H         1 UNK         0.0600 
    179 H179       -2.3375  -13.4077  -44.2693 H         1 UNK         0.3000 
    180 H180       -2.0492  -10.1500  -45.3754 H         1 UNK         0.0600 
    181 H181        0.4255  -10.3607  -45.2346 H         1 UNK         0.0600 
    182 H182        0.2725  -11.5851  -43.9731 H         1 UNK         0.0600 
    183 H183       -0.2409   -9.9305  -43.6683 H         1 UNK         0.0600 
    184 H184       -0.6508  -12.5933  -46.0043 H         1 UNK         0.3000 
    185 H185       -2.5890  -14.4528  -47.3951 H         1 UNK         0.0600 
    186 H186       -2.8427  -14.1601  -49.8368 H         1 UNK         0.0600 
    187 H187       -4.0194  -13.1541  -49.0272 H         1 UNK         0.0600 
    188 H188       -2.5664  -12.4253  -49.7010 H         1 UNK         0.0600 
    189 H189       -0.2225  -12.8504  -47.8835 H         1 UNK         0.3000 
    190 H190        0.3540  -22.2661  -45.7739 H         1 UNK         0.3000 
    191 H191       -2.4293  -21.8281  -46.4626 H         1 UNK         0.0600 
    192 H192       -1.2807  -20.1293  -45.1255 H         1 UNK         0.0600 
    193 H193       -0.8895  -21.3000  -43.8658 H         1 UNK         0.0600 
    194 H194       -2.5555  -20.8469  -44.1653 H         1 UNK         0.0600 
    195 H195       -0.6707  -23.9994  -44.2325 H         1 UNK         0.3000 
    196 H196       -2.8929  -25.3929  -43.1648 H         1 UNK         0.0600 
    197 H197       -0.5858  -25.5083  -42.2349 H         1 UNK         0.0600 
    198 H198       -0.0288  -26.3656  -43.6704 H         1 UNK         0.0600 
    199 H199       -1.1914  -27.1204  -42.5875 H         1 UNK         0.0600 
    200 H200       -1.2193  -25.7574  -46.2574 H         1 UNK         0.3000 
    201 H201       -2.6697  -28.1731  -47.0561 H         1 UNK         0.0600 
    202 H202       -0.2949  -27.7462  -47.7452 H         1 UNK         0.0600 
    203 H203       -0.8135  -26.3186  -48.6394 H         1 UNK         0.0600 
    204 H204       -1.3591  -27.9143  -49.1321 H         1 UNK         0.0600 
    205 H205       -3.6033  -24.9750  -46.7976 H         1 UNK         0.3000 
    206 H206       -5.1639  -23.6466  -47.5773 H         1 UNK         0.0600 
    207 H207       -6.4663  -26.0940  -48.8784 H         1 UNK         0.0600 
    208 H208       -6.6821  -25.6000  -47.1994 H         1 UNK         0.0600 
    209 H209       -7.2463  -24.5654  -48.5009 H         1 UNK         0.0600 
    210 H210       -2.7739  -23.7302  -48.9984 H         1 UNK         0.3000 
    211 H211       -3.5611  -22.9092  -51.7572 H         1 UNK         0.0600 
    212 H212       -1.1026  -24.5313  -50.8985 H         1 UNK         0.0600 
    213 H213       -1.4639  -23.9830  -52.5332 H         1 UNK         0.0600 
    214 H214       -2.4933  -25.1813  -51.7652 H         1 UNK         0.0600 
    215 H215       -3.4949  -21.1702  -49.5627 H         1 UNK         0.3000 
    216 H216       -1.0318  -19.5926  -49.6073 H         1 UNK         0.0600 
    217 H217       -2.4399  -17.9642  -48.3312 H         1 UNK         0.0600 
    218 H218       -2.6012  -19.5677  -47.6420 H         1 UNK         0.0600 
    219 H219       -3.8820  -18.9163  -48.6628 H         1 UNK         0.0600 
    220 H220       -1.2889  -17.1460  -50.3317 H         1 UNK         0.3000 
    221 H221       -1.8361  -17.1792  -53.1559 H         1 UNK         0.0600 
    222 H222       -1.2283  -14.7968  -51.3442 H         1 UNK         0.0600 
    223 H223       -0.0295  -15.8059  -52.1523 H         1 UNK         0.0600 
    224 H224       -1.1398  -14.8272  -53.0953 H         1 UNK         0.0600 
    225 H225       -3.7948  -16.4156  -50.3917 H         1 UNK         0.3000 
    226 H226       -5.9270  -14.9856  -51.6782 H         1 UNK         0.0600 
    227 H227       -5.6091  -15.0135  -49.2099 H         1 UNK         0.0600 
    228 H228       -7.1897  -15.6546  -49.6236 H         1 UNK         0.0600 
    229 H229       -5.8929  -16.7532  -49.1685 H         1 UNK         0.0600 
    230 H230       -4.9536  -18.3402  -51.7189 H         1 UNK         0.3000 
    231 H231       -7.4737  -19.2304  -53.0436 H         1 UNK         0.0600 
    232 H232       -6.7411  -21.5027  -52.4051 H         1 UNK         0.0600 
    233 H233       -6.8215  -20.4998  -50.9675 H         1 UNK         0.0600 
    234 H234       -5.2610  -20.8745  -51.6949 H         1 UNK         0.0600 
    235 H235       -5.2039  -17.5680  -54.1209 H         1 UNK         0.3000 
    236 H236       -4.0071  -17.2532  -55.9309 H         1 UNK         0.0600 
    237 H237       -5.5420  -19.5935  -57.1778 H         1 UNK         0.0600 
    238 H238       -6.1322  -17.9349  -57.0770 H         1 UNK         0.0600 
    239 H239       -4.7146  -18.3056  -58.0420 H         1 UNK         0.0600 
    240 H240       -3.0330  -19.2825  -53.8933 H         1 UNK         0.3000 
    241 H241       -1.3254  -20.5098  -53.4716 H         1 UNK         0.0600 
    242 H242       -3.1698  -23.2857  -55.3387 H         1 UNK         0.3800 
    243 H243       -3.7526  -21.6978  -54.9071 H         1 UNK         0.3800 
    244 H244        0.1252  -20.2585  -56.1107 H         1 UNK         0.0800 
    245 H245       -0.1278  -18.8018  -55.2054 H         1 UNK         0.0800 
    246 H246        0.9174  -18.0862  -53.0845 H         1 UNK         0.0800 
    247 H247        0.1513  -19.3592  -52.1661 H         1 UNK         0.0800 
@<TRIPOS>BOND
     1    1    2 1    
     2    1  127 1    
     3    1  128 1    
     4    1  129 1    
     5    2    3 2    
     6    2    4 am   BACKBONE|DICT|INTERRES
     7    4    5 1    
     8    4  130 1    
     9    5    6 1    
    10    5   65 1    
    11    5  131 1    
    12    6    7 1    
    13    6  132 1    
    14    6  133 1    
    15    7    8 1    
    16    8    9 1    
    17    8  134 1    
    18    8  135 1    
    19    9   10 ar   
    20    9   14 ar   
    21   10   11 ar   
    22   10  136 1    
    23   11   12 ar   
    24   11  126 1    
    25   12   13 ar   
    26   12  137 1    
    27   13   14 ar   
    28   13   15 1    
    29   14  138 1    
    30   15   16 1    
    31   15  139 1    
    32   15  140 1    
    33   16   17 1    
    34   17   18 1    
    35   17  141 1    
    36   17  142 1    
    37   18   19 1    
    38   18   67 1    
    39   18  143 1    
    40   19   20 am   BACKBONE|DICT|INTERRES
    41   19  144 1    
    42   20   21 2    
    43   20   22 1    
    44   22   23 1    
    45   22   24 1    
    46   22  145 1    
    47   23  146 1    
    48   23  147 1    
    49   23  148 1    
    50   24   25 am   BACKBONE|DICT|INTERRES
    51   24  149 1    
    52   25   26 2    
    53   25   27 1    
    54   27   28 1    
    55   27   29 1    
    56   27  150 1    
    57   28  151 1    
    58   28  152 1    
    59   28  153 1    
    60   29   30 am   BACKBONE|DICT|INTERRES
    61   29  154 1    
    62   30   31 2    
    63   30   32 1    
    64   32   33 1    
    65   32   34 1    
    66   32  155 1    
    67   33  156 1    
    68   33  157 1    
    69   33  158 1    
    70   34   35 am   BACKBONE|DICT|INTERRES
    71   34  159 1    
    72   35   36 2    
    73   35   37 1    
    74   37   38 1    
    75   37   39 1    
    76   37  160 1    
    77   38  161 1    
    78   38  162 1    
    79   38  163 1    
    80   39   40 am   BACKBONE|DICT|INTERRES
    81   39  164 1    
    82   40   41 2    
    83   40   42 1    
    84   42   43 1    
    85   42   44 1    
    86   42  165 1    
    87   43  166 1    
    88   43  167 1    
    89   43  168 1    
    90   44   45 am   BACKBONE|DICT|INTERRES
    91   44  169 1    
    92   45   46 2    
    93   45   47 1    
    94   47   48 1    
    95   47   49 1    
    96   47  170 1    
    97   48  171 1    
    98   48  172 1    
    99   48  173 1    
   100   49   50 am   BACKBONE|DICT|INTERRES
   101   49  174 1    
   102   50   51 2    
   103   50   52 1    
   104   52   53 1    
   105   52   54 1    
   106   52  175 1    
   107   53  176 1    
   108   53  177 1    
   109   53  178 1    
   110   54   55 am   BACKBONE|DICT|INTERRES
   111   54  179 1    
   112   55   56 2    
   113   55   57 1    
   114   57   58 1    
   115   57   59 1    
   116   57  180 1    
   117   58  181 1    
   118   58  182 1    
   119   58  183 1    
   120   59   60 am   BACKBONE|DICT|INTERRES
   121   59  184 1    
   122   60   61 2    
   123   60   62 1    
   124   62   63 1    
   125   62   64 1    
   126   62  185 1    
   127   63  186 1    
   128   63  187 1    
   129   63  188 1    
   130   64   65 am   BACKBONE|DICT|INTERRES
   131   64  189 1    
   132   65   66 2    
   133   67   68 2    
   134   67   69 am   BACKBONE|DICT|INTERRES
   135   69   70 1    
   136   69  190 1    
   137   70   71 1    
   138   70   72 1    
   139   70  191 1    
   140   71  192 1    
   141   71  193 1    
   142   71  194 1    
   143   72   73 2    
   144   72   74 am   BACKBONE|DICT|INTERRES
   145   74   75 1    
   146   74  195 1    
   147   75   76 1    
   148   75   77 1    
   149   75  196 1    
   150   76  197 1    
   151   76  198 1    
   152   76  199 1    
   153   77   78 2    
   154   77   79 am   BACKBONE|DICT|INTERRES
   155   79   80 1    
   156   79  200 1    
   157   80   81 1    
   158   80   82 1    
   159   80  201 1    
   160   81  202 1    
   161   81  203 1    
   162   81  204 1    
   163   82   83 2    
   164   82   84 am   BACKBONE|DICT|INTERRES
   165   84   85 1    
   166   84  205 1    
   167   85   86 1    
   168   85   87 1    
   169   85  206 1    
   170   86  207 1    
   171   86  208 1    
   172   86  209 1    
   173   87   88 2    
   174   87   89 am   BACKBONE|DICT|INTERRES
   175   89   90 1    
   176   89  210 1    
   177   90   91 1    
   178   90   92 1    
   179   90  211 1    
   180   91  212 1    
   181   91  213 1    
   182   91  214 1    
   183   92   93 2    
   184   92   94 am   BACKBONE|DICT|INTERRES
   185   94   95 1    
   186   94  215 1    
   187   95   96 1    
   188   95   97 1    
   189   95  216 1    
   190   96  217 1    
   191   96  218 1    
   192   96  219 1    
   193   97   98 2    
   194   97   99 am   BACKBONE|DICT|INTERRES
   195   99  100 1    
   196   99  220 1    
   197  100  101 1    
   198  100  102 1    
   199  100  221 1    
   200  101  222 1    
   201  101  223 1    
   202  101  224 1    
   203  102  103 2    
   204  102  104 am   BACKBONE|DICT|INTERRES
   205  104  105 1    
   206  104  225 1    
   207  105  106 1    
   208  105  107 1    
   209  105  226 1    
   210  106  227 1    
   211  106  228 1    
   212  106  229 1    
   213  107  108 2    
   214  107  109 am   BACKBONE|DICT|INTERRES
   215  109  110 1    
   216  109  230 1    
   217  110  111 1    
   218  110  112 1    
   219  110  231 1    
   220  111  232 1    
   221  111  233 1    
   222  111  234 1    
   223  112  113 2    
   224  112  114 am   BACKBONE|DICT|INTERRES
   225  114  115 1    
   226  114  235 1    
   227  115  116 1    
   228  115  117 1    
   229  115  236 1    
   230  116  237 1    
   231  116  238 1    
   232  116  239 1    
   233  117  118 2    
   234  117  119 am   BACKBONE|DICT|INTERRES
   235  119  120 1    
   236  119  240 1    
   237  120  121 1    
   238  120  124 1    
   239  120  241 1    
   240  121  122 am   BACKBONE|DICT|INTERRES
   241  121  123 2    
   242  122  242 1    
   243  122  243 1    
   244  124  125 1    
   245  124  244 1    
   246  124  245 1    
   247  125  126 1    
   248  126  246 1    
   249  126  247 1    
@<TRIPOS>SUBSTRUCTURE
     1 UNK         1 GROUP             0       ****    0 ROOT    
