@<TRIPOS>MOLECULE
3R540
247   249    1
SMALL
USER_CHARGES


@<TRIPOS>ATOM
      1 CA         -1.1098  -15.3059  -47.9751 C.3       0 UNK        -0.1800 
      2 C           0.1448  -14.4547  -48.0569 C.2       0 UNK         0.5000 
      3 O           0.3215  -13.5511  -47.2414 O.2       0 UNK        -0.5000 
      4 N           1.0248  -14.7558  -49.0190 N.am      1 UNK        -0.5000 
      5 CA          2.3343  -14.1126  -49.1859 C.3       1 UNK         0.1400 
      6 C6          2.6317  -13.7803  -50.6712 C.3       23 UNK        -0.0398 
      7 S7          2.8764  -15.2202  -51.7706 S.3       23 UNK        -0.2404 
      8 C8          1.3595  -15.2168  -52.7835 C.3       23 UNK        -0.0205 
      9 C9          0.2096  -15.9464  -52.1047 C.ar      23 UNK        -0.0193 
     10 C10        -1.0024  -15.2988  -51.8481 C.ar      23 UNK        -0.1150 
     11 C11        -2.0642  -15.9905  -51.2544 C.ar      23 UNK        -0.0193 
     12 C12        -1.9019  -17.3335  -50.8986 C.ar      23 UNK        -0.1150 
     13 C13        -0.6893  -17.9837  -51.1385 C.ar      23 UNK        -0.0193 
     14 C14         0.3527  -17.2908  -51.7564 C.ar      23 UNK        -0.1150 
     15 C15        -0.4865  -19.4345  -50.7424 C.3       23 UNK        -0.0205 
     16 S16         0.6741  -19.5817  -49.3527 S.3       23 UNK        -0.2404 
     17 C17        -0.4109  -19.2752  -47.9212 C.3       23 UNK        -0.0398 
     18 CA         -0.6652  -20.5757  -47.1166 C.3       11 UNK         0.1400 
     19 N          -0.5873  -20.3618  -45.6683 N.am      11 UNK        -0.5000 
     20 C          -0.3705  -21.3484  -44.7870 C.2       10 UNK         0.5000 
     21 O          -0.2669  -22.5320  -45.1035 O.2       10 UNK        -0.5000 
     22 CA         -0.2996  -20.9643  -43.3015 C.3       10 UNK         0.1400 
     23 CB          1.0069  -20.2218  -42.9869 C.3       10 UNK        -0.1800 
     24 N          -1.4419  -20.1602  -42.8778 N.am      10 UNK        -0.5000 
     25 C          -2.7185  -20.5664  -42.9124 C.2       9 UNK         0.5000 
     26 O          -3.0781  -21.6775  -43.3022 O.2       9 UNK        -0.5000 
     27 CA         -3.7734  -19.5393  -42.4706 C.3       9 UNK         0.1400 
     28 CB         -3.8867  -19.4974  -40.9393 C.3       9 UNK        -0.1800 
     29 N          -3.4806  -18.1985  -42.9758 N.am      9 UNK        -0.5000 
     30 C          -3.5313  -17.8504  -44.2686 C.2       8 UNK         0.5000 
     31 O          -3.8359  -18.6205  -45.1780 O.2       8 UNK        -0.5000 
     32 CA         -3.1215  -16.4079  -44.6040 C.3       8 UNK         0.1400 
     33 CB         -4.2128  -15.4107  -44.1867 C.3       8 UNK        -0.1800 
     34 N          -1.8497  -16.0296  -43.9870 N.am      8 UNK        -0.5000 
     35 C          -0.6734  -16.6195  -44.2424 C.2       7 UNK         0.5000 
     36 O          -0.5239  -17.5391  -45.0466 O.2       7 UNK        -0.5000 
     37 CA          0.5390  -16.1178  -43.4407 C.3       7 UNK         0.1400 
     38 CB          1.1321  -14.8726  -44.1136 C.3       7 UNK        -0.1800 
     39 N           0.2656  -15.8273  -42.0295 N.am      7 UNK        -0.5000 
     40 C          -0.2989  -16.6628  -41.1454 C.2       6 UNK         0.5000 
     41 O          -0.7434  -17.7735  -41.4386 O.2       6 UNK        -0.5000 
     42 CA         -0.3130  -16.1836  -39.6850 C.3       6 UNK         0.1400 
     43 CB         -1.0091  -17.1774  -38.7373 C.3       6 UNK        -0.1800 
     44 N           1.0707  -16.0048  -39.2552 N.am      6 UNK        -0.5000 
     45 C           1.6533  -14.8384  -38.9532 C.2       5 UNK         0.5000 
     46 O           1.0571  -13.7619  -38.9117 O.2       5 UNK        -0.5000 
     47 CA          3.1713  -14.8809  -38.6832 C.3       5 UNK         0.1400 
     48 CB          3.4460  -15.0674  -37.1832 C.3       5 UNK        -0.1800 
     49 N           3.8650  -15.9338  -39.4349 N.am      5 UNK        -0.5000 
     50 C           3.9985  -15.9504  -40.7683 C.2       4 UNK         0.5000 
     51 O           3.5519  -15.0718  -41.5079 O.2       4 UNK        -0.5000 
     52 CA          4.7047  -17.1834  -41.3667 C.3       4 UNK         0.1400 
     53 CB          3.7100  -18.3466  -41.5060 C.3       4 UNK        -0.1800 
     54 N           5.2984  -16.9210  -42.6790 N.am      4 UNK        -0.5000 
     55 C           6.3168  -16.0827  -42.9156 C.2       3 UNK         0.5000 
     56 O           6.9076  -15.4646  -42.0282 O.2       3 UNK        -0.5000 
     57 CA          6.7846  -15.9251  -44.3785 C.3       3 UNK         0.1400 
     58 CB          8.1846  -16.5336  -44.5632 C.3       3 UNK        -0.1800 
     59 N           5.8841  -16.5263  -45.3685 N.am      3 UNK        -0.5000 
     60 C           4.7425  -15.9743  -45.7979 C.2       2 UNK         0.5000 
     61 O           4.2874  -14.9172  -45.3575 O.2       2 UNK        -0.5000 
     62 CA          3.9798  -16.7627  -46.8836 C.3       2 UNK         0.1400 
     63 CB          3.1416  -17.8858  -46.2482 C.3       2 UNK        -0.1800 
     64 N           3.0932  -15.9232  -47.6900 N.am      2 UNK        -0.5000 
     65 C           3.4646  -14.9076  -48.4850 C.2       1 UNK         0.5000 
     66 O           4.6404  -14.5904  -48.6752 O.2       1 UNK        -0.5000 
     67 C          -1.9670  -21.2904  -47.5414 C.2       11 UNK         0.5000 
     68 O          -1.9504  -22.0549  -48.5097 O.2       11 UNK        -0.5000 
     69 N          -3.0624  -21.0812  -46.7940 N.am      12 UNK        -0.5000 
     70 CA         -4.3136  -21.8267  -46.9524 C.3       12 UNK         0.1400 
     71 CB         -5.4236  -21.1994  -46.0980 C.3       12 UNK        -0.1800 
     72 C          -4.1590  -23.3233  -46.6276 C.2       12 UNK         0.5000 
     73 O          -4.7679  -24.1505  -47.3038 O.2       12 UNK        -0.5000 
     74 N          -3.3399  -23.6453  -45.6190 N.am      13 UNK        -0.5000 
     75 CA         -3.0309  -25.0150  -45.2214 C.3       13 UNK         0.1400 
     76 CB         -2.5684  -25.0281  -43.7553 C.3       13 UNK        -0.1800 
     77 C          -1.9786  -25.6645  -46.1375 C.2       13 UNK         0.5000 
     78 O          -2.2181  -26.7522  -46.6624 O.2       13 UNK        -0.5000 
     79 N          -0.8224  -25.0052  -46.2885 N.am      14 UNK        -0.5000 
     80 CA          0.3735  -25.5765  -46.9091 C.3       14 UNK         0.1400 
     81 CB          1.6087  -24.7852  -46.4514 C.3       14 UNK        -0.1800 
     82 C           0.3196  -25.6292  -48.4437 C.2       14 UNK         0.5000 
     83 O           0.8017  -26.6016  -49.0261 O.2       14 UNK        -0.5000 
     84 N          -0.2380  -24.5853  -49.0690 N.am      15 UNK        -0.5000 
     85 CA         -0.2545  -24.4073  -50.5240 C.3       15 UNK         0.1400 
     86 CB          0.4325  -23.0743  -50.8602 C.3       15 UNK        -0.1800 
     87 C          -1.6785  -24.4496  -51.1016 C.2       15 UNK         0.5000 
     88 O          -1.8546  -24.1534  -52.2849 O.2       15 UNK        -0.5000 
     89 N          -2.6746  -24.7765  -50.2640 N.am      16 UNK        -0.5000 
     90 CA         -4.1053  -24.8284  -50.5845 C.3       16 UNK         0.1400 
     91 CB         -4.4004  -26.0023  -51.5423 C.3       16 UNK        -0.1800 
     92 C          -4.6497  -23.4796  -51.1029 C.2       16 UNK         0.5000 
     93 O          -5.4784  -23.4663  -52.0120 O.2       16 UNK        -0.5000 
     94 N          -4.1349  -22.3678  -50.5520 N.am      17 UNK        -0.5000 
     95 CA         -4.3977  -20.9835  -50.9671 C.3       17 UNK         0.1400 
     96 CB         -5.8686  -20.5882  -50.7172 C.3       17 UNK        -0.1800 
     97 C          -3.9379  -20.7235  -52.4168 C.2       17 UNK         0.5000 
     98 O          -4.6780  -20.1400  -53.2102 O.2       17 UNK        -0.5000 
     99 N          -2.7231  -21.2007  -52.7281 N.am      18 UNK        -0.5000 
    100 CA        -2.0703  -21.1824  -54.0409 C.3       18 UNK         0.1400 
    101 CB        -1.7943  -19.7349  -54.5040 C.3       18 UNK        -0.1800 
    102 C         -2.8606  -22.0110  -55.0722 C.2       18 UNK         0.5000 
    103 O         -3.1753  -21.5166  -56.1543 O.2       18 UNK        -0.5000 
    104 N         -3.2086  -23.2493  -54.6894 N.am      19 UNK        -0.5000 
    105 CA        -4.0700  -24.1836  -55.4269 C.3       19 UNK         0.1400 
    106 CB        -3.3433  -24.7206  -56.6771 C.3       19 UNK        -0.1800 
    107 C         -5.4541  -23.5729  -55.7422 C.2       19 UNK         0.5000 
    108 O         -5.9238  -23.6314  -56.8797 O.2       19 UNK        -0.5000 
    109 N         -6.0497  -22.9566  -54.7130 N.am      20 UNK        -0.5000 
    110 CA        -7.3168  -22.2239  -54.6766 C.3       20 UNK         0.1400 
    111 CB        -8.4963  -23.1364  -55.0694 C.3       20 UNK        -0.1800 
    112 C         -7.3362  -20.8906  -55.4540 C.2       20 UNK         0.5000 
    113 O         -8.3664  -20.2144  -55.4292 O.2       20 UNK        -0.5000 
    114 N         -6.2267  -20.4935  -56.0970 N.am      21 UNK        -0.5000 
    115 CA        -6.1294  -19.2610  -56.8877 C.3       21 UNK         0.1400 
    116 CB        -4.8124  -19.2478  -57.6763 C.3       21 UNK        -0.1800 
    117 C         -6.2634  -17.9765  -56.0483 C.2       21 UNK         0.5000 
    118 O         -6.7502  -16.9694  -56.5643 O.2       21 UNK        -0.5000 
    119 N         -5.8562  -18.0420  -54.7752 N.am      22 UNK        -0.5000 
    120 CA        -6.0259  -16.9804  -53.7744 C.3       22 UNK         0.1400 
    121 C         -7.3238  -17.1365  -52.9232 C.2       22 UNK         0.5000 
    122 N         -8.2167  -18.0741  -53.2229 N.am      22 UNK        -0.7600 
    123 O         -7.5404  -16.3847  -51.9772 O.2       22 UNK        -0.5000 
    124 C124       -4.7475  -16.8361  -52.9036 C.3       23 UNK        -0.0398 
    125 S125       -4.3714  -15.0963  -52.5010 S.3       23 UNK        -0.2404 
    126 C126       -3.3828  -15.2814  -50.9861 C.3       23 UNK        -0.0205 
    127 H127       -0.9896  -16.2485  -48.5063 H         1 UNK         0.0600 
    128 H128       -1.9617  -14.7697  -48.3909 H         1 UNK         0.0600 
    129 H129       -1.3245  -15.5360  -46.9350 H         1 UNK         0.0600 
    130 H130        0.8194  -15.4946  -49.6791 H         1 UNK         0.3000 
    131 H131        2.3166  -13.1499  -48.6710 H         1 UNK         0.0600 
    132 H132        1.8312  -13.1541  -51.0665 H         1 UNK         0.0800 
    133 H133        3.5303  -13.1646  -50.7355 H         1 UNK         0.0800 
    134 H134        1.0841  -14.1939  -53.0441 H         1 UNK         0.0800 
    135 H135        1.5740  -15.7210  -53.7267 H         1 UNK         0.0800 
    136 H136       -1.1283  -14.2605  -52.1215 H         1 UNK         0.1150 
    137 H137       -2.7156  -17.8675  -50.4292 H         1 UNK         0.1150 
    138 H138        1.2871  -17.7981  -51.9531 H         1 UNK         0.1150 
    139 H139       -1.4301  -19.9136  -50.4847 H         1 UNK         0.0800 
    140 H140       -0.0840  -19.9815  -51.5959 H         1 UNK         0.0800 
    141 H141       -1.3376  -18.7841  -48.2230 H         1 UNK         0.0800 
    142 H142        0.1175  -18.5447  -47.3095 H         1 UNK         0.0800 
    143 H143        0.1414  -21.2753  -47.3494 H         1 UNK         0.0600 
    144 H144       -0.6638  -19.4015  -45.3403 H         1 UNK         0.3000 
    145 H145       -0.3127  -21.8875  -42.7184 H         1 UNK         0.0600 
    146 H146        1.0822  -19.9919  -41.9239 H         1 UNK         0.0600 
    147 H147        1.8745  -20.8272  -43.2521 H         1 UNK         0.0600 
    148 H148        1.0805  -19.2852  -43.5384 H         1 UNK         0.0600 
    149 H149       -1.2364  -19.2372  -42.5027 H         1 UNK         0.3000 
    150 H150       -4.7378  -19.8526  -42.8759 H         1 UNK         0.0600 
    151 H151       -4.6659  -18.8055  -40.6194 H         1 UNK         0.0600 
    152 H152       -4.1413  -20.4805  -40.5415 H         1 UNK         0.0600 
    153 H153       -2.9504  -19.1884  -40.4733 H         1 UNK         0.0600 
    154 H154       -3.1448  -17.5242  -42.3041 H         1 UNK         0.3000 
    155 H155       -3.0101  -16.3485  -45.6872 H         1 UNK         0.0600 
    156 H156       -4.3512  -15.3887  -43.1051 H         1 UNK         0.0600 
    157 H157       -5.1721  -15.6721  -44.6355 H         1 UNK         0.0600 
    158 H158       -3.9675  -14.4001  -44.5140 H         1 UNK         0.0600 
    159 H159       -1.8749  -15.2866  -43.3047 H         1 UNK         0.3000 
    160 H160        1.2943  -16.9033  -43.4643 H         1 UNK         0.0600 
    161 H161        0.4330  -14.0356  -44.1073 H         1 UNK         0.0600 
    162 H162        1.3894  -15.0769  -45.1534 H         1 UNK         0.0600 
    163 H163        2.0471  -14.5489  -43.6190 H         1 UNK         0.0600 
    164 H164        0.6358  -14.9538  -41.6824 H         1 UNK         0.3000 
    165 H165       -0.8619  -15.2403  -39.6538 H         1 UNK         0.0600 
    166 H166       -1.0015  -16.8108  -37.7108 H         1 UNK         0.0600 
    167 H167       -2.0518  -17.3226  -39.0218 H         1 UNK         0.0600 
    168 H168       -0.5246  -18.1546  -38.7466 H         1 UNK         0.0600 
    169 H169        1.6541  -16.8280  -39.2920 H         1 UNK         0.3000 
    170 H170        3.5867  -13.9184  -38.9891 H         1 UNK         0.0600 
    171 H171        2.9631  -14.2840  -36.5976 H         1 UNK         0.0600 
    172 H172        3.0719  -16.0257  -36.8206 H         1 UNK         0.0600 
    173 H173        4.5138  -15.0196  -36.9684 H         1 UNK         0.0600 
    174 H174        4.2568  -16.6896  -38.8914 H         1 UNK         0.3000 
    175 H175        5.5063  -17.4850  -40.6894 H         1 UNK         0.0600 
    176 H176        2.8901  -18.0906  -42.1762 H         1 UNK         0.0600 
    177 H177        4.1965  -19.2404  -41.8973 H         1 UNK         0.0600 
    178 H178        3.2738  -18.6131  -40.5426 H         1 UNK         0.0600 
    179 H179        4.8623  -17.3661  -43.4709 H         1 UNK         0.3000 
    180 H180        6.8538  -14.8537  -44.5787 H         1 UNK         0.0600 
    181 H181        8.1837  -17.6084  -44.3776 H         1 UNK         0.0600 
    182 H182        8.9028  -16.0830  -43.8767 H         1 UNK         0.0600 
    183 H183        8.5577  -16.3666  -45.5738 H         1 UNK         0.0600 
    184 H184        6.1861  -17.4034  -45.7684 H         1 UNK         0.3000 
    185 H185        4.7126  -17.2109  -47.5577 H         1 UNK         0.0600 
    186 H186        3.7590  -18.5479  -45.6400 H         1 UNK         0.0600 
    187 H187        2.3555  -17.4885  -45.6061 H         1 UNK         0.0600 
    188 H188        2.6676  -18.5028  -47.0118 H         1 UNK         0.0600 
    189 H189        2.1044  -16.0894  -47.5864 H         1 UNK         0.3000 
    190 H190       -3.0324  -20.4031  -46.0408 H         1 UNK         0.3000 
    191 H191       -4.6228  -21.7467  -47.9937 H         1 UNK         0.0600 
    192 H192       -5.6313  -20.1770  -46.4132 H         1 UNK         0.0600 
    193 H193       -6.3545  -21.7600  -46.1927 H         1 UNK         0.0600 
    194 H194       -5.1581  -21.1802  -45.0411 H         1 UNK         0.0600 
    195 H195       -2.9128  -22.9041  -45.0753 H         1 UNK         0.3000 
    196 H196       -3.9424  -25.6136  -45.2838 H         1 UNK         0.0600 
    197 H197       -2.3254  -26.0404  -43.4301 H         1 UNK         0.0600 
    198 H198       -3.3504  -24.6528  -43.0950 H         1 UNK         0.0600 
    199 H199       -1.6825  -24.4108  -43.6020 H         1 UNK         0.0600 
    200 H200       -0.7014  -24.1042  -45.8272 H         1 UNK         0.3000 
    201 H201        0.4852  -26.6016  -46.5487 H         1 UNK         0.0600 
    202 H202        1.6980  -24.7867  -45.3649 H         1 UNK         0.0600 
    203 H203        1.5670  -23.7465  -46.7820 H         1 UNK         0.0600 
    204 H204        2.5241  -25.2210  -46.8539 H         1 UNK         0.0600 
    205 H205       -0.6385  -23.8316  -48.5233 H         1 UNK         0.3000 
    206 H206        0.3026  -25.2035  -51.0210 H         1 UNK         0.0600 
    207 H207        1.4465  -23.0401  -50.4616 H         1 UNK         0.0600 
    208 H208        0.5028  -22.9222  -51.9378 H         1 UNK         0.0600 
    209 H209       -0.1180  -22.2334  -50.4434 H         1 UNK         0.0600 
    210 H210       -2.4291  -24.9910  -49.3080 H         1 UNK         0.3000 
    211 H211       -4.6328  -25.0364  -49.6556 H         1 UNK         0.0600 
    212 H212       -3.9338  -25.8605  -52.5166 H         1 UNK         0.0600 
    213 H213       -5.4727  -26.1159  -51.7059 H         1 UNK         0.0600 
    214 H214       -4.0358  -26.9439  -51.1320 H         1 UNK         0.0600 
    215 H215       -3.4235  -22.4808  -49.8359 H         1 UNK         0.3000 
    216 H216       -3.7816  -20.3494  -50.3291 H         1 UNK         0.0600 
    217 H217       -6.0243  -19.5263  -50.9111 H         1 UNK         0.0600 
    218 H218       -6.1592  -20.7739  -49.6836 H         1 UNK         0.0600 
    219 H219       -6.5555  -21.1368  -51.3616 H         1 UNK         0.0600 
    220 H220       -2.2464  -21.7472  -52.0258 H         1 UNK         0.3000 
    221 H221       -1.1072  -21.6796  -53.9166 H         1 UNK         0.0600 
    222 H222       -2.7145  -19.1844  -54.7001 H         1 UNK         0.0600 
    223 H223       -1.2271  -19.1801  -53.7580 H         1 UNK         0.0600 
    224 H224       -1.2107  -19.7274  -55.4251 H         1 UNK         0.0600 
    225 H225       -2.8736  -23.5747  -53.7853 H         1 UNK         0.3000 
    226 H226       -4.2523  -25.0289  -54.7629 H         1 UNK         0.0600 
    227 H227       -2.3838  -25.1653  -56.4133 H         1 UNK         0.0600 
    228 H228       -3.9345  -25.4932  -57.1699 H         1 UNK         0.0600 
    229 H229       -3.1583  -23.9338  -57.4091 H         1 UNK         0.0600 
    230 H230       -5.5894  -23.0109  -53.8066 H         1 UNK         0.3000 
    231 H231       -7.4545  -21.9501  -53.6297 H         1 UNK         0.0600 
    232 H232       -8.4693  -23.4046  -56.1257 H         1 UNK         0.0600 
    233 H233       -9.4510  -22.6425  -54.8852 H         1 UNK         0.0600 
    234 H234       -8.4925  -24.0578  -54.4871 H         1 UNK         0.0600 
    235 H235       -5.3952  -21.0697  -56.0485 H         1 UNK         0.3000 
    236 H236       -6.9506  -19.2697  -57.6073 H         1 UNK         0.0600 
    237 H237       -4.6919  -20.1570  -58.2656 H         1 UNK         0.0600 
    238 H238       -4.7821  -18.4044  -58.3671 H         1 UNK         0.0600 
    239 H239       -3.9502  -19.1564  -57.0151 H         1 UNK         0.0600 
    240 H240       -5.4795  -18.9176  -54.4181 H         1 UNK         0.3000 
    241 H241       -6.1619  -16.0422  -54.3148 H         1 UNK         0.0600 
    242 H242       -9.0517  -18.1511  -52.6646 H         1 UNK         0.3800 
    243 H243       -8.0918  -18.6865  -54.0193 H         1 UNK         0.3800 
    244 H244       -4.8214  -17.4298  -51.9910 H         1 UNK         0.0800 
    245 H245       -3.8763  -17.2237  -53.4344 H         1 UNK         0.0800 
    246 H246       -3.9656  -15.8130  -50.2321 H         1 UNK         0.0800 
    247 H247       -3.1834  -14.2910  -50.5747 H         1 UNK         0.0800 
@<TRIPOS>BOND
     1    1    2 1    
     2    1  127 1    
     3    1  128 1    
     4    1  129 1    
     5    2    3 2    
     6    2    4 am   BACKBONE|DICT|INTERRES
     7    4    5 1    
     8    4  130 1    
     9    5    6 1    
    10    5   65 1    
    11    5  131 1    
    12    6    7 1    
    13    6  132 1    
    14    6  133 1    
    15    7    8 1    
    16    8    9 1    
    17    8  134 1    
    18    8  135 1    
    19    9   10 ar   
    20    9   14 ar   
    21   10   11 ar   
    22   10  136 1    
    23   11   12 ar   
    24   11  126 1    
    25   12   13 ar   
    26   12  137 1    
    27   13   14 ar   
    28   13   15 1    
    29   14  138 1    
    30   15   16 1    
    31   15  139 1    
    32   15  140 1    
    33   16   17 1    
    34   17   18 1    
    35   17  141 1    
    36   17  142 1    
    37   18   19 1    
    38   18   67 1    
    39   18  143 1    
    40   19   20 am   BACKBONE|DICT|INTERRES
    41   19  144 1    
    42   20   21 2    
    43   20   22 1    
    44   22   23 1    
    45   22   24 1    
    46   22  145 1    
    47   23  146 1    
    48   23  147 1    
    49   23  148 1    
    50   24   25 am   BACKBONE|DICT|INTERRES
    51   24  149 1    
    52   25   26 2    
    53   25   27 1    
    54   27   28 1    
    55   27   29 1    
    56   27  150 1    
    57   28  151 1    
    58   28  152 1    
    59   28  153 1    
    60   29   30 am   BACKBONE|DICT|INTERRES
    61   29  154 1    
    62   30   31 2    
    63   30   32 1    
    64   32   33 1    
    65   32   34 1    
    66   32  155 1    
    67   33  156 1    
    68   33  157 1    
    69   33  158 1    
    70   34   35 am   BACKBONE|DICT|INTERRES
    71   34  159 1    
    72   35   36 2    
    73   35   37 1    
    74   37   38 1    
    75   37   39 1    
    76   37  160 1    
    77   38  161 1    
    78   38  162 1    
    79   38  163 1    
    80   39   40 am   BACKBONE|DICT|INTERRES
    81   39  164 1    
    82   40   41 2    
    83   40   42 1    
    84   42   43 1    
    85   42   44 1    
    86   42  165 1    
    87   43  166 1    
    88   43  167 1    
    89   43  168 1    
    90   44   45 am   BACKBONE|DICT|INTERRES
    91   44  169 1    
    92   45   46 2    
    93   45   47 1    
    94   47   48 1    
    95   47   49 1    
    96   47  170 1    
    97   48  171 1    
    98   48  172 1    
    99   48  173 1    
   100   49   50 am   BACKBONE|DICT|INTERRES
   101   49  174 1    
   102   50   51 2    
   103   50   52 1    
   104   52   53 1    
   105   52   54 1    
   106   52  175 1    
   107   53  176 1    
   108   53  177 1    
   109   53  178 1    
   110   54   55 am   BACKBONE|DICT|INTERRES
   111   54  179 1    
   112   55   56 2    
   113   55   57 1    
   114   57   58 1    
   115   57   59 1    
   116   57  180 1    
   117   58  181 1    
   118   58  182 1    
   119   58  183 1    
   120   59   60 am   BACKBONE|DICT|INTERRES
   121   59  184 1    
   122   60   61 2    
   123   60   62 1    
   124   62   63 1    
   125   62   64 1    
   126   62  185 1    
   127   63  186 1    
   128   63  187 1    
   129   63  188 1    
   130   64   65 am   BACKBONE|DICT|INTERRES
   131   64  189 1    
   132   65   66 2    
   133   67   68 2    
   134   67   69 am   BACKBONE|DICT|INTERRES
   135   69   70 1    
   136   69  190 1    
   137   70   71 1    
   138   70   72 1    
   139   70  191 1    
   140   71  192 1    
   141   71  193 1    
   142   71  194 1    
   143   72   73 2    
   144   72   74 am   BACKBONE|DICT|INTERRES
   145   74   75 1    
   146   74  195 1    
   147   75   76 1    
   148   75   77 1    
   149   75  196 1    
   150   76  197 1    
   151   76  198 1    
   152   76  199 1    
   153   77   78 2    
   154   77   79 am   BACKBONE|DICT|INTERRES
   155   79   80 1    
   156   79  200 1    
   157   80   81 1    
   158   80   82 1    
   159   80  201 1    
   160   81  202 1    
   161   81  203 1    
   162   81  204 1    
   163   82   83 2    
   164   82   84 am   BACKBONE|DICT|INTERRES
   165   84   85 1    
   166   84  205 1    
   167   85   86 1    
   168   85   87 1    
   169   85  206 1    
   170   86  207 1    
   171   86  208 1    
   172   86  209 1    
   173   87   88 2    
   174   87   89 am   BACKBONE|DICT|INTERRES
   175   89   90 1    
   176   89  210 1    
   177   90   91 1    
   178   90   92 1    
   179   90  211 1    
   180   91  212 1    
   181   91  213 1    
   182   91  214 1    
   183   92   93 2    
   184   92   94 am   BACKBONE|DICT|INTERRES
   185   94   95 1    
   186   94  215 1    
   187   95   96 1    
   188   95   97 1    
   189   95  216 1    
   190   96  217 1    
   191   96  218 1    
   192   96  219 1    
   193   97   98 2    
   194   97   99 am   BACKBONE|DICT|INTERRES
   195   99  100 1    
   196   99  220 1    
   197  100  101 1    
   198  100  102 1    
   199  100  221 1    
   200  101  222 1    
   201  101  223 1    
   202  101  224 1    
   203  102  103 2    
   204  102  104 am   BACKBONE|DICT|INTERRES
   205  104  105 1    
   206  104  225 1    
   207  105  106 1    
   208  105  107 1    
   209  105  226 1    
   210  106  227 1    
   211  106  228 1    
   212  106  229 1    
   213  107  108 2    
   214  107  109 am   BACKBONE|DICT|INTERRES
   215  109  110 1    
   216  109  230 1    
   217  110  111 1    
   218  110  112 1    
   219  110  231 1    
   220  111  232 1    
   221  111  233 1    
   222  111  234 1    
   223  112  113 2    
   224  112  114 am   BACKBONE|DICT|INTERRES
   225  114  115 1    
   226  114  235 1    
   227  115  116 1    
   228  115  117 1    
   229  115  236 1    
   230  116  237 1    
   231  116  238 1    
   232  116  239 1    
   233  117  118 2    
   234  117  119 am   BACKBONE|DICT|INTERRES
   235  119  120 1    
   236  119  240 1    
   237  120  121 1    
   238  120  124 1    
   239  120  241 1    
   240  121  122 am   BACKBONE|DICT|INTERRES
   241  121  123 2    
   242  122  242 1    
   243  122  243 1    
   244  124  125 1    
   245  124  244 1    
   246  124  245 1    
   247  125  126 1    
   248  126  246 1    
   249  126  247 1    
@<TRIPOS>SUBSTRUCTURE
     1 UNK         1 GROUP             0       ****    0 ROOT    
