@<TRIPOS>MOLECULE
3R540
247   249    1
SMALL
USER_CHARGES


@<TRIPOS>ATOM
      1 CA         -3.8657  -17.2470  -47.1124 C.3       0 UNK        -0.1800 
      2 C          -3.0064  -16.4672  -48.0935 C.2       0 UNK         0.5000 
      3 O          -3.5389  -15.8415  -49.0078 O.2       0 UNK        -0.5000 
      4 N          -1.6817  -16.5013  -47.9014 N.am      1 UNK        -0.5000 
      5 CA         -0.7037  -15.6963  -48.6411 C.3       1 UNK         0.1400 
      6 C6          0.7519  -16.0719  -48.2631 C.3       23 UNK        -0.0398 
      7 S7          1.9360  -15.6269  -49.5790 S.3       23 UNK        -0.2404 
      8 C8          3.1649  -16.9712  -49.4635 C.3       23 UNK        -0.0205 
      9 C9          2.6060  -18.3593  -49.7625 C.ar      23 UNK        -0.0193 
     10 C10         1.6796  -18.5642  -50.7903 C.ar      23 UNK        -0.1150 
     11 C11         1.1710  -19.8386  -51.0499 C.ar      23 UNK        -0.0193 
     12 C12         1.6146  -20.9219  -50.2851 C.ar      23 UNK        -0.1150 
     13 C13         2.5721  -20.7433  -49.2801 C.ar      23 UNK        -0.0193 
     14 C14         3.0570  -19.4563  -49.0228 C.ar      23 UNK        -0.1150 
     15 C15         3.1295  -21.9613  -48.5461 C.3       23 UNK        -0.0205 
     16 S16         3.4406  -21.7276  -46.7596 S.3       23 UNK        -0.2404 
     17 C17         1.7998  -21.2943  -46.0935 C.3       23 UNK        -0.0398 
     18 CA          0.8674  -22.5217  -45.9086 C.3       11 UNK         0.1400 
     19 N           0.0504  -22.4216  -44.6952 N.am      11 UNK        -0.5000 
     20 C          -0.7978  -23.3608  -44.2499 C.2       10 UNK         0.5000 
     21 O          -0.9454  -24.4606  -44.7766 O.2       10 UNK        -0.5000 
     22 CA         -1.6828  -22.9846  -43.0515 C.3       10 UNK         0.1400 
     23 CB         -0.9498  -23.2320  -41.7251 C.3       10 UNK        -0.1800 
     24 N          -2.1295  -21.5945  -43.1312 N.am      10 UNK        -0.5000 
     25 C          -2.9852  -21.1355  -44.0558 C.2       9 UNK         0.5000 
     26 O          -3.5257  -21.8463  -44.9035 O.2       9 UNK        -0.5000 
     27 CA         -3.2388  -19.6198  -44.0639 C.3       9 UNK         0.1400 
     28 CB         -4.2908  -19.2341  -43.0141 C.3       9 UNK        -0.1800 
     29 N          -2.0156  -18.8464  -43.8374 N.am      9 UNK        -0.5000 
     30 C          -1.0012  -18.7603  -44.7091 C.2       8 UNK         0.5000 
     31 O          -1.0099  -19.2825  -45.8245 O.2       8 UNK        -0.5000 
     32 CA          0.2382  -17.9637  -44.2572 C.3       8 UNK         0.1400 
     33 CB          0.0462  -16.4729  -44.5661 C.3       8 UNK        -0.1800 
     34 N           0.5756  -18.1011  -42.8377 N.am      8 UNK        -0.5000 
     35 C           0.7969  -19.2486  -42.1836 C.2       7 UNK         0.5000 
     36 O           0.6942  -20.3600  -42.7052 O.2       7 UNK        -0.5000 
     37 CA          1.1826  -19.1041  -40.6959 C.3       7 UNK         0.1400 
     38 CB          1.5194  -20.4498  -40.0206 C.3       7 UNK        -0.1800 
     39 N           2.2565  -18.1240  -40.4840 N.am      7 UNK        -0.5000 
     40 C           3.5127  -18.1871  -40.9538 C.2       6 UNK         0.5000 
     41 O           3.9451  -19.1124  -41.6433 O.2       6 UNK        -0.5000 
     42 CA          4.4330  -17.0036  -40.5761 C.3       6 UNK         0.1400 
     43 CB          5.7879  -17.0358  -41.3152 C.3       6 UNK        -0.1800 
     44 N           3.7983  -15.6866  -40.7351 N.am      6 UNK        -0.5000 
     45 C           3.2825  -15.1794  -41.8635 C.2       5 UNK         0.5000 
     46 O           3.2081  -15.7970  -42.9296 O.2       5 UNK        -0.5000 
     47 CA          2.7713  -13.7319  -41.7962 C.3       5 UNK         0.1400 
     48 CB          3.9409  -12.7323  -41.8729 C.3       5 UNK        -0.1800 
     49 N           1.8625  -13.5409  -42.9189 N.am      5 UNK        -0.5000 
     50 C           1.0021  -12.5375  -43.1063 C.2       4 UNK         0.5000 
     51 O           0.8738  -11.5772  -42.3433 O.2       4 UNK        -0.5000 
     52 CA          0.0915  -12.6685  -44.3416 C.3       4 UNK         0.1400 
     53 CB         -1.3453  -13.0013  -43.9048 C.3       4 UNK        -0.1800 
     54 N           0.0578  -11.4876  -45.2042 N.am      4 UNK        -0.5000 
     55 C           1.1062  -10.8431  -45.7366 C.2       3 UNK         0.5000 
     56 O           2.2854  -11.1012  -45.4875 O.2       3 UNK        -0.5000 
     57 CA          0.7402   -9.7720  -46.7882 C.3       3 UNK         0.1400 
     58 CB          1.9636   -9.0252  -47.3614 C.3       3 UNK        -0.1800 
     59 N          -0.0858  -10.3494  -47.8597 N.am      3 UNK        -0.5000 
     60 C           0.2588  -11.3551  -48.6796 C.2       2 UNK         0.5000 
     61 O           1.3952  -11.8265  -48.7639 O.2       2 UNK        -0.5000 
     62 CA         -0.8701  -11.9519  -49.5443 C.3       2 UNK         0.1400 
     63 CB         -0.7770  -11.4458  -50.9915 C.3       2 UNK        -0.1800 
     64 N          -0.8269  -13.4154  -49.5458 N.am      2 UNK        -0.5000 
     65 C          -0.9530  -14.1841  -48.4555 C.2       1 UNK         0.5000 
     66 O          -1.2297  -13.7492  -47.3351 O.2       1 UNK        -0.5000 
     67 C          -0.0075  -22.7446  -47.1581 C.2       11 UNK         0.5000 
     68 O           0.1973  -23.7172  -47.8845 O.2       11 UNK        -0.5000 
     69 N          -0.9953  -21.8605  -47.3546 N.am      12 UNK        -0.5000 
     70 CA         -1.9353  -21.9000  -48.4737 C.3       12 UNK         0.1400 
     71 CB         -2.8187  -20.6468  -48.4171 C.3       12 UNK        -0.1800 
     72 C          -2.7940  -23.1787  -48.5088 C.2       12 UNK         0.5000 
     73 O          -3.0647  -23.7007  -49.5942 O.2       12 UNK        -0.5000 
     74 N          -3.1851  -23.6645  -47.3221 N.am      13 UNK        -0.5000 
     75 CA         -3.9034  -24.9218  -47.1301 C.3       13 UNK         0.1400 
     76 CB         -4.4832  -24.9736  -45.7089 C.3       13 UNK        -0.1800 
     77 C          -3.0210  -26.1518  -47.4085 C.2       13 UNK         0.5000 
     78 O          -3.4596  -27.0529  -48.1221 O.2       13 UNK        -0.5000 
     79 N          -1.7901  -26.1632  -46.8749 N.am      14 UNK        -0.5000 
     80 CA         -0.8037  -27.2340  -47.0602 C.3       14 UNK         0.1400 
     81 CB          0.3995  -26.9992  -46.1346 C.3       14 UNK        -0.1800 
     82 C          -0.3375  -27.3798  -48.5192 C.2       14 UNK         0.5000 
     83 O          -0.1152  -28.5003  -48.9793 O.2       14 UNK        -0.5000 
     84 N          -0.2431  -26.2492  -49.2309 N.am      15 UNK        -0.5000 
     85 CA          0.0123  -26.1803  -50.6698 C.3       15 UNK         0.1400 
     86 CB          0.3699  -24.7298  -51.0346 C.3       15 UNK        -0.1800 
     87 C          -1.1728  -26.6698  -51.5291 C.2       15 UNK         0.5000 
     88 O          -0.9857  -26.9017  -52.7239 O.2       15 UNK        -0.5000 
     89 N          -2.3654  -26.7880  -50.9205 N.am      16 UNK        -0.5000 
     90 CA         -3.6604  -27.1189  -51.5283 C.3       16 UNK         0.1400 
     91 CB         -3.6620  -28.5634  -52.0692 C.3       16 UNK        -0.1800 
     92 C          -4.1109  -26.0796  -52.5768 C.2       16 UNK         0.5000 
     93 O          -4.8466  -26.4139  -53.5073 O.2       16 UNK        -0.5000 
     94 N          -3.6421  -24.8386  -52.4078 N.am      17 UNK        -0.5000 
     95 CA         -3.8402  -23.7292  -53.3329 C.3       17 UNK         0.1400 
     96 CB         -2.4994  -22.9960  -53.4862 C.3       17 UNK        -0.1800 
     97 C          -4.9444  -22.7815  -52.8402 C.2       17 UNK         0.5000 
     98 O          -5.7291  -22.3006  -53.6583 O.2       17 UNK        -0.5000 
     99 N          -4.9992  -22.5665  -51.5159 N.am      18 UNK        -0.5000 
    100 CA        -5.9023  -21.6730  -50.7826 C.3       18 UNK         0.1400 
    101 CB        -7.3764  -22.0735  -50.9994 C.3       18 UNK        -0.1800 
    102 C         -5.6716  -20.1751  -51.0782 C.2       18 UNK         0.5000 
    103 O         -4.9492  -19.8051  -52.0073 O.2       18 UNK        -0.5000 
    104 N         -6.2997  -19.3205  -50.2591 N.am      19 UNK        -0.5000 
    105 CA        -6.1724  -17.8589  -50.3022 C.3       19 UNK         0.1400 
    106 CB        -6.9735  -17.2532  -49.1404 C.3       19 UNK        -0.1800 
    107 C         -6.6002  -17.2217  -51.6385 C.2       19 UNK         0.5000 
    108 O         -6.0812  -16.1665  -52.0017 O.2       19 UNK        -0.5000 
    109 N         -7.5037  -17.8939  -52.3653 N.am      20 UNK        -0.5000 
    110 CA        -7.9492  -17.5220  -53.7086 C.3       20 UNK         0.1400 
    111 CB        -9.0908  -18.4596  -54.1308 C.3       20 UNK        -0.1800 
    112 C         -6.8214  -17.5382  -54.7610 C.2       20 UNK         0.5000 
    113 O         -6.8903  -16.7707  -55.7221 O.2       20 UNK        -0.5000 
    114 N         -5.8097  -18.3936  -54.5600 N.am      21 UNK        -0.5000 
    115 CA        -4.6158  -18.4708  -55.3974 C.3       21 UNK         0.1400 
    116 CB        -4.2595  -19.9442  -55.6358 C.3       21 UNK        -0.1800 
    117 C         -3.4354  -17.7346  -54.7454 C.2       21 UNK         0.5000 
    118 O         -2.7218  -17.0102  -55.4407 O.2       21 UNK        -0.5000 
    119 N         -3.2378  -17.9411  -53.4361 N.am      22 UNK        -0.5000 
    120 CA        -2.1019  -17.3902  -52.6788 C.3       22 UNK         0.1400 
    121 C         -2.1877  -15.8644  -52.3792 C.2       22 UNK         0.5000 
    122 N         -3.3544  -15.2347  -52.4220 N.am      22 UNK        -0.7600 
    123 O         -1.1674  -15.2328  -52.1162 O.2       22 UNK        -0.5000 
    124 C124       -1.8174  -18.1961  -51.3857 C.3       23 UNK        -0.0398 
    125 S125       -1.5485  -19.9772  -51.6738 S.3       23 UNK        -0.2404 
    126 C126        0.1931  -20.0513  -52.1975 C.3       23 UNK        -0.0205 
    127 H127       -3.3262  -17.4314  -46.1854 H         1 UNK         0.0600 
    128 H128       -4.1683  -18.2006  -47.5431 H         1 UNK         0.0600 
    129 H129       -4.7632  -16.6802  -46.8654 H         1 UNK         0.0600 
    130 H130       -1.3141  -17.0657  -47.1504 H         1 UNK         0.3000 
    131 H131       -0.8553  -15.9320  -49.6909 H         1 UNK         0.0600 
    132 H132        1.0658  -15.5940  -47.3336 H         1 UNK         0.0800 
    133 H133        0.8196  -17.1461  -48.0867 H         1 UNK         0.0800 
    134 H134        3.6090  -16.9446  -48.4671 H         1 UNK         0.0800 
    135 H135        3.9722  -16.7661  -50.1674 H         1 UNK         0.0800 
    136 H136        1.3559  -17.7291  -51.3951 H         1 UNK         0.1150 
    137 H137        1.2380  -21.9119  -50.4992 H         1 UNK         0.1150 
    138 H138        3.8047  -19.3103  -48.2562 H         1 UNK         0.1150 
    139 H139        2.4836  -22.8271  -48.6859 H         1 UNK         0.0800 
    140 H140        4.0768  -22.2256  -49.0174 H         1 UNK         0.0800 
    141 H141        1.3480  -20.5051  -46.6975 H         1 UNK         0.0800 
    142 H142        1.9938  -20.8307  -45.1253 H         1 UNK         0.0800 
    143 H143        1.4828  -23.4145  -45.7787 H         1 UNK         0.0600 
    144 H144        0.1420  -21.5700  -44.1496 H         1 UNK         0.3000 
    145 H145       -2.5677  -23.6242  -43.0717 H         1 UNK         0.0600 
    146 H146       -1.5600  -22.9362  -40.8717 H         1 UNK         0.0600 
    147 H147       -0.7157  -24.2906  -41.6068 H         1 UNK         0.0600 
    148 H148       -0.0083  -22.6863  -41.6743 H         1 UNK         0.0600 
    149 H149       -1.6765  -20.9365  -42.5146 H         1 UNK         0.3000 
    150 H150       -3.6355  -19.3684  -45.0481 H         1 UNK         0.0600 
    151 H151       -5.2167  -19.7900  -43.1676 H         1 UNK         0.0600 
    152 H152       -4.5361  -18.1737  -43.0748 H         1 UNK         0.0600 
    153 H153       -3.9467  -19.4424  -42.0003 H         1 UNK         0.0600 
    154 H154       -1.9287  -18.3769  -42.9483 H         1 UNK         0.3000 
    155 H155        1.0877  -18.3305  -44.8368 H         1 UNK         0.0600 
    156 H156       -0.6771  -16.0165  -43.8907 H         1 UNK         0.0600 
    157 H157        0.9866  -15.9317  -44.4756 H         1 UNK         0.0600 
    158 H158       -0.3184  -16.3152  -45.5779 H         1 UNK         0.0600 
    159 H159        0.7204  -17.2398  -42.3327 H         1 UNK         0.3000 
    160 H160        0.3016  -18.7033  -40.1927 H         1 UNK         0.0600 
    161 H161        2.3296  -20.9718  -40.5306 H         1 UNK         0.0600 
    162 H162        0.6528  -21.1107  -40.0207 H         1 UNK         0.0600 
    163 H163        1.8141  -20.3072  -38.9810 H         1 UNK         0.0600 
    164 H164        2.0067  -17.3144  -39.9333 H         1 UNK         0.3000 
    165 H165        4.6423  -17.1164  -39.5113 H         1 UNK         0.0600 
    166 H166        6.4279  -16.2112  -41.0013 H         1 UNK         0.0600 
    167 H167        6.3270  -17.9605  -41.1057 H         1 UNK         0.0600 
    168 H168        5.6611  -16.9687  -42.3963 H         1 UNK         0.0600 
    169 H169        3.7998  -15.1054  -39.9079 H         1 UNK         0.3000 
    170 H170        2.2209  -13.5936  -40.8635 H         1 UNK         0.0600 
    171 H171        4.4926  -12.8343  -42.8083 H         1 UNK         0.0600 
    172 H172        3.5918  -11.7022  -41.8030 H         1 UNK         0.0600 
    173 H173        4.6464  -12.8883  -41.0560 H         1 UNK         0.0600 
    174 H174        1.9125  -14.2999  -43.5877 H         1 UNK         0.3000 
    175 H175        0.4571  -13.4917  -44.9583 H         1 UNK         0.0600 
    176 H176       -1.9717  -13.2560  -44.7596 H         1 UNK         0.0600 
    177 H177       -1.8099  -12.1618  -43.3862 H         1 UNK         0.0600 
    178 H178       -1.3654  -13.8525  -43.2238 H         1 UNK         0.0600 
    179 H179       -0.8633  -11.2005  -45.4989 H         1 UNK         0.3000 
    180 H180        0.1197   -9.0342  -46.2772 H         1 UNK         0.0600 
    181 H181        2.6650   -9.6995  -47.8532 H         1 UNK         0.0600 
    182 H182        2.5094   -8.5123  -46.5688 H         1 UNK         0.0600 
    183 H183        1.6596   -8.2710  -48.0871 H         1 UNK         0.0600 
    184 H184       -1.0432  -10.0267  -47.8835 H         1 UNK         0.3000 
    185 H185       -1.8344  -11.6491  -49.1312 H         1 UNK         0.0600 
    186 H186       -0.8309  -10.3571  -51.0290 H         1 UNK         0.0600 
    187 H187        0.1608  -11.7454  -51.4614 H         1 UNK         0.0600 
    188 H188       -1.5947  -11.8339  -51.5992 H         1 UNK         0.0600 
    189 H189       -0.6110  -13.8603  -50.4302 H         1 UNK         0.3000 
    190 H190       -1.0873  -21.0761  -46.7165 H         1 UNK         0.3000 
    191 H191       -1.3498  -21.8723  -49.3942 H         1 UNK         0.0600 
    192 H192       -2.2135  -19.7401  -48.4360 H         1 UNK         0.0600 
    193 H193       -3.4859  -20.6037  -49.2755 H         1 UNK         0.0600 
    194 H194       -3.4310  -20.6244  -47.5150 H         1 UNK         0.0600 
    195 H195       -2.9645  -23.1363  -46.4852 H         1 UNK         0.3000 
    196 H196       -4.7377  -24.9442  -47.8346 H         1 UNK         0.0600 
    197 H197       -5.0431  -25.8957  -45.5485 H         1 UNK         0.0600 
    198 H198       -5.1665  -24.1427  -45.5326 H         1 UNK         0.0600 
    199 H199       -3.7007  -24.9278  -44.9512 H         1 UNK         0.0600 
    200 H200       -1.5072  -25.3992  -46.2648 H         1 UNK         0.3000 
    201 H201       -1.2764  -28.1746  -46.7704 H         1 UNK         0.0600 
    202 H202        0.0967  -27.0004  -45.0876 H         1 UNK         0.0600 
    203 H203        0.8853  -26.0449  -46.3423 H         1 UNK         0.0600 
    204 H204        1.1476  -27.7835  -46.2565 H         1 UNK         0.0600 
    205 H205       -0.3576  -25.3620  -48.7470 H         1 UNK         0.3000 
    206 H206        0.8701  -26.8157  -50.8990 H         1 UNK         0.0600 
    207 H207        1.2568  -24.3981  -50.4948 H         1 UNK         0.0600 
    208 H208        0.5822  -24.6306  -52.0998 H         1 UNK         0.0600 
    209 H209       -0.4434  -24.0430  -50.7964 H         1 UNK         0.0600 
    210 H210       -2.4055  -26.5997  -49.9261 H         1 UNK         0.3000 
    211 H211       -4.3948  -27.0687  -50.7235 H         1 UNK         0.0600 
    212 H212       -3.0045  -28.6752  -52.9317 H         1 UNK         0.0600 
    213 H213       -4.6630  -28.8631  -52.3812 H         1 UNK         0.0600 
    214 H214       -3.3369  -29.2694  -51.3049 H         1 UNK         0.0600 
    215 H215       -3.0943  -24.6471  -51.5781 H         1 UNK         0.3000 
    216 H216       -4.1339  -24.1018  -54.3166 H         1 UNK         0.0600 
    217 H217       -2.5920  -22.1161  -54.1213 H         1 UNK         0.0600 
    218 H218       -1.7496  -23.6450  -53.9389 H         1 UNK         0.0600 
    219 H219       -2.1122  -22.6714  -52.5207 H         1 UNK         0.0600 
    220 H220       -4.2934  -23.0164  -50.9418 H         1 UNK         0.3000 
    221 H221       -5.6671  -21.8259  -49.7283 H         1 UNK         0.0600 
    222 H222       -7.7195  -21.8423  -52.0082 H         1 UNK         0.0600 
    223 H223       -7.5224  -23.1410  -50.8331 H         1 UNK         0.0600 
    224 H224       -8.0351  -21.5490  -50.3068 H         1 UNK         0.0600 
    225 H225       -6.8847  -19.6910  -49.5242 H         1 UNK         0.3000 
    226 H226       -5.1175  -17.6232  -50.1569 H         1 UNK         0.0600 
    227 H227       -8.0429  -17.4375  -49.2500 H         1 UNK         0.0600 
    228 H228       -6.6594  -17.6662  -48.1823 H         1 UNK         0.0600 
    229 H229       -6.8278  -16.1732  -49.0907 H         1 UNK         0.0600 
    230 H230       -7.8717  -18.7543  -51.9882 H         1 UNK         0.3000 
    231 H231       -8.3399  -16.5035  -53.6604 H         1 UNK         0.0600 
    232 H232       -8.7630  -19.4994  -54.1697 H         1 UNK         0.0600 
    233 H233       -9.4665  -18.1965  -55.1206 H         1 UNK         0.0600 
    234 H234       -9.9307  -18.3967  -53.4387 H         1 UNK         0.0600 
    235 H235       -5.8097  -18.9708  -53.7265 H         1 UNK         0.3000 
    236 H236       -4.8020  -18.0130  -56.3712 H         1 UNK         0.0600 
    237 H237       -5.0747  -20.4744  -56.1283 H         1 UNK         0.0600 
    238 H238       -3.3754  -20.0388  -56.2674 H         1 UNK         0.0600 
    239 H239       -4.0502  -20.4530  -54.6961 H         1 UNK         0.0600 
    240 H240       -3.8407  -18.5873  -52.9337 H         1 UNK         0.3000 
    241 H241       -1.2208  -17.5030  -53.3130 H         1 UNK         0.0600 
    242 H242       -3.3828  -14.2485  -52.2249 H         1 UNK         0.3800 
    243 H243       -4.2270  -15.7370  -52.5421 H         1 UNK         0.3800 
    244 H244       -0.9483  -17.8038  -50.8633 H         1 UNK         0.0800 
    245 H245       -2.6557  -18.0970  -50.6950 H         1 UNK         0.0800 
    246 H246        0.3726  -21.0287  -52.6480 H         1 UNK         0.0800 
    247 H247        0.3697  -19.3224  -52.9893 H         1 UNK         0.0800 
@<TRIPOS>BOND
     1    1    2 1    
     2    1  127 1    
     3    1  128 1    
     4    1  129 1    
     5    2    3 2    
     6    2    4 am   BACKBONE|DICT|INTERRES
     7    4    5 1    
     8    4  130 1    
     9    5    6 1    
    10    5   65 1    
    11    5  131 1    
    12    6    7 1    
    13    6  132 1    
    14    6  133 1    
    15    7    8 1    
    16    8    9 1    
    17    8  134 1    
    18    8  135 1    
    19    9   10 ar   
    20    9   14 ar   
    21   10   11 ar   
    22   10  136 1    
    23   11   12 ar   
    24   11  126 1    
    25   12   13 ar   
    26   12  137 1    
    27   13   14 ar   
    28   13   15 1    
    29   14  138 1    
    30   15   16 1    
    31   15  139 1    
    32   15  140 1    
    33   16   17 1    
    34   17   18 1    
    35   17  141 1    
    36   17  142 1    
    37   18   19 1    
    38   18   67 1    
    39   18  143 1    
    40   19   20 am   BACKBONE|DICT|INTERRES
    41   19  144 1    
    42   20   21 2    
    43   20   22 1    
    44   22   23 1    
    45   22   24 1    
    46   22  145 1    
    47   23  146 1    
    48   23  147 1    
    49   23  148 1    
    50   24   25 am   BACKBONE|DICT|INTERRES
    51   24  149 1    
    52   25   26 2    
    53   25   27 1    
    54   27   28 1    
    55   27   29 1    
    56   27  150 1    
    57   28  151 1    
    58   28  152 1    
    59   28  153 1    
    60   29   30 am   BACKBONE|DICT|INTERRES
    61   29  154 1    
    62   30   31 2    
    63   30   32 1    
    64   32   33 1    
    65   32   34 1    
    66   32  155 1    
    67   33  156 1    
    68   33  157 1    
    69   33  158 1    
    70   34   35 am   BACKBONE|DICT|INTERRES
    71   34  159 1    
    72   35   36 2    
    73   35   37 1    
    74   37   38 1    
    75   37   39 1    
    76   37  160 1    
    77   38  161 1    
    78   38  162 1    
    79   38  163 1    
    80   39   40 am   BACKBONE|DICT|INTERRES
    81   39  164 1    
    82   40   41 2    
    83   40   42 1    
    84   42   43 1    
    85   42   44 1    
    86   42  165 1    
    87   43  166 1    
    88   43  167 1    
    89   43  168 1    
    90   44   45 am   BACKBONE|DICT|INTERRES
    91   44  169 1    
    92   45   46 2    
    93   45   47 1    
    94   47   48 1    
    95   47   49 1    
    96   47  170 1    
    97   48  171 1    
    98   48  172 1    
    99   48  173 1    
   100   49   50 am   BACKBONE|DICT|INTERRES
   101   49  174 1    
   102   50   51 2    
   103   50   52 1    
   104   52   53 1    
   105   52   54 1    
   106   52  175 1    
   107   53  176 1    
   108   53  177 1    
   109   53  178 1    
   110   54   55 am   BACKBONE|DICT|INTERRES
   111   54  179 1    
   112   55   56 2    
   113   55   57 1    
   114   57   58 1    
   115   57   59 1    
   116   57  180 1    
   117   58  181 1    
   118   58  182 1    
   119   58  183 1    
   120   59   60 am   BACKBONE|DICT|INTERRES
   121   59  184 1    
   122   60   61 2    
   123   60   62 1    
   124   62   63 1    
   125   62   64 1    
   126   62  185 1    
   127   63  186 1    
   128   63  187 1    
   129   63  188 1    
   130   64   65 am   BACKBONE|DICT|INTERRES
   131   64  189 1    
   132   65   66 2    
   133   67   68 2    
   134   67   69 am   BACKBONE|DICT|INTERRES
   135   69   70 1    
   136   69  190 1    
   137   70   71 1    
   138   70   72 1    
   139   70  191 1    
   140   71  192 1    
   141   71  193 1    
   142   71  194 1    
   143   72   73 2    
   144   72   74 am   BACKBONE|DICT|INTERRES
   145   74   75 1    
   146   74  195 1    
   147   75   76 1    
   148   75   77 1    
   149   75  196 1    
   150   76  197 1    
   151   76  198 1    
   152   76  199 1    
   153   77   78 2    
   154   77   79 am   BACKBONE|DICT|INTERRES
   155   79   80 1    
   156   79  200 1    
   157   80   81 1    
   158   80   82 1    
   159   80  201 1    
   160   81  202 1    
   161   81  203 1    
   162   81  204 1    
   163   82   83 2    
   164   82   84 am   BACKBONE|DICT|INTERRES
   165   84   85 1    
   166   84  205 1    
   167   85   86 1    
   168   85   87 1    
   169   85  206 1    
   170   86  207 1    
   171   86  208 1    
   172   86  209 1    
   173   87   88 2    
   174   87   89 am   BACKBONE|DICT|INTERRES
   175   89   90 1    
   176   89  210 1    
   177   90   91 1    
   178   90   92 1    
   179   90  211 1    
   180   91  212 1    
   181   91  213 1    
   182   91  214 1    
   183   92   93 2    
   184   92   94 am   BACKBONE|DICT|INTERRES
   185   94   95 1    
   186   94  215 1    
   187   95   96 1    
   188   95   97 1    
   189   95  216 1    
   190   96  217 1    
   191   96  218 1    
   192   96  219 1    
   193   97   98 2    
   194   97   99 am   BACKBONE|DICT|INTERRES
   195   99  100 1    
   196   99  220 1    
   197  100  101 1    
   198  100  102 1    
   199  100  221 1    
   200  101  222 1    
   201  101  223 1    
   202  101  224 1    
   203  102  103 2    
   204  102  104 am   BACKBONE|DICT|INTERRES
   205  104  105 1    
   206  104  225 1    
   207  105  106 1    
   208  105  107 1    
   209  105  226 1    
   210  106  227 1    
   211  106  228 1    
   212  106  229 1    
   213  107  108 2    
   214  107  109 am   BACKBONE|DICT|INTERRES
   215  109  110 1    
   216  109  230 1    
   217  110  111 1    
   218  110  112 1    
   219  110  231 1    
   220  111  232 1    
   221  111  233 1    
   222  111  234 1    
   223  112  113 2    
   224  112  114 am   BACKBONE|DICT|INTERRES
   225  114  115 1    
   226  114  235 1    
   227  115  116 1    
   228  115  117 1    
   229  115  236 1    
   230  116  237 1    
   231  116  238 1    
   232  116  239 1    
   233  117  118 2    
   234  117  119 am   BACKBONE|DICT|INTERRES
   235  119  120 1    
   236  119  240 1    
   237  120  121 1    
   238  120  124 1    
   239  120  241 1    
   240  121  122 am   BACKBONE|DICT|INTERRES
   241  121  123 2    
   242  122  242 1    
   243  122  243 1    
   244  124  125 1    
   245  124  244 1    
   246  124  245 1    
   247  125  126 1    
   248  126  246 1    
   249  126  247 1    
@<TRIPOS>SUBSTRUCTURE
     1 UNK         1 GROUP             0       ****    0 ROOT    
