@<TRIPOS>MOLECULE
3R540
247   249    1
SMALL
USER_CHARGES


@<TRIPOS>ATOM
      1 CA         -2.9456  -19.3905  -45.0605 C.3       0 UNK        -0.1800 
      2 C          -2.3635  -18.0995  -45.6130 C.2       0 UNK         0.5000 
      3 O          -3.1004  -17.1640  -45.9212 O.2       0 UNK        -0.5000 
      4 N          -1.0335  -18.0499  -45.7338 N.am      1 UNK        -0.5000 
      5 CA         -0.2598  -16.9450  -46.3081 C.3       1 UNK         0.1400 
      6 C6          1.0310  -17.4660  -46.9949 C.3       23 UNK        -0.0398 
      7 S7          1.5159  -16.4484  -48.4269 S.3       23 UNK        -0.2404 
      8 C8          3.1445  -17.1544  -48.8220 C.3       23 UNK        -0.0205 
      9 C9          3.0357  -18.3305  -49.7811 C.ar      23 UNK        -0.0193 
     10 C10         2.7874  -18.0924  -51.1359 C.ar      23 UNK        -0.1150 
     11 C11         2.7273  -19.1509  -52.0453 C.ar      23 UNK        -0.0193 
     12 C12         2.9257  -20.4569  -51.5913 C.ar      23 UNK        -0.1150 
     13 C13         3.1693  -20.7113  -50.2391 C.ar      23 UNK        -0.0193 
     14 C14         3.2179  -19.6441  -49.3346 C.ar      23 UNK        -0.1150 
     15 C15         3.4053  -22.1410  -49.7749 C.3       23 UNK        -0.0205 
     16 S16         1.8470  -23.0681  -49.6189 S.3       23 UNK        -0.2404 
     17 C17         1.1469  -22.3092  -48.1178 C.3       23 UNK        -0.0398 
     18 CA          0.2435  -23.2816  -47.3238 C.3       11 UNK         0.1400 
     19 N           0.0010  -22.7670  -45.9811 N.am      11 UNK        -0.5000 
     20 C          -0.5517  -23.4271  -44.9600 C.2       10 UNK         0.5000 
     21 O          -0.8077  -24.6320  -44.9929 O.2       10 UNK        -0.5000 
     22 CA         -0.8676  -22.5887  -43.6983 C.3       10 UNK         0.1400 
     23 CB         -1.4034  -23.4434  -42.5359 C.3       10 UNK        -0.1800 
     24 N           0.2608  -21.7890  -43.2076 N.am      10 UNK        -0.5000 
     25 C           0.7951  -20.7113  -43.7972 C.2       9 UNK         0.5000 
     26 O           0.4275  -20.2741  -44.8907 O.2       9 UNK        -0.5000 
     27 CA          1.8975  -19.9859  -43.0024 C.3       9 UNK         0.1400 
     28 CB          2.5022  -18.7977  -43.7733 C.3       9 UNK        -0.1800 
     29 N           1.4544  -19.5310  -41.6806 N.am      9 UNK        -0.5000 
     30 C           0.3550  -18.8170  -41.3817 C.2       8 UNK         0.5000 
     31 O          -0.5446  -18.5452  -42.1770 O.2       8 UNK        -0.5000 
     32 CA          0.2807  -18.2738  -39.9402 C.3       8 UNK         0.1400 
     33 CB         -0.3071  -19.3312  -38.9935 C.3       8 UNK        -0.1800 
     34 N           1.5838  -17.8294  -39.4309 N.am      8 UNK        -0.5000 
     35 C           2.3111  -16.8413  -39.9728 C.2       7 UNK         0.5000 
     36 O           1.9278  -16.1577  -40.9241 O.2       7 UNK        -0.5000 
     37 CA          3.7151  -16.6209  -39.3777 C.3       7 UNK         0.1400 
     38 CB          4.6312  -17.8138  -39.7018 C.3       7 UNK        -0.1800 
     39 N           4.3315  -15.4136  -39.9237 N.am      7 UNK        -0.5000 
     40 C           4.1237  -14.1664  -39.4827 C.2       6 UNK         0.5000 
     41 O           3.4802  -13.8940  -38.4682 O.2       6 UNK        -0.5000 
     42 CA          4.7400  -13.0323  -40.3269 C.3       6 UNK         0.1400 
     43 CB          6.1473  -12.6838  -39.8178 C.3       6 UNK        -0.1800 
     44 N           4.8148  -13.3802  -41.7497 N.am      6 UNK        -0.5000 
     45 C           3.7625  -13.3653  -42.5784 C.2       5 UNK         0.5000 
     46 O           2.6450  -12.9578  -42.2565 O.2       5 UNK        -0.5000 
     47 CA          3.9987  -13.9460  -43.9841 C.3       5 UNK         0.1400 
     48 CB          3.7944  -15.4692  -43.9686 C.3       5 UNK        -0.1800 
     49 N           3.0924  -13.3677  -44.9729 N.am      5 UNK        -0.5000 
     50 C           3.2248  -12.1509  -45.5148 C.2       4 UNK         0.5000 
     51 O           4.1507  -11.3830  -45.2481 O.2       4 UNK        -0.5000 
     52 CA          2.1554  -11.7190  -46.5314 C.3       4 UNK         0.1400 
     53 CB          2.4164  -12.3748  -47.8972 C.3       4 UNK        -0.1800 
     54 N           0.8108  -12.0771  -46.0802 N.am      4 UNK        -0.5000 
     55 C          -0.1773  -11.2059  -45.8318 C.2       3 UNK         0.5000 
     56 O          -0.0641   -9.9863  -45.9636 O.2       3 UNK        -0.5000 
     57 CA         -1.5319  -11.7829  -45.3666 C.3       3 UNK         0.1400 
     58 CB         -2.4975  -11.9065  -46.5553 C.3       3 UNK        -0.1800 
     59 N          -1.4103  -13.0902  -44.7226 N.am      3 UNK        -0.5000 
     60 C          -0.8522  -13.3026  -43.5236 C.2       2 UNK         0.5000 
     61 O          -0.5241  -12.3908  -42.7645 O.2       2 UNK        -0.5000 
     62 CA         -0.6257  -14.7698  -43.0947 C.3       2 UNK         0.1400 
     63 CB         -1.6349  -15.1462  -41.9985 C.3       2 UNK        -0.1800 
     64 N          -0.7131  -15.7667  -44.1725 N.am      2 UNK        -0.5000 
     65 C           0.0135  -15.8011  -45.2997 C.2       1 UNK         0.5000 
     66 O           0.8551  -14.9444  -45.5702 O.2       1 UNK        -0.5000 
     67 C          -1.1075  -23.4891  -48.0306 C.2       11 UNK         0.5000 
     68 O          -1.9063  -22.5516  -48.0753 O.2       11 UNK        -0.5000 
     69 N          -1.3383  -24.6852  -48.5871 N.am      12 UNK        -0.5000 
     70 CA         -2.6004  -25.0756  -49.2247 C.3       12 UNK         0.1400 
     71 CB         -2.5280  -26.5543  -49.6301 C.3       12 UNK        -0.1800 
     72 C          -2.9983  -24.2045  -50.4314 C.2       12 UNK         0.5000 
     73 O          -4.1905  -24.0375  -50.6863 O.2       12 UNK        -0.5000 
     74 N          -2.0015  -23.6470  -51.1291 N.am      13 UNK        -0.5000 
     75 CA         -2.1842  -22.7196  -52.2451 C.3       13 UNK         0.1400 
     76 CB         -0.8647  -22.6333  -53.0250 C.3       13 UNK        -0.1800 
     77 C          -2.6321  -21.3121  -51.8025 C.2       13 UNK         0.5000 
     78 O          -3.2423  -20.5981  -52.5982 O.2       13 UNK        -0.5000 
     79 N          -2.3043  -20.9294  -50.5603 N.am      14 UNK        -0.5000 
     80 CA         -2.6344  -19.6310  -49.9705 C.3       14 UNK         0.1400 
     81 CB         -1.4449  -19.1433  -49.1306 C.3       14 UNK        -0.1800 
     82 C          -3.9099  -19.7197  -49.1161 C.2       14 UNK         0.5000 
     83 O          -4.7387  -18.8114  -49.1607 O.2       14 UNK        -0.5000 
     84 N          -4.0686  -20.8358  -48.3890 N.am      15 UNK        -0.5000 
     85 CA         -5.2633  -21.1902  -47.6170 C.3       15 UNK         0.1400 
     86 CB         -4.9091  -22.3487  -46.6700 C.3       15 UNK        -0.1800 
     87 C          -6.4689  -21.5741  -48.5008 C.2       15 UNK         0.5000 
     88 O          -7.5880  -21.6551  -47.9949 O.2       15 UNK        -0.5000 
     89 N          -6.2084  -21.8131  -49.7934 N.am      16 UNK        -0.5000 
     90 CA         -7.1403  -22.1703  -50.8640 C.3       16 UNK         0.1400 
     91 CB         -8.2574  -21.1210  -51.0307 C.3       16 UNK        -0.1800 
     92 C          -7.6743  -23.6140  -50.7872 C.2       16 UNK         0.5000 
     93 O          -8.6282  -23.9494  -51.4907 O.2       16 UNK        -0.5000 
     94 N          -7.0171  -24.4637  -49.9876 N.am      17 UNK        -0.5000 
     95 CA         -7.2770  -25.9005  -49.8856 C.3       17 UNK         0.1400 
     96 CB         -6.5477  -26.4544  -48.6526 C.3       17 UNK        -0.1800 
     97 C          -6.8665  -26.6703  -51.1574 C.2       17 UNK         0.5000 
     98 O          -7.4865  -27.6845  -51.4771 O.2       17 UNK        -0.5000 
     99 N          -5.8587  -26.1540  -51.8730 N.am      18 UNK        -0.5000 
    100 CA        -5.3980  -26.6365  -53.1770 C.3       18 UNK         0.1400 
    101 CB        -3.8920  -26.9461  -53.0903 C.3       18 UNK        -0.1800 
    102 C         -5.7215  -25.6051  -54.2781 C.2       18 UNK         0.5000 
    103 O         -4.9578  -25.4763  -55.2363 O.2       18 UNK        -0.5000 
    104 N         -6.8419  -24.8848  -54.1016 N.am      19 UNK        -0.5000 
    105 CA        -7.3015  -23.6982  -54.8351 C.3       19 UNK         0.1400 
    106 CB        -7.3844  -23.9447  -56.3547 C.3       19 UNK        -0.1800 
    107 C         -6.4585  -22.4512  -54.5056 C.2       19 UNK         0.5000 
    108 O         -5.3113  -22.5634  -54.0699 O.2       19 UNK        -0.5000 
    109 N         -7.0562  -21.2670  -54.6859 N.am      20 UNK        -0.5000 
    110 CA        -6.4684  -19.9618  -54.3641 C.3       20 UNK         0.1400 
    111 CB        -7.6065  -18.9399  -54.1874 C.3       20 UNK        -0.1800 
    112 C         -5.4289  -19.5137  -55.4141 C.2       20 UNK         0.5000 
    113 O         -5.6001  -18.4792  -56.0622 O.2       20 UNK        -0.5000 
    114 N         -4.3819  -20.3259  -55.5881 N.am      21 UNK        -0.5000 
    115 CA        -3.2782  -20.0912  -56.5162 C.3       21 UNK         0.1400 
    116 CB        -2.5445  -21.4182  -56.7615 C.3       21 UNK        -0.1800 
    117 C         -2.3034  -19.0034  -56.0270 C.2       21 UNK         0.5000 
    118 O         -1.6750  -18.3457  -56.8580 O.2       21 UNK        -0.5000 
    119 N         -2.2024  -18.8292  -54.7047 N.am      22 UNK        -0.5000 
    120 CA        -1.3743  -17.8181  -54.0348 C.3       22 UNK         0.1400 
    121 C         -2.2565  -16.8290  -53.2271 C.2       22 UNK         0.5000 
    122 N         -1.7556  -15.6324  -52.9520 N.am      22 UNK        -0.7600 
    123 O         -3.3782  -17.1319  -52.8263 O.2       22 UNK        -0.5000 
    124 C124       -0.3093  -18.4741  -53.1199 C.3       23 UNK        -0.0398 
    125 S125        0.8517  -19.5334  -54.0504 S.3       23 UNK        -0.2404 
    126 C126        2.4664  -18.8850  -53.5203 C.3       23 UNK        -0.0205 
    127 H127       -2.5297  -20.2479  -45.5899 H         1 UNK         0.0600 
    128 H128       -4.0288  -19.4103  -45.1787 H         1 UNK         0.0600 
    129 H129       -2.7117  -19.4882  -44.0001 H         1 UNK         0.0600 
    130 H130       -0.4848  -18.8479  -45.4138 H         1 UNK         0.3000 
    131 H131       -0.8840  -16.4982  -47.0846 H         1 UNK         0.0600 
    132 H132        1.8608  -17.5193  -46.2901 H         1 UNK         0.0800 
    133 H133        0.8857  -18.4824  -47.3642 H         1 UNK         0.0800 
    134 H134        3.6646  -17.4410  -47.9067 H         1 UNK         0.0800 
    135 H135        3.7555  -16.3768  -49.2826 H         1 UNK         0.0800 
    136 H136        2.6464  -17.0774  -51.4802 H         1 UNK         0.1150 
    137 H137        2.8849  -21.2785  -52.2929 H         1 UNK         0.1150 
    138 H138        3.4143  -19.8335  -48.2888 H         1 UNK         0.1150 
    139 H139        4.0441  -22.6518  -50.4970 H         1 UNK         0.0800 
    140 H140        3.9481  -22.1591  -48.8287 H         1 UNK         0.0800 
    141 H141        0.6179  -21.3943  -48.3908 H         1 UNK         0.0800 
    142 H142        1.9757  -21.9933  -47.4825 H         1 UNK         0.0800 
    143 H143        0.7540  -24.2419  -47.2240 H         1 UNK         0.0600 
    144 H144        0.1641  -21.7727  -45.8413 H         1 UNK         0.3000 
    145 H145       -1.6628  -21.8975  -43.9821 H         1 UNK         0.0600 
    146 H146       -1.6901  -22.8208  -41.6880 H         1 UNK         0.0600 
    147 H147       -2.2897  -24.0041  -42.8358 H         1 UNK         0.0600 
    148 H148       -0.6597  -24.1620  -42.1896 H         1 UNK         0.0600 
    149 H149        0.6356  -22.0675  -42.3125 H         1 UNK         0.3000 
    150 H150        2.6933  -20.7141  -42.8397 H         1 UNK         0.0600 
    151 H151        2.8824  -19.1105  -44.7464 H         1 UNK         0.0600 
    152 H152        3.3362  -18.3605  -43.2248 H         1 UNK         0.0600 
    153 H153        1.7643  -18.0119  -43.9359 H         1 UNK         0.0600 
    154 H154        2.1033  -19.7044  -40.9270 H         1 UNK         0.3000 
    155 H155       -0.3871  -17.4107  -39.9417 H         1 UNK         0.0600 
    156 H156        0.3339  -20.2106  -38.9205 H         1 UNK         0.0600 
    157 H157       -1.2849  -19.6660  -39.3427 H         1 UNK         0.0600 
    158 H158       -0.4426  -18.9296  -37.9891 H         1 UNK         0.0600 
    159 H159        1.9596  -18.3417  -38.6461 H         1 UNK         0.3000 
    160 H160        3.6236  -16.5261  -38.2937 H         1 UNK         0.0600 
    161 H161        4.7137  -17.9779  -40.7773 H         1 UNK         0.0600 
    162 H162        4.2561  -18.7360  -39.2568 H         1 UNK         0.0600 
    163 H163        5.6362  -17.6558  -39.3098 H         1 UNK         0.0600 
    164 H164        4.8327  -15.5270  -40.7907 H         1 UNK         0.3000 
    165 H165        4.1089  -12.1484  -40.2110 H         1 UNK         0.0600 
    166 H166        6.5698  -11.8444  -40.3704 H         1 UNK         0.0600 
    167 H167        6.1212  -12.3985  -38.7653 H         1 UNK         0.0600 
    168 H168        6.8319  -13.5277  -39.9120 H         1 UNK         0.0600 
    169 H169        5.7080  -13.7071  -42.0895 H         1 UNK         0.3000 
    170 H170        5.0262  -13.7345  -44.2876 H         1 UNK         0.0600 
    171 H171        4.5028  -15.9557  -43.2976 H         1 UNK         0.0600 
    172 H172        2.7913  -15.7315  -43.6295 H         1 UNK         0.0600 
    173 H173        3.9351  -15.9001  -44.9602 H         1 UNK         0.0600 
    174 H174        2.2876  -13.9381  -45.2221 H         1 UNK         0.3000 
    175 H175        2.2449  -10.6380  -46.6554 H         1 UNK         0.0600 
    176 H176        2.3367  -13.4614  -47.8445 H         1 UNK         0.0600 
    177 H177        1.7037  -12.0242  -48.6438 H         1 UNK         0.0600 
    178 H178        3.4157  -12.1350  -48.2624 H         1 UNK         0.0600 
    179 H179        0.6449  -13.0648  -45.9128 H         1 UNK         0.3000 
    180 H180       -1.9613  -11.0828  -44.6469 H         1 UNK         0.0600 
    181 H181       -2.1252  -12.6059  -47.3050 H         1 UNK         0.0600 
    182 H182       -2.6376  -10.9426  -47.0465 H         1 UNK         0.0600 
    183 H183       -3.4800  -12.2508  -46.2320 H         1 UNK         0.0600 
    184 H184       -1.6772  -13.8945  -45.2704 H         1 UNK         0.3000 
    185 H185        0.3815  -14.8291  -42.6785 H         1 UNK         0.0600 
    186 H186       -1.5598  -14.4688  -41.1469 H         1 UNK         0.0600 
    187 H187       -2.6607  -15.1021  -42.3663 H         1 UNK         0.0600 
    188 H188       -1.4586  -16.1518  -41.6237 H         1 UNK         0.0600 
    189 H189       -1.3680  -16.5212  -44.0238 H         1 UNK         0.3000 
    190 H190       -0.6299  -25.4019  -48.5191 H         1 UNK         0.3000 
    191 H191       -3.3878  -24.9678  -48.4768 H         1 UNK         0.0600 
    192 H192       -3.4748  -26.8896  -50.0540 H         1 UNK         0.0600 
    193 H193       -2.3191  -27.1904  -48.7698 H         1 UNK         0.0600 
    194 H194       -1.7523  -26.7305  -50.3764 H         1 UNK         0.0600 
    195 H195       -1.0509  -23.8447  -50.8522 H         1 UNK         0.3000 
    196 H196       -2.9519  -23.1208  -52.9099 H         1 UNK         0.0600 
    197 H197       -0.0483  -22.2719  -52.3976 H         1 UNK         0.0600 
    198 H198       -0.5776  -23.6053  -53.4260 H         1 UNK         0.0600 
    199 H199       -0.9532  -21.9479  -53.8672 H         1 UNK         0.0600 
    200 H200       -1.8474  -21.5955  -49.9510 H         1 UNK         0.3000 
    201 H201       -2.8096  -18.8974  -50.7598 H         1 UNK         0.0600 
    202 H202       -1.2591  -19.7918  -48.2737 H         1 UNK         0.0600 
    203 H203       -1.6334  -18.1399  -48.7492 H         1 UNK         0.0600 
    204 H204       -0.5301  -19.0977  -49.7225 H         1 UNK         0.0600 
    205 H205       -3.3034  -21.5076  -48.3552 H         1 UNK         0.3000 
    206 H206       -5.5547  -20.3259  -47.0172 H         1 UNK         0.0600 
    207 H207       -4.0779  -22.0890  -46.0151 H         1 UNK         0.0600 
    208 H208       -5.7555  -22.6069  -46.0326 H         1 UNK         0.0600 
    209 H209       -4.6284  -23.2459  -47.2223 H         1 UNK         0.0600 
    210 H210       -5.2393  -21.7634  -50.0755 H         1 UNK         0.3000 
    211 H211       -6.5305  -22.1348  -51.7626 H         1 UNK         0.0600 
    212 H212       -8.8184  -21.2919  -51.9501 H         1 UNK         0.0600 
    213 H213       -7.8458  -20.1132  -51.0842 H         1 UNK         0.0600 
    214 H214       -8.9699  -21.1510  -50.2063 H         1 UNK         0.0600 
    215 H215       -6.1960  -24.1142  -49.5146 H         1 UNK         0.3000 
    216 H216       -8.3500  -26.0440  -49.7425 H         1 UNK         0.0600 
    217 H217       -5.4694  -26.3173  -48.7263 H         1 UNK         0.0600 
    218 H218       -6.7359  -27.5223  -48.5345 H         1 UNK         0.0600 
    219 H219       -6.8864  -25.9622  -47.7407 H         1 UNK         0.0600 
    220 H220       -5.4062  -25.3108  -51.5293 H         1 UNK         0.3000 
    221 H221       -5.9151  -27.5581  -53.4503 H         1 UNK         0.0600 
    222 H222       -3.6875  -27.6897  -52.3206 H         1 UNK         0.0600 
    223 H223       -3.3105  -26.0523  -52.8623 H         1 UNK         0.0600 
    224 H224       -3.5179  -27.3509  -54.0313 H         1 UNK         0.0600 
    225 H225       -7.3761  -25.0859  -53.2671 H         1 UNK         0.3000 
    226 H226       -8.3128  -23.5088  -54.4716 H         1 UNK         0.0600 
    227 H227       -6.3981  -24.0137  -56.8141 H         1 UNK         0.0600 
    228 H228       -7.9260  -24.8639  -56.5779 H         1 UNK         0.0600 
    229 H229       -7.9113  -23.1295  -56.8516 H         1 UNK         0.0600 
    230 H230       -7.9861  -21.2453  -55.0790 H         1 UNK         0.3000 
    231 H231       -5.9452  -20.0393  -53.4081 H         1 UNK         0.0600 
    232 H232       -8.1741  -18.8049  -55.1089 H         1 UNK         0.0600 
    233 H233       -7.2128  -17.9651  -53.8967 H         1 UNK         0.0600 
    234 H234       -8.3031  -19.2503  -53.4094 H         1 UNK         0.0600 
    235 H235       -4.3378  -21.1604  -55.0092 H         1 UNK         0.3000 
    236 H236       -3.6941  -19.7548  -57.4683 H         1 UNK         0.0600 
    237 H237       -3.2091  -22.1575  -57.2091 H         1 UNK         0.0600 
    238 H238       -1.7029  -21.2818  -57.4417 H         1 UNK         0.0600 
    239 H239       -2.1555  -21.8391  -55.8352 H         1 UNK         0.0600 
    240 H240       -2.7776  -19.3926  -54.0845 H         1 UNK         0.3000 
    241 H241       -0.8490  -17.2228  -54.7839 H         1 UNK         0.0600 
    242 H242       -2.3155  -14.9819  -52.4233 H         1 UNK         0.3800 
    243 H243       -0.8419  -15.3497  -53.2710 H         1 UNK         0.3800 
    244 H244       -0.7817  -19.0829  -52.3496 H         1 UNK         0.0800 
    245 H245        0.2551  -17.7061  -52.5894 H         1 UNK         0.0800 
    246 H246        2.5205  -17.8186  -53.7448 H         1 UNK         0.0800 
    247 H247        3.2489  -19.3624  -54.1116 H         1 UNK         0.0800 
@<TRIPOS>BOND
     1    1    2 1    
     2    1  127 1    
     3    1  128 1    
     4    1  129 1    
     5    2    3 2    
     6    2    4 am   BACKBONE|DICT|INTERRES
     7    4    5 1    
     8    4  130 1    
     9    5    6 1    
    10    5   65 1    
    11    5  131 1    
    12    6    7 1    
    13    6  132 1    
    14    6  133 1    
    15    7    8 1    
    16    8    9 1    
    17    8  134 1    
    18    8  135 1    
    19    9   10 ar   
    20    9   14 ar   
    21   10   11 ar   
    22   10  136 1    
    23   11   12 ar   
    24   11  126 1    
    25   12   13 ar   
    26   12  137 1    
    27   13   14 ar   
    28   13   15 1    
    29   14  138 1    
    30   15   16 1    
    31   15  139 1    
    32   15  140 1    
    33   16   17 1    
    34   17   18 1    
    35   17  141 1    
    36   17  142 1    
    37   18   19 1    
    38   18   67 1    
    39   18  143 1    
    40   19   20 am   BACKBONE|DICT|INTERRES
    41   19  144 1    
    42   20   21 2    
    43   20   22 1    
    44   22   23 1    
    45   22   24 1    
    46   22  145 1    
    47   23  146 1    
    48   23  147 1    
    49   23  148 1    
    50   24   25 am   BACKBONE|DICT|INTERRES
    51   24  149 1    
    52   25   26 2    
    53   25   27 1    
    54   27   28 1    
    55   27   29 1    
    56   27  150 1    
    57   28  151 1    
    58   28  152 1    
    59   28  153 1    
    60   29   30 am   BACKBONE|DICT|INTERRES
    61   29  154 1    
    62   30   31 2    
    63   30   32 1    
    64   32   33 1    
    65   32   34 1    
    66   32  155 1    
    67   33  156 1    
    68   33  157 1    
    69   33  158 1    
    70   34   35 am   BACKBONE|DICT|INTERRES
    71   34  159 1    
    72   35   36 2    
    73   35   37 1    
    74   37   38 1    
    75   37   39 1    
    76   37  160 1    
    77   38  161 1    
    78   38  162 1    
    79   38  163 1    
    80   39   40 am   BACKBONE|DICT|INTERRES
    81   39  164 1    
    82   40   41 2    
    83   40   42 1    
    84   42   43 1    
    85   42   44 1    
    86   42  165 1    
    87   43  166 1    
    88   43  167 1    
    89   43  168 1    
    90   44   45 am   BACKBONE|DICT|INTERRES
    91   44  169 1    
    92   45   46 2    
    93   45   47 1    
    94   47   48 1    
    95   47   49 1    
    96   47  170 1    
    97   48  171 1    
    98   48  172 1    
    99   48  173 1    
   100   49   50 am   BACKBONE|DICT|INTERRES
   101   49  174 1    
   102   50   51 2    
   103   50   52 1    
   104   52   53 1    
   105   52   54 1    
   106   52  175 1    
   107   53  176 1    
   108   53  177 1    
   109   53  178 1    
   110   54   55 am   BACKBONE|DICT|INTERRES
   111   54  179 1    
   112   55   56 2    
   113   55   57 1    
   114   57   58 1    
   115   57   59 1    
   116   57  180 1    
   117   58  181 1    
   118   58  182 1    
   119   58  183 1    
   120   59   60 am   BACKBONE|DICT|INTERRES
   121   59  184 1    
   122   60   61 2    
   123   60   62 1    
   124   62   63 1    
   125   62   64 1    
   126   62  185 1    
   127   63  186 1    
   128   63  187 1    
   129   63  188 1    
   130   64   65 am   BACKBONE|DICT|INTERRES
   131   64  189 1    
   132   65   66 2    
   133   67   68 2    
   134   67   69 am   BACKBONE|DICT|INTERRES
   135   69   70 1    
   136   69  190 1    
   137   70   71 1    
   138   70   72 1    
   139   70  191 1    
   140   71  192 1    
   141   71  193 1    
   142   71  194 1    
   143   72   73 2    
   144   72   74 am   BACKBONE|DICT|INTERRES
   145   74   75 1    
   146   74  195 1    
   147   75   76 1    
   148   75   77 1    
   149   75  196 1    
   150   76  197 1    
   151   76  198 1    
   152   76  199 1    
   153   77   78 2    
   154   77   79 am   BACKBONE|DICT|INTERRES
   155   79   80 1    
   156   79  200 1    
   157   80   81 1    
   158   80   82 1    
   159   80  201 1    
   160   81  202 1    
   161   81  203 1    
   162   81  204 1    
   163   82   83 2    
   164   82   84 am   BACKBONE|DICT|INTERRES
   165   84   85 1    
   166   84  205 1    
   167   85   86 1    
   168   85   87 1    
   169   85  206 1    
   170   86  207 1    
   171   86  208 1    
   172   86  209 1    
   173   87   88 2    
   174   87   89 am   BACKBONE|DICT|INTERRES
   175   89   90 1    
   176   89  210 1    
   177   90   91 1    
   178   90   92 1    
   179   90  211 1    
   180   91  212 1    
   181   91  213 1    
   182   91  214 1    
   183   92   93 2    
   184   92   94 am   BACKBONE|DICT|INTERRES
   185   94   95 1    
   186   94  215 1    
   187   95   96 1    
   188   95   97 1    
   189   95  216 1    
   190   96  217 1    
   191   96  218 1    
   192   96  219 1    
   193   97   98 2    
   194   97   99 am   BACKBONE|DICT|INTERRES
   195   99  100 1    
   196   99  220 1    
   197  100  101 1    
   198  100  102 1    
   199  100  221 1    
   200  101  222 1    
   201  101  223 1    
   202  101  224 1    
   203  102  103 2    
   204  102  104 am   BACKBONE|DICT|INTERRES
   205  104  105 1    
   206  104  225 1    
   207  105  106 1    
   208  105  107 1    
   209  105  226 1    
   210  106  227 1    
   211  106  228 1    
   212  106  229 1    
   213  107  108 2    
   214  107  109 am   BACKBONE|DICT|INTERRES
   215  109  110 1    
   216  109  230 1    
   217  110  111 1    
   218  110  112 1    
   219  110  231 1    
   220  111  232 1    
   221  111  233 1    
   222  111  234 1    
   223  112  113 2    
   224  112  114 am   BACKBONE|DICT|INTERRES
   225  114  115 1    
   226  114  235 1    
   227  115  116 1    
   228  115  117 1    
   229  115  236 1    
   230  116  237 1    
   231  116  238 1    
   232  116  239 1    
   233  117  118 2    
   234  117  119 am   BACKBONE|DICT|INTERRES
   235  119  120 1    
   236  119  240 1    
   237  120  121 1    
   238  120  124 1    
   239  120  241 1    
   240  121  122 am   BACKBONE|DICT|INTERRES
   241  121  123 2    
   242  122  242 1    
   243  122  243 1    
   244  124  125 1    
   245  124  244 1    
   246  124  245 1    
   247  125  126 1    
   248  126  246 1    
   249  126  247 1    
@<TRIPOS>SUBSTRUCTURE
     1 UNK         1 GROUP             0       ****    0 ROOT    
