@<TRIPOS>MOLECULE
3R540
247   249    1
SMALL
USER_CHARGES


@<TRIPOS>ATOM
      1 CA         -1.6061  -18.3182  -49.1039 C.3       0 UNK        -0.1800 
      2 C          -1.6607  -16.8230  -49.3661 C.2       0 UNK         0.5000 
      3 O          -2.7498  -16.2732  -49.5185 O.2       0 UNK        -0.5000 
      4 N          -0.4910  -16.1759  -49.4278 N.am      1 UNK        -0.5000 
      5 CA         -0.3079  -14.7473  -49.6986 C.3       1 UNK         0.1400 
      6 C6          1.1904  -14.3464  -49.8067 C.3       23 UNK        -0.0398 
      7 S7          2.2907  -15.1116  -48.5586 S.3       23 UNK        -0.2404 
      8 C8          3.4813  -16.0329  -49.5894 C.3       23 UNK        -0.0205 
      9 C9          2.9226  -17.3429  -50.1344 C.ar      23 UNK        -0.0193 
     10 C10         2.1678  -17.3507  -51.3105 C.ar      23 UNK        -0.1150 
     11 C11         1.6758  -18.5456  -51.8386 C.ar      23 UNK        -0.0193 
     12 C12         1.9953  -19.7513  -51.2116 C.ar      23 UNK        -0.1150 
     13 C13         2.7693  -19.7696  -50.0467 C.ar      23 UNK        -0.0193 
     14 C14         3.2110  -18.5579  -49.5012 C.ar      23 UNK        -0.1150 
     15 C15         3.2023  -21.0958  -49.4275 C.3       23 UNK        -0.0205 
     16 S16         1.8502  -22.3099  -49.2645 S.3       23 UNK        -0.2404 
     17 C17         0.9762  -21.6631  -47.8075 C.3       23 UNK        -0.0398 
     18 CA          0.1367  -22.7514  -47.0890 C.3       11 UNK         0.1400 
     19 N           0.1287  -22.5632  -45.6336 N.am      11 UNK        -0.5000 
     20 C          -0.4120  -23.4069  -44.7426 C.2       10 UNK         0.5000 
     21 O          -0.9508  -24.4696  -45.0469 O.2       10 UNK        -0.5000 
     22 CA         -0.3935  -22.9699  -43.2656 C.3       10 UNK         0.1400 
     23 CB          0.9646  -23.2767  -42.6180 C.3       10 UNK        -0.1800 
     24 N          -0.7181  -21.5534  -43.0937 N.am      10 UNK        -0.5000 
     25 C          -1.8989  -21.0057  -43.4178 C.2       9 UNK         0.5000 
     26 O          -2.8619  -21.6511  -43.8300 O.2       9 UNK        -0.5000 
     27 CA         -2.0011  -19.4727  -43.3373 C.3       9 UNK         0.1400 
     28 CB         -2.2268  -19.0082  -41.8912 C.3       9 UNK        -0.1800 
     29 N          -0.8237  -18.8050  -43.8896 N.am      9 UNK        -0.5000 
     30 C          -0.3920  -18.9285  -45.1522 C.2       8 UNK         0.5000 
     31 O          -0.9643  -19.5990  -46.0098 O.2       8 UNK        -0.5000 
     32 CA          0.9387  -18.2382  -45.4909 C.3       8 UNK         0.1400 
     33 CB          0.7327  -16.7314  -45.7068 C.3       8 UNK        -0.1800 
     34 N           1.9415  -18.4575  -44.4467 N.am      8 UNK        -0.5000 
     35 C           2.5008  -19.6440  -44.1680 C.2       7 UNK         0.5000 
     36 O           2.2469  -20.6788  -44.7809 O.2       7 UNK        -0.5000 
     37 CA          3.4795  -19.6925  -42.9811 C.3       7 UNK         0.1400 
     38 CB          4.8732  -19.2089  -43.4086 C.3       7 UNK        -0.1800 
     39 N           3.0180  -18.9000  -41.8420 N.am      7 UNK        -0.5000 
     40 C           1.9330  -19.1853  -41.1079 C.2       6 UNK         0.5000 
     41 O           1.2312  -20.1820  -41.2802 O.2       6 UNK        -0.5000 
     42 CA          1.5342  -18.1439  -40.0428 C.3       6 UNK         0.1400 
     43 CB          2.2913  -18.3942  -38.7302 C.3       6 UNK        -0.1800 
     44 N           1.7521  -16.7580  -40.4769 N.am      6 UNK        -0.5000 
     45 C           1.1742  -16.2086  -41.5534 C.2       5 UNK         0.5000 
     46 O           0.4018  -16.8243  -42.2909 O.2       5 UNK        -0.5000 
     47 CA          1.5742  -14.7616  -41.8998 C.3       5 UNK         0.1400 
     48 CB          2.9780  -14.7317  -42.5262 C.3       5 UNK        -0.1800 
     49 N           0.6373  -14.1599  -42.8480 N.am      5 UNK        -0.5000 
     50 C          -0.6331  -13.8368  -42.5741 C.2       4 UNK         0.5000 
     51 O          -1.1194  -13.8837  -41.4420 O.2       4 UNK        -0.5000 
     52 CA         -1.4989  -13.4069  -43.7778 C.3       4 UNK         0.1400 
     53 CB         -2.7606  -12.6220  -43.3624 C.3       4 UNK        -0.1800 
     54 N          -0.7604  -12.6769  -44.8152 N.am      4 UNK        -0.5000 
     55 C          -0.1121  -11.5068  -44.6780 C.2       3 UNK         0.5000 
     56 O           0.0383  -10.9203  -43.6057 O.2       3 UNK        -0.5000 
     57 CA          0.4434  -10.8649  -45.9673 C.3       3 UNK         0.1400 
     58 CB          1.9105  -11.2717  -46.1763 C.3       3 UNK        -0.1800 
     59 N          -0.3207  -11.2241  -47.1632 N.am      3 UNK        -0.5000 
     60 C          -1.6180  -10.9545  -47.3694 C.2       2 UNK         0.5000 
     61 O          -2.2803  -10.2130  -46.6424 O.2       2 UNK        -0.5000 
     62 CA         -2.3074  -11.6467  -48.5652 C.3       2 UNK         0.1400 
     63 CB         -2.7516  -10.6104  -49.6101 C.3       2 UNK        -0.1800 
     64 N          -1.5141  -12.6788  -49.2434 N.am      2 UNK        -0.5000 
     65 C          -1.0632  -13.8262  -48.7145 C.2       1 UNK         0.5000 
     66 O          -1.1776  -14.1277  -47.5225 O.2       1 UNK        -0.5000 
     67 C          -1.2878  -22.8372  -47.6778 C.2       11 UNK         0.5000 
     68 O          -1.5568  -23.7049  -48.5118 O.2       11 UNK        -0.5000 
     69 N          -2.1793  -21.9544  -47.2068 N.am      12 UNK        -0.5000 
     70 CA         -3.6015  -21.9523  -47.5399 C.3       12 UNK         0.1400 
     71 CB         -4.2474  -20.6437  -47.0599 C.3       12 UNK        -0.1800 
     72 C          -4.3403  -23.1738  -46.9652 C.2       12 UNK         0.5000 
     73 O          -5.0791  -23.8278  -47.7006 O.2       12 UNK        -0.5000 
     74 N          -4.1145  -23.4761  -45.6779 N.am      13 UNK        -0.5000 
     75 CA         -4.7442  -24.5859  -44.9544 C.3       13 UNK         0.1400 
     76 CB         -4.3914  -24.4971  -43.4623 C.3       13 UNK        -0.1800 
     77 C          -4.3778  -25.9731  -45.5127 C.2       13 UNK         0.5000 
     78 O          -5.2460  -26.8422  -45.5986 O.2       13 UNK        -0.5000 
     79 N          -3.1109  -26.1462  -45.9115 N.am      14 UNK        -0.5000 
     80 CA         -2.6011  -27.3508  -46.5705 C.3       14 UNK         0.1400 
     81 CB         -1.0677  -27.3607  -46.4599 C.3       14 UNK        -0.1800 
     82 C          -3.0227  -27.4619  -48.0496 C.2       14 UNK         0.5000 
     83 O          -2.8260  -28.5191  -48.6493 O.2       14 UNK        -0.5000 
     84 N          -3.5495  -26.3654  -48.6174 N.am      15 UNK        -0.5000 
     85 CA         -3.9027  -26.1572  -50.0259 C.3       15 UNK         0.1400 
     86 CB         -5.0145  -27.1254  -50.4782 C.3       15 UNK        -0.1800 
     87 C          -2.6834  -26.1641  -50.9725 C.2       15 UNK         0.5000 
     88 O          -2.8518  -26.2793  -52.1868 O.2       15 UNK        -0.5000 
     89 N          -1.4792  -25.9872  -50.4120 N.am      16 UNK        -0.5000 
     90 CA         -0.2093  -25.8828  -51.1305 C.3       16 UNK         0.1400 
     91 CB          0.9426  -25.9859  -50.1199 C.3       16 UNK        -0.1800 
     92 C          -0.1084  -24.5844  -51.9515 C.2       16 UNK         0.5000 
     93 O           0.5381  -24.5723  -52.9991 O.2       16 UNK        -0.5000 
     94 N          -0.7908  -23.5318  -51.4814 N.am      17 UNK        -0.5000 
     95 CA         -0.9503  -22.2572  -52.1788 C.3       17 UNK         0.1400 
     96 CB         -1.4066  -21.2017  -51.1620 C.3       17 UNK        -0.1800 
     97 C          -1.9451  -22.3170  -53.3548 C.2       17 UNK         0.5000 
     98 O          -1.9954  -21.3721  -54.1401 O.2       17 UNK        -0.5000 
     99 N          -2.7494  -23.3888  -53.4324 N.am      18 UNK        -0.5000 
    100 CA        -3.8526  -23.6571  -54.3671 C.3       18 UNK         0.1400 
    101 CB        -3.3844  -23.6185  -55.8344 C.3       18 UNK        -0.1800 
    102 C         -5.1022  -22.7771  -54.1511 C.2       18 UNK         0.5000 
    103 O         -6.2160  -23.2607  -54.3574 O.2       18 UNK        -0.5000 
    104 N         -4.9149  -21.5295  -53.7119 N.am      19 UNK        -0.5000 
    105 CA        -5.9554  -20.5892  -53.3194 C.3       19 UNK         0.1400 
    106 CB        -6.3683  -19.7381  -54.5317 C.3       19 UNK        -0.1800 
    107 C         -5.4054  -19.7050  -52.1944 C.2       19 UNK         0.5000 
    108 O         -4.2105  -19.4019  -52.1844 O.2       19 UNK        -0.5000 
    109 N         -6.2866  -19.2647  -51.2900 N.am      20 UNK        -0.5000 
    110 CA        -5.9695  -18.3887  -50.1582 C.3       20 UNK         0.1400 
    111 CB        -6.9951  -18.6422  -49.0384 C.3       20 UNK        -0.1800 
    112 C         -5.8966  -16.9036  -50.5788 C.2       20 UNK         0.5000 
    113 O         -6.5671  -16.0548  -49.9875 O.2       20 UNK        -0.5000 
    114 N         -5.0912  -16.6265  -51.6075 N.am      21 UNK        -0.5000 
    115 CA        -4.7608  -15.2963  -52.1114 C.3       21 UNK         0.1400 
    116 CB        -5.9450  -14.6745  -52.8772 C.3       21 UNK        -0.1800 
    117 C         -3.5133  -15.3966  -52.9975 C.2       21 UNK         0.5000 
    118 O         -2.5586  -14.6492  -52.7818 O.2       21 UNK        -0.5000 
    119 N         -3.5593  -16.3478  -53.9451 N.am      22 UNK        -0.5000 
    120 CA        -2.4996  -16.7572  -54.8842 C.3       22 UNK         0.1400 
    121 C         -1.7155  -15.5912  -55.5637 C.2       22 UNK         0.5000 
    122 N         -0.3917  -15.6381  -55.6393 N.am      22 UNK        -0.7600 
    123 O         -2.3207  -14.6610  -56.0919 O.2       22 UNK        -0.5000 
    124 C124       -1.6503  -17.9462  -54.3476 C.3       23 UNK        -0.0398 
    125 S125       -0.7274  -17.6107  -52.8119 S.3       23 UNK        -0.2404 
    126 C126        0.8173  -18.5279  -53.0946 C.3       23 UNK        -0.0205 
    127 H127       -1.9527  -18.5233  -48.0941 H         1 UNK         0.0600 
    128 H128       -2.2599  -18.8415  -49.8008 H         1 UNK         0.0600 
    129 H129       -0.5963  -18.7149  -49.2142 H         1 UNK         0.0600 
    130 H130        0.3668  -16.6878  -49.2795 H         1 UNK         0.3000 
    131 H131       -0.7548  -14.5826  -50.6813 H         1 UNK         0.0600 
    132 H132        1.3162  -13.2640  -49.7436 H         1 UNK         0.0800 
    133 H133        1.5520  -14.5902  -50.8027 H         1 UNK         0.0800 
    134 H134        4.3671  -16.2368  -48.9860 H         1 UNK         0.0800 
    135 H135        3.8231  -15.4011  -50.4107 H         1 UNK         0.0800 
    136 H136        1.9543  -16.4293  -51.8292 H         1 UNK         0.1150 
    137 H137        1.6580  -20.6831  -51.6394 H         1 UNK         0.1150 
    138 H138        3.8179  -18.5619  -48.6066 H         1 UNK         0.1150 
    139 H139        3.9725  -21.5287  -50.0669 H         1 UNK         0.0800 
    140 H140        3.6702  -20.9396  -48.4543 H         1 UNK         0.0800 
    141 H141        1.7419  -21.2808  -47.1364 H         1 UNK         0.0800 
    142 H142        0.3794  -20.7948  -48.0923 H         1 UNK         0.0800 
    143 H143        0.6085  -23.7225  -47.2536 H         1 UNK         0.0600 
    144 H144        0.5912  -21.7296  -45.2867 H         1 UNK         0.3000 
    145 H145       -1.1538  -23.5500  -42.7393 H         1 UNK         0.0600 
    146 H146        0.9546  -23.0418  -41.5535 H         1 UNK         0.0600 
    147 H147        1.2133  -24.3341  -42.7158 H         1 UNK         0.0600 
    148 H148        1.7712  -22.7057  -43.0775 H         1 UNK         0.0600 
    149 H149        0.0129  -20.9595  -42.7158 H         1 UNK         0.3000 
    150 H150       -2.8629  -19.1655  -43.9332 H         1 UNK         0.0600 
    151 H151       -3.1258  -19.4615  -41.4718 H         1 UNK         0.0600 
    152 H152       -2.3516  -17.9264  -41.8398 H         1 UNK         0.0600 
    153 H153       -1.3907  -19.2782  -41.2462 H         1 UNK         0.0600 
    154 H154       -0.3057  -18.1967  -43.2583 H         1 UNK         0.3000 
    155 H155        1.3182  -18.6665  -46.4212 H         1 UNK         0.0600 
    156 H156        1.6807  -16.2241  -45.8819 H         1 UNK         0.0600 
    157 H157        0.2532  -16.2557  -44.8523 H         1 UNK         0.0600 
    158 H158        0.0978  -16.5484  -46.5741 H         1 UNK         0.0600 
    159 H159        2.1513  -17.6723  -43.8501 H         1 UNK         0.3000 
    160 H160        3.5623  -20.7330  -42.6597 H         1 UNK         0.0600 
    161 H161        4.8622  -18.1623  -43.7157 H         1 UNK         0.0600 
    162 H162        5.2475  -19.7940  -44.2497 H         1 UNK         0.0600 
    163 H163        5.5927  -19.3130  -42.5963 H         1 UNK         0.0600 
    164 H164        3.5357  -18.0608  -41.6281 H         1 UNK         0.3000 
    165 H165        0.4667  -18.2657  -39.8486 H         1 UNK         0.0600 
    166 H166        3.3661  -18.2532  -38.8507 H         1 UNK         0.0600 
    167 H167        1.9498  -17.7215  -37.9433 H         1 UNK         0.0600 
    168 H168        2.1315  -19.4136  -38.3762 H         1 UNK         0.0600 
    169 H169        2.3832  -16.2025  -39.9173 H         1 UNK         0.3000 
    170 H170        1.5754  -14.1690  -40.9828 H         1 UNK         0.0600 
    171 H171        3.7262  -15.1331  -41.8417 H         1 UNK         0.0600 
    172 H172        3.0235  -15.3188  -43.4445 H         1 UNK         0.0600 
    173 H173        3.2787  -13.7118  -42.7674 H         1 UNK         0.0600 
    174 H174        0.9435  -14.0950  -43.8066 H         1 UNK         0.3000 
    175 H175       -1.8322  -14.3337  -44.2471 H         1 UNK         0.0600 
    176 H176       -3.3599  -12.3520  -44.2321 H         1 UNK         0.0600 
    177 H177       -3.3949  -13.2174  -42.7049 H         1 UNK         0.0600 
    178 H178       -2.5086  -11.7036  -42.8313 H         1 UNK         0.0600 
    179 H179       -0.8156  -13.0812  -45.7452 H         1 UNK         0.3000 
    180 H180        0.3951   -9.7807  -45.8481 H         1 UNK         0.0600 
    181 H181        2.3414  -10.7657  -47.0405 H         1 UNK         0.0600 
    182 H182        2.5172  -11.0057  -45.3096 H         1 UNK         0.0600 
    183 H183        2.0125  -12.3469  -46.3313 H         1 UNK         0.0600 
    184 H184        0.1362  -11.8402  -47.8176 H         1 UNK         0.3000 
    185 H185       -3.2006  -12.1344  -48.1697 H         1 UNK         0.0600 
    186 H186       -3.3268  -11.0769  -50.4103 H         1 UNK         0.0600 
    187 H187       -3.3875   -9.8460  -49.1614 H         1 UNK         0.0600 
    188 H188       -1.8972  -10.1033  -50.0602 H         1 UNK         0.0600 
    189 H189       -1.3560  -12.5163  -50.2278 H         1 UNK         0.3000 
    190 H190       -1.8560  -21.2376  -46.5626 H         1 UNK         0.3000 
    191 H191       -3.6943  -21.9925  -48.6272 H         1 UNK         0.0600 
    192 H192       -5.3231  -20.6503  -47.2374 H         1 UNK         0.0600 
    193 H193       -3.8387  -19.7850  -47.5901 H         1 UNK         0.0600 
    194 H194       -4.0923  -20.4826  -45.9929 H         1 UNK         0.0600 
    195 H195       -3.5156  -22.8645  -45.1282 H         1 UNK         0.3000 
    196 H196       -5.8254  -24.4690  -45.0523 H         1 UNK         0.0600 
    197 H197       -4.8629  -25.3034  -42.8992 H         1 UNK         0.0600 
    198 H198       -4.7345  -23.5566  -43.0311 H         1 UNK         0.0600 
    199 H199       -3.3156  -24.5679  -43.3003 H         1 UNK         0.0600 
    200 H200       -2.4357  -25.4034  -45.7429 H         1 UNK         0.3000 
    201 H201       -2.9894  -28.2278  -46.0487 H         1 UNK         0.0600 
    202 H202       -0.7474  -27.3304  -45.4183 H         1 UNK         0.0600 
    203 H203       -0.6231  -26.5056  -46.9714 H         1 UNK         0.0600 
    204 H204       -0.6461  -28.2640  -46.9026 H         1 UNK         0.0600 
    205 H205       -3.6846  -25.5552  -48.0256 H         1 UNK         0.3000 
    206 H206       -4.3102  -25.1468  -50.0800 H         1 UNK         0.0600 
    207 H207       -5.8607  -27.1011  -49.7916 H         1 UNK         0.0600 
    208 H208       -5.3912  -26.8536  -51.4649 H         1 UNK         0.0600 
    209 H209       -4.6592  -28.1542  -50.5390 H         1 UNK         0.0600 
    210 H210       -1.4504  -25.8000  -49.4188 H         1 UNK         0.3000 
    211 H211       -0.1376  -26.7227  -51.8246 H         1 UNK         0.0600 
    212 H212        0.8851  -25.2018  -49.3646 H         1 UNK         0.0600 
    213 H213        1.9096  -25.8947  -50.6163 H         1 UNK         0.0600 
    214 H214        0.9293  -26.9466  -49.6049 H         1 UNK         0.0600 
    215 H215       -1.2445  -23.6218  -50.5787 H         1 UNK         0.3000 
    216 H216        0.0161  -21.9581  -52.5866 H         1 UNK         0.0600 
    217 H217       -1.5242  -20.2290  -51.6393 H         1 UNK         0.0600 
    218 H218       -0.6803  -21.0802  -50.3603 H         1 UNK         0.0600 
    219 H219       -2.3654  -21.4610  -50.7120 H         1 UNK         0.0600 
    220 H220       -2.6062  -24.1183  -52.7464 H         1 UNK         0.3000 
    221 H221       -4.1617  -24.6820  -54.1555 H         1 UNK         0.0600 
    222 H222       -3.1143  -22.6115  -56.1529 H         1 UNK         0.0600 
    223 H223       -2.5205  -24.2647  -55.9900 H         1 UNK         0.0600 
    224 H224       -4.1748  -23.9656  -56.5009 H         1 UNK         0.0600 
    225 H225       -3.9648  -21.1965  -53.5774 H         1 UNK         0.3000 
    226 H226       -6.8226  -21.1348  -52.9410 H         1 UNK         0.0600 
    227 H227       -7.1330  -19.0100  -54.2584 H         1 UNK         0.0600 
    228 H228       -5.5204  -19.1887  -54.9430 H         1 UNK         0.0600 
    229 H229       -6.7805  -20.3597  -55.3267 H         1 UNK         0.0600 
    230 H230       -7.2592  -19.5160  -51.3936 H         1 UNK         0.3000 
    231 H231       -4.9849  -18.6568  -49.7679 H         1 UNK         0.0600 
    232 H232       -6.7477  -18.0679  -48.1447 H         1 UNK         0.0600 
    233 H233       -7.0152  -19.6935  -48.7518 H         1 UNK         0.0600 
    234 H234       -8.0033  -18.3601  -49.3440 H         1 UNK         0.0600 
    235 H235       -4.5302  -17.3904  -51.9728 H         1 UNK         0.3000 
    236 H236       -4.5137  -14.6569  -51.2610 H         1 UNK         0.0600 
    237 H237       -6.2856  -15.3188  -53.6883 H         1 UNK         0.0600 
    238 H238       -6.7938  -14.4916  -52.2186 H         1 UNK         0.0600 
    239 H239       -5.6647  -13.7151  -53.3138 H         1 UNK         0.0600 
    240 H240       -4.4251  -16.8550  -54.0451 H         1 UNK         0.3000 
    241 H241       -3.0581  -17.1768  -55.7218 H         1 UNK         0.0600 
    242 H242        0.1002  -14.8900  -56.1026 H         1 UNK         0.3800 
    243 H243        0.1279  -16.3727  -55.1877 H         1 UNK         0.3800 
    244 H244       -0.9723  -18.3116  -55.1201 H         1 UNK         0.0800 
    245 H245       -2.3172  -18.7819  -54.1358 H         1 UNK         0.0800 
    246 H246        1.3768  -18.0681  -53.9098 H         1 UNK         0.0800 
    247 H247        0.5744  -19.5438  -53.4104 H         1 UNK         0.0800 
@<TRIPOS>BOND
     1    1    2 1    
     2    1  127 1    
     3    1  128 1    
     4    1  129 1    
     5    2    3 2    
     6    2    4 am   BACKBONE|DICT|INTERRES
     7    4    5 1    
     8    4  130 1    
     9    5    6 1    
    10    5   65 1    
    11    5  131 1    
    12    6    7 1    
    13    6  132 1    
    14    6  133 1    
    15    7    8 1    
    16    8    9 1    
    17    8  134 1    
    18    8  135 1    
    19    9   10 ar   
    20    9   14 ar   
    21   10   11 ar   
    22   10  136 1    
    23   11   12 ar   
    24   11  126 1    
    25   12   13 ar   
    26   12  137 1    
    27   13   14 ar   
    28   13   15 1    
    29   14  138 1    
    30   15   16 1    
    31   15  139 1    
    32   15  140 1    
    33   16   17 1    
    34   17   18 1    
    35   17  141 1    
    36   17  142 1    
    37   18   19 1    
    38   18   67 1    
    39   18  143 1    
    40   19   20 am   BACKBONE|DICT|INTERRES
    41   19  144 1    
    42   20   21 2    
    43   20   22 1    
    44   22   23 1    
    45   22   24 1    
    46   22  145 1    
    47   23  146 1    
    48   23  147 1    
    49   23  148 1    
    50   24   25 am   BACKBONE|DICT|INTERRES
    51   24  149 1    
    52   25   26 2    
    53   25   27 1    
    54   27   28 1    
    55   27   29 1    
    56   27  150 1    
    57   28  151 1    
    58   28  152 1    
    59   28  153 1    
    60   29   30 am   BACKBONE|DICT|INTERRES
    61   29  154 1    
    62   30   31 2    
    63   30   32 1    
    64   32   33 1    
    65   32   34 1    
    66   32  155 1    
    67   33  156 1    
    68   33  157 1    
    69   33  158 1    
    70   34   35 am   BACKBONE|DICT|INTERRES
    71   34  159 1    
    72   35   36 2    
    73   35   37 1    
    74   37   38 1    
    75   37   39 1    
    76   37  160 1    
    77   38  161 1    
    78   38  162 1    
    79   38  163 1    
    80   39   40 am   BACKBONE|DICT|INTERRES
    81   39  164 1    
    82   40   41 2    
    83   40   42 1    
    84   42   43 1    
    85   42   44 1    
    86   42  165 1    
    87   43  166 1    
    88   43  167 1    
    89   43  168 1    
    90   44   45 am   BACKBONE|DICT|INTERRES
    91   44  169 1    
    92   45   46 2    
    93   45   47 1    
    94   47   48 1    
    95   47   49 1    
    96   47  170 1    
    97   48  171 1    
    98   48  172 1    
    99   48  173 1    
   100   49   50 am   BACKBONE|DICT|INTERRES
   101   49  174 1    
   102   50   51 2    
   103   50   52 1    
   104   52   53 1    
   105   52   54 1    
   106   52  175 1    
   107   53  176 1    
   108   53  177 1    
   109   53  178 1    
   110   54   55 am   BACKBONE|DICT|INTERRES
   111   54  179 1    
   112   55   56 2    
   113   55   57 1    
   114   57   58 1    
   115   57   59 1    
   116   57  180 1    
   117   58  181 1    
   118   58  182 1    
   119   58  183 1    
   120   59   60 am   BACKBONE|DICT|INTERRES
   121   59  184 1    
   122   60   61 2    
   123   60   62 1    
   124   62   63 1    
   125   62   64 1    
   126   62  185 1    
   127   63  186 1    
   128   63  187 1    
   129   63  188 1    
   130   64   65 am   BACKBONE|DICT|INTERRES
   131   64  189 1    
   132   65   66 2    
   133   67   68 2    
   134   67   69 am   BACKBONE|DICT|INTERRES
   135   69   70 1    
   136   69  190 1    
   137   70   71 1    
   138   70   72 1    
   139   70  191 1    
   140   71  192 1    
   141   71  193 1    
   142   71  194 1    
   143   72   73 2    
   144   72   74 am   BACKBONE|DICT|INTERRES
   145   74   75 1    
   146   74  195 1    
   147   75   76 1    
   148   75   77 1    
   149   75  196 1    
   150   76  197 1    
   151   76  198 1    
   152   76  199 1    
   153   77   78 2    
   154   77   79 am   BACKBONE|DICT|INTERRES
   155   79   80 1    
   156   79  200 1    
   157   80   81 1    
   158   80   82 1    
   159   80  201 1    
   160   81  202 1    
   161   81  203 1    
   162   81  204 1    
   163   82   83 2    
   164   82   84 am   BACKBONE|DICT|INTERRES
   165   84   85 1    
   166   84  205 1    
   167   85   86 1    
   168   85   87 1    
   169   85  206 1    
   170   86  207 1    
   171   86  208 1    
   172   86  209 1    
   173   87   88 2    
   174   87   89 am   BACKBONE|DICT|INTERRES
   175   89   90 1    
   176   89  210 1    
   177   90   91 1    
   178   90   92 1    
   179   90  211 1    
   180   91  212 1    
   181   91  213 1    
   182   91  214 1    
   183   92   93 2    
   184   92   94 am   BACKBONE|DICT|INTERRES
   185   94   95 1    
   186   94  215 1    
   187   95   96 1    
   188   95   97 1    
   189   95  216 1    
   190   96  217 1    
   191   96  218 1    
   192   96  219 1    
   193   97   98 2    
   194   97   99 am   BACKBONE|DICT|INTERRES
   195   99  100 1    
   196   99  220 1    
   197  100  101 1    
   198  100  102 1    
   199  100  221 1    
   200  101  222 1    
   201  101  223 1    
   202  101  224 1    
   203  102  103 2    
   204  102  104 am   BACKBONE|DICT|INTERRES
   205  104  105 1    
   206  104  225 1    
   207  105  106 1    
   208  105  107 1    
   209  105  226 1    
   210  106  227 1    
   211  106  228 1    
   212  106  229 1    
   213  107  108 2    
   214  107  109 am   BACKBONE|DICT|INTERRES
   215  109  110 1    
   216  109  230 1    
   217  110  111 1    
   218  110  112 1    
   219  110  231 1    
   220  111  232 1    
   221  111  233 1    
   222  111  234 1    
   223  112  113 2    
   224  112  114 am   BACKBONE|DICT|INTERRES
   225  114  115 1    
   226  114  235 1    
   227  115  116 1    
   228  115  117 1    
   229  115  236 1    
   230  116  237 1    
   231  116  238 1    
   232  116  239 1    
   233  117  118 2    
   234  117  119 am   BACKBONE|DICT|INTERRES
   235  119  120 1    
   236  119  240 1    
   237  120  121 1    
   238  120  124 1    
   239  120  241 1    
   240  121  122 am   BACKBONE|DICT|INTERRES
   241  121  123 2    
   242  122  242 1    
   243  122  243 1    
   244  124  125 1    
   245  124  244 1    
   246  124  245 1    
   247  125  126 1    
   248  126  246 1    
   249  126  247 1    
@<TRIPOS>SUBSTRUCTURE
     1 UNK         1 GROUP             0       ****    0 ROOT    
