@<TRIPOS>MOLECULE
3R540
247   249    1
SMALL
USER_CHARGES


@<TRIPOS>ATOM
      1 CA         -6.1392  -14.2732  -43.9858 C.3       0 UNK        -0.1800 
      2 C          -5.5120  -14.5447  -45.3460 C.2       0 UNK         0.5000 
      3 O          -6.1830  -14.4013  -46.3668 O.2       0 UNK        -0.5000 
      4 N          -4.2327  -14.9419  -45.3553 N.am      1 UNK        -0.5000 
      5 CA         -3.4368  -15.2268  -46.5537 C.3       1 UNK         0.1400 
      6 C6         -2.1088  -15.9318  -46.1679 C.3       23 UNK        -0.0398 
      7 S7         -0.9598  -16.2320  -47.5545 S.3       23 UNK        -0.2404 
      8 C8         -0.8178  -18.0388  -47.5524 C.3       23 UNK        -0.0205 
      9 C9          0.3130  -18.4965  -48.4593 C.ar      23 UNK        -0.0193 
     10 C10         0.2193  -18.3129  -49.8419 C.ar      23 UNK        -0.1150 
     11 C11         1.2611  -18.7045  -50.6847 C.ar      23 UNK        -0.0193 
     12 C12         2.4032  -19.2920  -50.1348 C.ar      23 UNK        -0.1150 
     13 C13         2.5124  -19.4799  -48.7533 C.ar      23 UNK        -0.0193 
     14 C14         1.4622  -19.0839  -47.9193 C.ar      23 UNK        -0.1150 
     15 C15         3.7867  -20.0715  -48.1710 C.3       23 UNK        -0.0205 
     16 S16         3.7342  -21.8903  -48.1120 S.3       23 UNK        -0.2404 
     17 C17         3.0532  -22.1940  -46.4481 C.3       23 UNK        -0.0398 
     18 CA          1.9002  -23.2276  -46.4476 C.3       11 UNK         0.1400 
     19 N           1.8152  -23.9363  -45.1704 N.am      11 UNK        -0.5000 
     20 C           1.1086  -25.0537  -44.9549 C.2       10 UNK         0.5000 
     21 O           0.4786  -25.6484  -45.8298 O.2       10 UNK        -0.5000 
     22 CA          1.0699  -25.5632  -43.5019 C.3       10 UNK         0.1400 
     23 CB          2.2991  -26.4327  -43.1989 C.3       10 UNK        -0.1800 
     24 N           0.9931  -24.4718  -42.5266 N.am      10 UNK        -0.5000 
     25 C          -0.0717  -23.6704  -42.3857 C.2       9 UNK         0.5000 
     26 O          -1.1031  -23.7874  -43.0448 O.2       9 UNK        -0.5000 
     27 CA          0.0444  -22.5202  -41.3713 C.3       9 UNK         0.1400 
     28 CB         -0.2913  -23.0112  -39.9556 C.3       9 UNK        -0.1800 
     29 N           1.3445  -21.8462  -41.3521 N.am      9 UNK        -0.5000 
     30 C           1.9463  -21.2642  -42.3978 C.2       8 UNK         0.5000 
     31 O           1.5511  -21.3681  -43.5592 O.2       8 UNK        -0.5000 
     32 CA          3.1573  -20.3694  -42.0679 C.3       8 UNK         0.1400 
     33 CB          3.9242  -19.9243  -43.3265 C.3       8 UNK        -0.1800 
     34 N           2.7019  -19.1830  -41.3441 N.am      8 UNK        -0.5000 
     35 C           2.3796  -19.1541  -40.0417 C.2       7 UNK         0.5000 
     36 O           2.5782  -20.0984  -39.2754 O.2       7 UNK        -0.5000 
     37 CA          1.6765  -17.8887  -39.5103 C.3       7 UNK         0.1400 
     38 CB          2.6920  -16.9546  -38.8350 C.3       7 UNK        -0.1800 
     39 N           0.9584  -17.1403  -40.5435 N.am      7 UNK        -0.5000 
     40 C          -0.0864  -17.5854  -41.2591 C.2       6 UNK         0.5000 
     41 O          -0.6369  -18.6688  -41.0635 O.2       6 UNK        -0.5000 
     42 CA         -0.5837  -16.6759  -42.4034 C.3       6 UNK         0.1400 
     43 CB         -1.9151  -16.0079  -42.0275 C.3       6 UNK        -0.1800 
     44 N           0.3787  -15.6360  -42.7867 N.am      6 UNK        -0.5000 
     45 C           1.5531  -15.8695  -43.3873 C.2       5 UNK         0.5000 
     46 O           1.9499  -16.9936  -43.6994 O.2       5 UNK        -0.5000 
     47 CA          2.4577  -14.6485  -43.6301 C.3       5 UNK         0.1400 
     48 CB          3.7611  -14.7699  -42.8241 C.3       5 UNK        -0.1800 
     49 N           2.7771  -14.5073  -45.0479 N.am      5 UNK        -0.5000 
     50 C           1.8899  -14.1420  -45.9799 C.2       4 UNK         0.5000 
     51 O           0.7304  -13.8031  -45.7187 O.2       4 UNK        -0.5000 
     52 CA          2.3823  -14.1491  -47.4371 C.3       4 UNK         0.1400 
     53 CB          2.8861  -15.5385  -47.8729 C.3       4 UNK        -0.1800 
     54 N           1.2718  -13.7437  -48.2849 N.am      4 UNK        -0.5000 
     55 C           1.3379  -13.1566  -49.4813 C.2       3 UNK         0.5000 
     56 O           2.3918  -12.9013  -50.0654 O.2       3 UNK        -0.5000 
     57 CA         -0.0094  -12.7876  -50.1338 C.3       3 UNK         0.1400 
     58 CB         -0.4419  -13.8929  -51.1101 C.3       3 UNK        -0.1800 
     59 N          -1.0853  -12.5746  -49.1612 N.am      3 UNK        -0.5000 
     60 C          -1.1704  -11.5600  -48.2915 C.2       2 UNK         0.5000 
     61 O          -0.3515  -10.6414  -48.2443 O.2       2 UNK        -0.5000 
     62 CA         -2.3495  -11.5666  -47.2919 C.3       2 UNK         0.1400 
     63 CB         -3.5783  -10.8478  -47.8804 C.3       2 UNK        -0.1800 
     64 N          -2.7109  -12.8879  -46.7525 N.am      2 UNK        -0.5000 
     65 C          -3.2128  -13.9520  -47.3986 C.2       1 UNK         0.5000 
     66 O          -3.4731  -13.9643  -48.6016 O.2       1 UNK        -0.5000 
     67 C           0.5459  -22.5845  -46.7970 C.2       11 UNK         0.5000 
     68 O           0.0582  -22.7575  -47.9119 O.2       11 UNK        -0.5000 
     69 N          -0.0657  -21.9131  -45.8106 N.am      12 UNK        -0.5000 
     70 CA         -1.3849  -21.2952  -45.9133 C.3       12 UNK         0.1400 
     71 CB         -1.6746  -20.4757  -44.6471 C.3       12 UNK        -0.1800 
     72 C          -2.5091  -22.3052  -46.1938 C.2       12 UNK         0.5000 
     73 O          -3.3910  -22.0041  -46.9970 O.2       12 UNK        -0.5000 
     74 N          -2.4410  -23.4886  -45.5690 N.am      13 UNK        -0.5000 
     75 CA         -3.3479  -24.6092  -45.8142 C.3       13 UNK         0.1400 
     76 CB         -3.1182  -25.7069  -44.7646 C.3       13 UNK        -0.1800 
     77 C          -3.2096  -25.1754  -47.2381 C.2       13 UNK         0.5000 
     78 O          -4.2246  -25.3846  -47.9023 O.2       13 UNK        -0.5000 
     79 N          -1.9646  -25.3732  -47.6971 N.am      14 UNK        -0.5000 
     80 CA         -1.6436  -25.8349  -49.0514 C.3       14 UNK         0.1400 
     81 CB         -0.1436  -26.1537  -49.1423 C.3       14 UNK        -0.1800 
     82 C          -2.0569  -24.8269  -50.1415 C.2       14 UNK         0.5000 
     83 O          -2.5616  -25.2303  -51.1895 O.2       14 UNK        -0.5000 
     84 N          -1.8677  -23.5334  -49.8547 N.am      15 UNK        -0.5000 
     85 CA         -2.2756  -22.4084  -50.6945 C.3       15 UNK         0.1400 
     86 CB         -1.5075  -21.1636  -50.2325 C.3       15 UNK        -0.1800 
     87 C          -3.7892  -22.1200  -50.6561 C.2       15 UNK         0.5000 
     88 O          -4.2603  -21.3049  -51.4509 O.2       15 UNK        -0.5000 
     89 N          -4.5086  -22.7319  -49.7032 N.am      16 UNK        -0.5000 
     90 CA         -5.9226  -22.5197  -49.3789 C.3       16 UNK         0.1400 
     91 CB         -6.8195  -23.1031  -50.4894 C.3       16 UNK        -0.1800 
     92 C          -6.2311  -21.0425  -49.0483 C.2       16 UNK         0.5000 
     93 O          -7.2131  -20.4876  -49.5399 O.2       16 UNK        -0.5000 
     94 N          -5.3464  -20.4281  -48.2479 N.am      17 UNK        -0.5000 
     95 CA         -5.3028  -19.0045  -47.8949 C.3       17 UNK         0.1400 
     96 CB         -6.5089  -18.6095  -47.0182 C.3       17 UNK        -0.1800 
     97 C          -5.1145  -18.0933  -49.1284 C.2       17 UNK         0.5000 
     98 O          -5.7669  -17.0552  -49.2396 O.2       17 UNK        -0.5000 
     99 N          -4.2106  -18.5154  -50.0258 N.am      18 UNK        -0.5000 
    100 CA        -3.8128  -17.8544  -51.2746 C.3       18 UNK         0.1400 
    101 CB        -3.1898  -16.4704  -50.9946 C.3       18 UNK        -0.1800 
    102 C         -4.9406  -17.7918  -52.3266 C.2       18 UNK         0.5000 
    103 O         -4.9804  -16.8574  -53.1304 O.2       18 UNK        -0.5000 
    104 N         -5.8272  -18.7962  -52.3384 N.am      19 UNK        -0.5000 
    105 CA        -6.9606  -18.9069  -53.2601 C.3       19 UNK         0.1400 
    106 CB        -8.0651  -19.7549  -52.6082 C.3       19 UNK        -0.1800 
    107 C         -6.5263  -19.4509  -54.6364 C.2       19 UNK         0.5000 
    108 O         -6.9684  -20.5231  -55.0504 O.2       19 UNK        -0.5000 
    109 N         -5.6349  -18.7059  -55.3045 N.am      20 UNK        -0.5000 
    110 CA        -5.0779  -18.9085  -56.6509 C.3       20 UNK         0.1400 
    111 CB        -6.1946  -18.8927  -57.7135 C.3       20 UNK        -0.1800 
    112 C         -4.1604  -20.1387  -56.8265 C.2       20 UNK         0.5000 
    113 O         -3.4929  -20.2384  -57.8575 O.2       20 UNK        -0.5000 
    114 N         -4.0972  -21.0319  -55.8293 N.am      21 UNK        -0.5000 
    115 CA        -3.3144  -22.2731  -55.8348 C.3       21 UNK         0.1400 
    116 CB        -3.6405  -23.0690  -54.5632 C.3       21 UNK        -0.1800 
    117 C         -1.7920  -22.0641  -55.9675 C.2       21 UNK         0.5000 
    118 O         -1.0984  -22.9580  -56.4543 O.2       21 UNK        -0.5000 
    119 N         -1.3090  -20.8840  -55.5606 N.am      22 UNK        -0.5000 
    120 CA         0.0745  -20.4241  -55.7576 C.3       22 UNK         0.1400 
    121 C          0.4037  -19.9909  -57.2190 C.2       22 UNK         0.5000 
    122 N         -0.5579  -19.8884  -58.1303 N.am      22 UNK        -0.7600 
    123 O          1.5648  -19.7490  -57.5373 O.2       22 UNK        -0.5000 
    124 C124        0.4512  -19.3034  -54.7551 C.3       23 UNK        -0.0398 
    125 S125        0.3197  -19.8450  -53.0195 S.3       23 UNK        -0.2404 
    126 C126        1.1622  -18.4688  -52.1834 C.3       23 UNK        -0.0205 
    127 H127       -5.4367  -14.4501  -43.1709 H         1 UNK         0.0600 
    128 H128       -7.0033  -14.9205  -43.8355 H         1 UNK         0.0600 
    129 H129       -6.4736  -13.2375  -43.9273 H         1 UNK         0.0600 
    130 H130       -3.7529  -15.0387  -44.4731 H         1 UNK         0.3000 
    131 H131       -4.0114  -15.9206  -47.1709 H         1 UNK         0.0600 
    132 H132       -1.5663  -15.3369  -45.4312 H         1 UNK         0.0800 
    133 H133       -2.3324  -16.8779  -45.6733 H         1 UNK         0.0800 
    134 H134       -0.6393  -18.3734  -46.5303 H         1 UNK         0.0800 
    135 H135       -1.7594  -18.4794  -47.8818 H         1 UNK         0.0800 
    136 H136       -0.6626  -17.8561  -50.2636 H         1 UNK         0.1150 
    137 H137        3.2143  -19.5940  -50.7823 H         1 UNK         0.1150 
    138 H138        1.5467  -19.2177  -46.8499 H         1 UNK         0.1150 
    139 H139        4.6365  -19.7726  -48.7865 H         1 UNK         0.0800 
    140 H140        3.9833  -19.6613  -47.1792 H         1 UNK         0.0800 
    141 H141        2.7493  -21.2577  -45.9778 H         1 UNK         0.0800 
    142 H142        3.8839  -22.5652  -45.8464 H         1 UNK         0.0800 
    143 H143        2.1127  -23.9811  -47.2096 H         1 UNK         0.0600 
    144 H144        2.2259  -23.4708  -44.3740 H         1 UNK         0.3000 
    145 H145        0.1779  -26.1836  -43.3911 H         1 UNK         0.0600 
    146 H146        2.2426  -26.8594  -42.1973 H         1 UNK         0.0600 
    147 H147        2.3709  -27.2640  -43.9016 H         1 UNK         0.0600 
    148 H148        3.2258  -25.8619  -43.2696 H         1 UNK         0.0600 
    149 H149        1.8042  -24.3074  -41.9484 H         1 UNK         0.3000 
    150 H150       -0.6968  -21.7683  -41.6491 H         1 UNK         0.0600 
    151 H151       -1.2668  -23.4990  -39.9313 H         1 UNK         0.0600 
    152 H152       -0.3270  -22.1811  -39.2496 H         1 UNK         0.0600 
    153 H153        0.4453  -23.7292  -39.5930 H         1 UNK         0.0600 
    154 H154        1.7320  -21.6530  -40.4357 H         1 UNK         0.3000 
    155 H155        3.8429  -20.9418  -41.4397 H         1 UNK         0.0600 
    156 H156        3.2894  -19.3606  -44.0114 H         1 UNK         0.0600 
    157 H157        4.7751  -19.2944  -43.0670 H         1 UNK         0.0600 
    158 H158        4.3119  -20.7857  -43.8711 H         1 UNK         0.0600 
    159 H159        2.4637  -18.3840  -41.9183 H         1 UNK         0.3000 
    160 H160        0.9486  -18.2078  -38.7616 H         1 UNK         0.0600 
    161 H161        3.4345  -16.5868  -39.5444 H         1 UNK         0.0600 
    162 H162        3.2279  -17.4714  -38.0376 H         1 UNK         0.0600 
    163 H163        2.1986  -16.0923  -38.3862 H         1 UNK         0.0600 
    164 H164        1.3236  -16.2276  -40.7689 H         1 UNK         0.3000 
    165 H165       -0.7549  -17.3143  -43.2730 H         1 UNK         0.0600 
    166 H166       -2.2984  -15.4007  -42.8467 H         1 UNK         0.0600 
    167 H167       -2.6749  -16.7550  -41.7937 H         1 UNK         0.0600 
    168 H168       -1.8085  -15.3638  -41.1537 H         1 UNK         0.0600 
    169 H169        0.1227  -14.6841  -42.5663 H         1 UNK         0.3000 
    170 H170        1.9395  -13.7450  -43.3010 H         1 UNK         0.0600 
    171 H171        4.3408  -15.6450  -43.1214 H         1 UNK         0.0600 
    172 H172        4.3905  -13.8899  -42.9576 H         1 UNK         0.0600 
    173 H173        3.5540  -14.8612  -41.7571 H         1 UNK         0.0600 
    174 H174        3.6999  -14.8006  -45.3323 H         1 UNK         0.3000 
    175 H175        3.1891  -13.4190  -47.5246 H         1 UNK         0.0600 
    176 H176        3.1655  -15.5492  -48.9265 H         1 UNK         0.0600 
    177 H177        2.1214  -16.3005  -47.7263 H         1 UNK         0.0600 
    178 H178        3.7652  -15.8422  -47.3046 H         1 UNK         0.0600 
    179 H179        0.3647  -13.8708  -47.8528 H         1 UNK         0.3000 
    180 H180        0.1319  -11.8620  -50.6952 H         1 UNK         0.0600 
    181 H181       -0.5858  -14.8447  -50.5967 H         1 UNK         0.0600 
    182 H182        0.3113  -14.0488  -51.8834 H         1 UNK         0.0600 
    183 H183       -1.3756  -13.6368  -51.6111 H         1 UNK         0.0600 
    184 H184       -1.8366  -13.2596  -49.1458 H         1 UNK         0.3000 
    185 H185       -2.0193  -10.9860  -46.4290 H         1 UNK         0.0600 
    186 H186       -3.9590  -11.3503  -48.7699 H         1 UNK         0.0600 
    187 H187       -4.3886  -10.7930  -47.1534 H         1 UNK         0.0600 
    188 H188       -3.3291   -9.8256  -48.1677 H         1 UNK         0.0600 
    189 H189       -2.5097  -13.0023  -45.7694 H         1 UNK         0.3000 
    190 H190        0.4241  -21.8022  -44.9249 H         1 UNK         0.3000 
    191 H191       -1.3528  -20.6170  -46.7646 H         1 UNK         0.0600 
    192 H192       -0.8892  -19.7432  -44.4590 H         1 UNK         0.0600 
    193 H193       -2.6152  -19.9316  -44.7409 H         1 UNK         0.0600 
    194 H194       -1.7501  -21.1131  -43.7662 H         1 UNK         0.0600 
    195 H195       -1.7306  -23.6269  -44.8559 H         1 UNK         0.3000 
    196 H196       -4.3702  -24.2423  -45.7005 H         1 UNK         0.0600 
    197 H197       -3.7839  -26.5544  -44.9323 H         1 UNK         0.0600 
    198 H198       -3.3133  -25.3354  -43.7585 H         1 UNK         0.0600 
    199 H199       -2.0947  -26.0819  -44.7894 H         1 UNK         0.0600 
    200 H200       -1.1788  -25.1959  -47.0809 H         1 UNK         0.3000 
    201 H201       -2.1976  -26.7590  -49.2287 H         1 UNK         0.0600 
    202 H202        0.1392  -26.9248  -48.4254 H         1 UNK         0.0600 
    203 H203        0.4688  -25.2736  -48.9439 H         1 UNK         0.0600 
    204 H204        0.1188  -26.5200  -50.1355 H         1 UNK         0.0600 
    205 H205       -1.3607  -23.2955  -49.0046 H         1 UNK         0.3000 
    206 H206       -1.9968  -22.6233  -51.7273 H         1 UNK         0.0600 
    207 H207       -0.4299  -21.3214  -50.2874 H         1 UNK         0.0600 
    208 H208       -1.7380  -20.3045  -50.8610 H         1 UNK         0.0600 
    209 H209       -1.7516  -20.8961  -49.2043 H         1 UNK         0.0600 
    210 H210       -4.0154  -23.3578  -49.0800 H         1 UNK         0.3000 
    211 H211       -6.1179  -23.0825  -48.4650 H         1 UNK         0.0600 
    212 H212       -6.6507  -22.6118  -51.4472 H         1 UNK         0.0600 
    213 H213       -7.8760  -22.9933  -50.2426 H         1 UNK         0.0600 
    214 H214       -6.6277  -24.1675  -50.6254 H         1 UNK         0.0600 
    215 H215       -4.5927  -20.9991  -47.8651 H         1 UNK         0.3000 
    216 H216       -4.4064  -18.8735  -47.2868 H         1 UNK         0.0600 
    217 H217       -6.4062  -17.5870  -46.6523 H         1 UNK         0.0600 
    218 H218       -6.5917  -19.2588  -46.1467 H         1 UNK         0.0600 
    219 H219       -7.4477  -18.6654  -47.5697 H         1 UNK         0.0600 
    220 H220       -3.7978  -19.4237  -49.8734 H         1 UNK         0.3000 
    221 H221       -3.0332  -18.4803  -51.7101 H         1 UNK         0.0600 
    222 H222       -3.9487  -15.7320  -50.7341 H         1 UNK         0.0600 
    223 H223       -2.4779  -16.5074  -50.1721 H         1 UNK         0.0600 
    224 H224       -2.6601  -16.0962  -51.8711 H         1 UNK         0.0600 
    225 H225       -5.6841  -19.5708  -51.7014 H         1 UNK         0.3000 
    226 H226       -7.3775  -17.9116  -53.4278 H         1 UNK         0.0600 
    227 H227       -8.4084  -19.3028  -51.6778 H         1 UNK         0.0600 
    228 H228       -8.9325  -19.8418  -53.2635 H         1 UNK         0.0600 
    229 H229       -7.7189  -20.7632  -52.3842 H         1 UNK         0.0600 
    230 H230       -5.3073  -17.8726  -54.8242 H         1 UNK         0.3000 
    231 H231       -4.4432  -18.0404  -56.8346 H         1 UNK         0.0600 
    232 H232       -6.8535  -19.7569  -57.6247 H         1 UNK         0.0600 
    233 H233       -5.7760  -18.9072  -58.7206 H         1 UNK         0.0600 
    234 H234       -6.8056  -17.9939  -57.6309 H         1 UNK         0.0600 
    235 H235       -4.7143  -20.8924  -55.0414 H         1 UNK         0.3000 
    236 H236       -3.6366  -22.8599  -56.6972 H         1 UNK         0.0600 
    237 H237       -4.7046  -23.2969  -54.4985 H         1 UNK         0.0600 
    238 H238       -3.1015  -24.0171  -54.5409 H         1 UNK         0.0600 
    239 H239       -3.3625  -22.5123  -53.6701 H         1 UNK         0.0600 
    240 H240       -1.9511  -20.2158  -55.1631 H         1 UNK         0.3000 
    241 H241        0.7311  -21.2721  -55.5530 H         1 UNK         0.0600 
    242 H242       -1.5279  -20.0877  -57.9079 H         1 UNK         0.3800 
    243 H243       -0.3158  -19.6117  -59.0685 H         1 UNK         0.3800 
    244 H244        1.4774  -18.9722  -54.9249 H         1 UNK         0.0800 
    245 H245       -0.1840  -18.4280  -54.9002 H         1 UNK         0.0800 
    246 H246        2.1599  -18.3409  -52.6060 H         1 UNK         0.0800 
    247 H247        0.6224  -17.5408  -52.3786 H         1 UNK         0.0800 
@<TRIPOS>BOND
     1    1    2 1    
     2    1  127 1    
     3    1  128 1    
     4    1  129 1    
     5    2    3 2    
     6    2    4 am   BACKBONE|DICT|INTERRES
     7    4    5 1    
     8    4  130 1    
     9    5    6 1    
    10    5   65 1    
    11    5  131 1    
    12    6    7 1    
    13    6  132 1    
    14    6  133 1    
    15    7    8 1    
    16    8    9 1    
    17    8  134 1    
    18    8  135 1    
    19    9   10 ar   
    20    9   14 ar   
    21   10   11 ar   
    22   10  136 1    
    23   11   12 ar   
    24   11  126 1    
    25   12   13 ar   
    26   12  137 1    
    27   13   14 ar   
    28   13   15 1    
    29   14  138 1    
    30   15   16 1    
    31   15  139 1    
    32   15  140 1    
    33   16   17 1    
    34   17   18 1    
    35   17  141 1    
    36   17  142 1    
    37   18   19 1    
    38   18   67 1    
    39   18  143 1    
    40   19   20 am   BACKBONE|DICT|INTERRES
    41   19  144 1    
    42   20   21 2    
    43   20   22 1    
    44   22   23 1    
    45   22   24 1    
    46   22  145 1    
    47   23  146 1    
    48   23  147 1    
    49   23  148 1    
    50   24   25 am   BACKBONE|DICT|INTERRES
    51   24  149 1    
    52   25   26 2    
    53   25   27 1    
    54   27   28 1    
    55   27   29 1    
    56   27  150 1    
    57   28  151 1    
    58   28  152 1    
    59   28  153 1    
    60   29   30 am   BACKBONE|DICT|INTERRES
    61   29  154 1    
    62   30   31 2    
    63   30   32 1    
    64   32   33 1    
    65   32   34 1    
    66   32  155 1    
    67   33  156 1    
    68   33  157 1    
    69   33  158 1    
    70   34   35 am   BACKBONE|DICT|INTERRES
    71   34  159 1    
    72   35   36 2    
    73   35   37 1    
    74   37   38 1    
    75   37   39 1    
    76   37  160 1    
    77   38  161 1    
    78   38  162 1    
    79   38  163 1    
    80   39   40 am   BACKBONE|DICT|INTERRES
    81   39  164 1    
    82   40   41 2    
    83   40   42 1    
    84   42   43 1    
    85   42   44 1    
    86   42  165 1    
    87   43  166 1    
    88   43  167 1    
    89   43  168 1    
    90   44   45 am   BACKBONE|DICT|INTERRES
    91   44  169 1    
    92   45   46 2    
    93   45   47 1    
    94   47   48 1    
    95   47   49 1    
    96   47  170 1    
    97   48  171 1    
    98   48  172 1    
    99   48  173 1    
   100   49   50 am   BACKBONE|DICT|INTERRES
   101   49  174 1    
   102   50   51 2    
   103   50   52 1    
   104   52   53 1    
   105   52   54 1    
   106   52  175 1    
   107   53  176 1    
   108   53  177 1    
   109   53  178 1    
   110   54   55 am   BACKBONE|DICT|INTERRES
   111   54  179 1    
   112   55   56 2    
   113   55   57 1    
   114   57   58 1    
   115   57   59 1    
   116   57  180 1    
   117   58  181 1    
   118   58  182 1    
   119   58  183 1    
   120   59   60 am   BACKBONE|DICT|INTERRES
   121   59  184 1    
   122   60   61 2    
   123   60   62 1    
   124   62   63 1    
   125   62   64 1    
   126   62  185 1    
   127   63  186 1    
   128   63  187 1    
   129   63  188 1    
   130   64   65 am   BACKBONE|DICT|INTERRES
   131   64  189 1    
   132   65   66 2    
   133   67   68 2    
   134   67   69 am   BACKBONE|DICT|INTERRES
   135   69   70 1    
   136   69  190 1    
   137   70   71 1    
   138   70   72 1    
   139   70  191 1    
   140   71  192 1    
   141   71  193 1    
   142   71  194 1    
   143   72   73 2    
   144   72   74 am   BACKBONE|DICT|INTERRES
   145   74   75 1    
   146   74  195 1    
   147   75   76 1    
   148   75   77 1    
   149   75  196 1    
   150   76  197 1    
   151   76  198 1    
   152   76  199 1    
   153   77   78 2    
   154   77   79 am   BACKBONE|DICT|INTERRES
   155   79   80 1    
   156   79  200 1    
   157   80   81 1    
   158   80   82 1    
   159   80  201 1    
   160   81  202 1    
   161   81  203 1    
   162   81  204 1    
   163   82   83 2    
   164   82   84 am   BACKBONE|DICT|INTERRES
   165   84   85 1    
   166   84  205 1    
   167   85   86 1    
   168   85   87 1    
   169   85  206 1    
   170   86  207 1    
   171   86  208 1    
   172   86  209 1    
   173   87   88 2    
   174   87   89 am   BACKBONE|DICT|INTERRES
   175   89   90 1    
   176   89  210 1    
   177   90   91 1    
   178   90   92 1    
   179   90  211 1    
   180   91  212 1    
   181   91  213 1    
   182   91  214 1    
   183   92   93 2    
   184   92   94 am   BACKBONE|DICT|INTERRES
   185   94   95 1    
   186   94  215 1    
   187   95   96 1    
   188   95   97 1    
   189   95  216 1    
   190   96  217 1    
   191   96  218 1    
   192   96  219 1    
   193   97   98 2    
   194   97   99 am   BACKBONE|DICT|INTERRES
   195   99  100 1    
   196   99  220 1    
   197  100  101 1    
   198  100  102 1    
   199  100  221 1    
   200  101  222 1    
   201  101  223 1    
   202  101  224 1    
   203  102  103 2    
   204  102  104 am   BACKBONE|DICT|INTERRES
   205  104  105 1    
   206  104  225 1    
   207  105  106 1    
   208  105  107 1    
   209  105  226 1    
   210  106  227 1    
   211  106  228 1    
   212  106  229 1    
   213  107  108 2    
   214  107  109 am   BACKBONE|DICT|INTERRES
   215  109  110 1    
   216  109  230 1    
   217  110  111 1    
   218  110  112 1    
   219  110  231 1    
   220  111  232 1    
   221  111  233 1    
   222  111  234 1    
   223  112  113 2    
   224  112  114 am   BACKBONE|DICT|INTERRES
   225  114  115 1    
   226  114  235 1    
   227  115  116 1    
   228  115  117 1    
   229  115  236 1    
   230  116  237 1    
   231  116  238 1    
   232  116  239 1    
   233  117  118 2    
   234  117  119 am   BACKBONE|DICT|INTERRES
   235  119  120 1    
   236  119  240 1    
   237  120  121 1    
   238  120  124 1    
   239  120  241 1    
   240  121  122 am   BACKBONE|DICT|INTERRES
   241  121  123 2    
   242  122  242 1    
   243  122  243 1    
   244  124  125 1    
   245  124  244 1    
   246  124  245 1    
   247  125  126 1    
   248  126  246 1    
   249  126  247 1    
@<TRIPOS>SUBSTRUCTURE
     1 UNK         1 GROUP             0       ****    0 ROOT    
