@<TRIPOS>MOLECULE
3R540
247   249    1
SMALL
USER_CHARGES


@<TRIPOS>ATOM
      1 CA          1.6677  -11.5824  -49.9549 C.3       0 UNK        -0.1800 
      2 C           1.1184  -12.8833  -49.3754 C.2       0 UNK         0.5000 
      3 O          -0.0905  -13.0047  -49.1934 O.2       0 UNK        -0.5000 
      4 N           1.9533  -13.8862  -49.0699 N.am      1 UNK        -0.5000 
      5 CA          3.4222  -13.9013  -49.1786 C.3       1 UNK         0.1400 
      6 C6          3.9754  -15.3490  -49.2025 C.3       23 UNK        -0.0398 
      7 S7          3.4039  -16.3097  -50.6484 S.3       23 UNK        -0.2404 
      8 C8          1.9586  -17.1678  -49.9440 C.3       23 UNK        -0.0205 
      9 C9          1.2442  -18.0858  -50.9253 C.ar      23 UNK        -0.0193 
     10 C10         0.9093  -17.6464  -52.2093 C.ar      23 UNK        -0.1150 
     11 C11         0.1991  -18.4763  -53.0787 C.ar      23 UNK        -0.0193 
     12 C12        -0.1869  -19.7499  -52.6529 C.ar      23 UNK        -0.1150 
     13 C13         0.1328  -20.2061  -51.3702 C.ar      23 UNK        -0.0193 
     14 C14         0.8512  -19.3628  -50.5137 C.ar      23 UNK        -0.1150 
     15 C15        -0.3539  -21.5915  -50.9446 C.3       23 UNK        -0.0205 
     16 S16         0.6897  -22.4536  -49.7193 S.3       23 UNK        -0.2404 
     17 C17        -0.0740  -21.9673  -48.1320 C.3       23 UNK        -0.0398 
     18 CA          0.3485  -22.9167  -46.9786 C.3       11 UNK         0.1400 
     19 N           0.6871  -22.1875  -45.7476 N.am      11 UNK        -0.5000 
     20 C           1.3800  -22.7061  -44.7219 C.2       10 UNK         0.5000 
     21 O           1.7679  -23.8744  -44.6857 O.2       10 UNK        -0.5000 
     22 CA          1.6535  -21.7786  -43.5232 C.3       10 UNK         0.1400 
     23 CB          2.7661  -20.7683  -43.8423 C.3       10 UNK        -0.1800 
     24 N           0.4485  -21.0701  -43.0956 N.am      10 UNK        -0.5000 
     25 C          -0.5904  -21.6553  -42.4839 C.2       9 UNK         0.5000 
     26 O          -0.5936  -22.8330  -42.1267 O.2       9 UNK        -0.5000 
     27 CA         -1.8511  -20.7970  -42.2626 C.3       9 UNK         0.1400 
     28 CB         -1.7787  -20.0551  -40.9199 C.3       9 UNK        -0.1800 
     29 N          -2.0940  -19.8407  -43.3458 N.am      9 UNK        -0.5000 
     30 C          -2.3592  -20.1897  -44.6130 C.2       8 UNK         0.5000 
     31 O          -2.4652  -21.3540  -44.9926 O.2       8 UNK        -0.5000 
     32 CA         -2.4710  -19.0588  -45.6479 C.3       8 UNK         0.1400 
     33 CB         -3.8724  -18.4317  -45.6332 C.3       8 UNK        -0.1800 
     34 N          -1.4521  -18.0247  -45.4741 N.am      8 UNK        -0.5000 
     35 C          -0.1365  -18.2346  -45.6251 C.2       7 UNK         0.5000 
     36 O           0.3409  -19.3092  -45.9868 O.2       7 UNK        -0.5000 
     37 CA          0.8073  -17.0754  -45.2600 C.3       7 UNK         0.1400 
     38 CB          0.8854  -16.0392  -46.3876 C.3       7 UNK        -0.1800 
     39 N           0.4156  -16.4106  -44.0222 N.am      7 UNK        -0.5000 
     40 C           0.4051  -16.9904  -42.8154 C.2       6 UNK         0.5000 
     41 O           0.7706  -18.1470  -42.6061 O.2       6 UNK        -0.5000 
     42 CA         -0.1528  -16.1438  -41.6604 C.3       6 UNK         0.1400 
     43 CB          0.9153  -15.1758  -41.1296 C.3       6 UNK        -0.1800 
     44 N          -1.3427  -15.3927  -42.0637 N.am      6 UNK        -0.5000 
     45 C          -2.5294  -15.9511  -42.3409 C.2       5 UNK         0.5000 
     46 O          -2.7510  -17.1595  -42.2661 O.2       5 UNK        -0.5000 
     47 CA         -3.6445  -15.0027  -42.8169 C.3       5 UNK         0.1400 
     48 CB         -4.3051  -14.2975  -41.6230 C.3       5 UNK        -0.1800 
     49 N          -3.1649  -14.0009  -43.7701 N.am      5 UNK        -0.5000 
     50 C          -2.7264  -14.2855  -45.0041 C.2       4 UNK         0.5000 
     51 O          -2.6877  -15.4226  -45.4710 O.2       4 UNK        -0.5000 
     52 CA         -2.1947  -13.1075  -45.8400 C.3       4 UNK         0.1400 
     53 CB         -3.3468  -12.3870  -46.5553 C.3       4 UNK        -0.1800 
     54 N          -1.4063  -12.1354  -45.0739 N.am      4 UNK        -0.5000 
     55 C          -0.2912  -12.4346  -44.3963 C.2       3 UNK         0.5000 
     56 O           0.1218  -13.5844  -44.2284 O.2       3 UNK        -0.5000 
     57 CA          0.5285  -11.2640  -43.8275 C.3       3 UNK         0.1400 
     58 CB          0.4116  -11.2049  -42.2971 C.3       3 UNK        -0.1800 
     59 N           1.9274  -11.4623  -44.2050 N.am      3 UNK        -0.5000 
     60 C           2.3801  -11.2772  -45.4513 C.2       2 UNK         0.5000 
     61 O           1.7573  -10.6491  -46.3103 O.2       2 UNK        -0.5000 
     62 CA          3.6922  -11.9727  -45.8483 C.3       2 UNK         0.1400 
     63 CB          4.3497  -12.8064  -44.7286 C.3       2 UNK        -0.1800 
     64 N           3.3498  -12.8413  -46.9670 N.am      2 UNK        -0.5000 
     65 C           4.0958  -13.0884  -48.0477 C.2       1 UNK         0.5000 
     66 O           5.2524  -12.6903  -48.1872 O.2       1 UNK        -0.5000 
     67 C          -0.6699  -24.0603  -46.7600 C.2       11 UNK         0.5000 
     68 O          -0.7421  -24.9738  -47.5840 O.2       11 UNK        -0.5000 
     69 N          -1.3997  -24.0376  -45.6346 N.am      12 UNK        -0.5000 
     70 CA         -2.3177  -25.0928  -45.1967 C.3       12 UNK         0.1400 
     71 CB         -3.0393  -24.6511  -43.9160 C.3       12 UNK        -0.1800 
     72 C          -1.6367  -26.4600  -44.9910 C.2       12 UNK         0.5000 
     73 O          -2.3006  -27.4865  -45.1337 O.2       12 UNK        -0.5000 
     74 N          -0.3191  -26.4643  -44.7356 N.am      13 UNK        -0.5000 
     75 CA          0.5207  -27.6650  -44.6966 C.3       13 UNK         0.1400 
     76 CB          1.9132  -27.2847  -44.1725 C.3       13 UNK        -0.1800 
     77 C           0.6346  -28.3795  -46.0614 C.2       13 UNK         0.5000 
     78 O           0.8809  -29.5855  -46.0909 O.2       13 UNK        -0.5000 
     79 N           0.4283  -27.6359  -47.1574 N.am      14 UNK        -0.5000 
     80 CA          0.3616  -28.1379  -48.5306 C.3       14 UNK         0.1400 
     81 CB          1.1613  -27.1850  -49.4370 C.3       14 UNK        -0.1800 
     82 C          -1.0963  -28.2774  -49.0209 C.2       14 UNK         0.5000 
     83 O          -1.3061  -28.5413  -50.2055 O.2       14 UNK        -0.5000 
     84 N          -2.0727  -28.0902  -48.1166 N.am      15 UNK        -0.5000 
     85 CA         -3.5224  -28.0974  -48.3462 C.3       15 UNK         0.1400 
     86 CB         -4.0078  -29.5022  -48.7615 C.3       15 UNK        -0.1800 
     87 C          -3.9943  -26.9819  -49.3052 C.2       15 UNK         0.5000 
     88 O          -4.9457  -27.1802  -50.0635 O.2       15 UNK        -0.5000 
     89 N          -3.3221  -25.8272  -49.2482 N.am      16 UNK        -0.5000 
     90 CA         -3.6035  -24.6334  -50.0409 C.3       16 UNK         0.1400 
     91 CB         -2.4267  -24.4276  -51.0083 C.3       16 UNK        -0.1800 
     92 C          -3.8059  -23.4242  -49.1088 C.2       16 UNK         0.5000 
     93 O          -3.7547  -23.5724  -47.8873 O.2       16 UNK        -0.5000 
     94 N          -4.0366  -22.2414  -49.6869 N.am      17 UNK        -0.5000 
     95 CA         -4.1626  -20.9806  -48.9628 C.3       17 UNK         0.1400 
     96 CB         -5.6139  -20.7747  -48.4990 C.3       17 UNK        -0.1800 
     97 C          -3.7010  -19.8384  -49.8736 C.2       17 UNK         0.5000 
     98 O          -3.9355  -19.8937  -51.0837 O.2       17 UNK        -0.5000 
     99 N          -3.0596  -18.8274  -49.2752 N.am      18 UNK        -0.5000 
    100 CA        -2.5813  -17.6217  -49.9497 C.3       18 UNK         0.1400 
    101 CB        -1.7729  -16.7793  -48.9513 C.3       18 UNK        -0.1800 
    102 C         -3.7426  -16.8061  -50.5442 C.2       18 UNK         0.5000 
    103 O         -4.8343  -16.7840  -49.9703 O.2       18 UNK        -0.5000 
    104 N         -3.4909  -16.1887  -51.7042 N.am      19 UNK        -0.5000 
    105 CA        -4.4242  -15.4815  -52.5917 C.3       19 UNK         0.1400 
    106 CB        -5.1317  -14.3129  -51.8789 C.3       19 UNK        -0.1800 
    107 C         -5.4328  -16.4131  -53.2953 C.2       19 UNK         0.5000 
    108 O         -5.6346  -16.2784  -54.5020 O.2       19 UNK        -0.5000 
    109 N         -6.0317  -17.3457  -52.5448 N.am      20 UNK        -0.5000 
    110 CA        -7.0314  -18.3048  -53.0103 C.3       20 UNK         0.1400 
    111 CB        -7.6481  -19.0165  -51.7969 C.3       20 UNK        -0.1800 
    112 C         -6.4717  -19.3269  -54.0151 C.2       20 UNK         0.5000 
    113 O         -7.0749  -19.5340  -55.0689 O.2       20 UNK        -0.5000 
    114 N         -5.3272  -19.9405  -53.6827 N.am      21 UNK        -0.5000 
    115 CA        -4.6784  -20.9634  -54.5094 C.3       21 UNK         0.1400 
    116 CB        -3.8016  -21.8496  -53.6112 C.3       21 UNK        -0.1800 
    117 C         -3.8509  -20.3840  -55.6736 C.2       21 UNK         0.5000 
    118 O         -3.3991  -21.1484  -56.5272 O.2       21 UNK        -0.5000 
    119 N         -3.6465  -19.0614  -55.6848 N.am      22 UNK        -0.5000 
    120 CA        -2.8052  -18.3464  -56.6591 C.3       22 UNK         0.1400 
    121 C         -3.4469  -18.1590  -58.0654 C.2       22 UNK         0.5000 
    122 N         -4.7270  -18.4528  -58.2594 N.am      22 UNK        -0.7600 
    123 O         -2.7673  -17.7445  -59.0004 O.2       22 UNK        -0.5000 
    124 C124       -2.2808  -16.9910  -56.1092 C.3       23 UNK        -0.0398 
    125 S125       -1.7317  -17.0415  -54.3692 S.3       23 UNK        -0.2404 
    126 C126       -0.1858  -17.9854  -54.4633 C.3       23 UNK        -0.0205 
    127 H127        2.2463  -11.7693  -50.8591 H         1 UNK         0.0600 
    128 H128        2.2982  -11.0689  -49.2294 H         1 UNK         0.0600 
    129 H129        0.8514  -10.9096  -50.2182 H         1 UNK         0.0600 
    130 H130        1.5462  -14.7351  -48.7124 H         1 UNK         0.3000 
    131 H131        3.7056  -13.4280  -50.1202 H         1 UNK         0.0600 
    132 H132        5.0661  -15.3340  -49.2469 H         1 UNK         0.0800 
    133 H133        3.7224  -15.8798  -48.2829 H         1 UNK         0.0800 
    134 H134        2.2818  -17.7300  -49.0665 H         1 UNK         0.0800 
    135 H135        1.2324  -16.4305  -49.6077 H         1 UNK         0.0800 
    136 H136        1.1866  -16.6514  -52.5281 H         1 UNK         0.1150 
    137 H137       -0.7527  -20.3825  -53.3220 H         1 UNK         0.1150 
    138 H138        1.0984  -19.6858  -49.5152 H         1 UNK         0.1150 
    139 H139       -1.3738  -21.5101  -50.5734 H         1 UNK         0.0800 
    140 H140       -0.4023  -22.2332  -51.8256 H         1 UNK         0.0800 
    141 H141       -1.1590  -21.9148  -48.2331 H         1 UNK         0.0800 
    142 H142        0.2489  -20.9497  -47.9243 H         1 UNK         0.0800 
    143 H143        1.2760  -23.4124  -47.2744 H         1 UNK         0.0600 
    144 H144        0.4273  -21.2052  -45.7140 H         1 UNK         0.3000 
    145 H145        1.9963  -22.3997  -42.6928 H         1 UNK         0.0600 
    146 H146        2.9946  -20.1490  -42.9746 H         1 UNK         0.0600 
    147 H147        3.6857  -21.2799  -44.1290 H         1 UNK         0.0600 
    148 H148        2.4922  -20.1038  -44.6613 H         1 UNK         0.0600 
    149 H149        0.4039  -20.0755  -43.2890 H         1 UNK         0.3000 
    150 H150       -2.7052  -21.4765  -42.2261 H         1 UNK         0.0600 
    151 H151       -1.6256  -20.7532  -40.0960 H         1 UNK         0.0600 
    152 H152       -2.7028  -19.5132  -40.7187 H         1 UNK         0.0600 
    153 H153       -0.9585  -19.3379  -40.8987 H         1 UNK         0.0600 
    154 H154       -2.0725  -18.8565  -43.0978 H         1 UNK         0.3000 
    155 H155       -2.3105  -19.5098  -46.6275 H         1 UNK         0.0600 
    156 H156       -4.0703  -17.9166  -44.6926 H         1 UNK         0.0600 
    157 H157       -3.9924  -17.7082  -46.4398 H         1 UNK         0.0600 
    158 H158       -4.6438  -19.1923  -45.7597 H         1 UNK         0.0600 
    159 H159       -1.7831  -17.0959  -45.2259 H         1 UNK         0.3000 
    160 H160        1.8053  -17.4935  -45.1128 H         1 UNK         0.0600 
    161 H161        1.5895  -15.2442  -46.1418 H         1 UNK         0.0600 
    162 H162       -0.0836  -15.5807  -46.5864 H         1 UNK         0.0600 
    163 H163        1.2278  -16.5077  -47.3063 H         1 UNK         0.0600 
    164 H164        0.1411  -15.4334  -44.0953 H         1 UNK         0.3000 
    165 H165       -0.4337  -16.8201  -40.8503 H         1 UNK         0.0600 
    166 H166        0.5318  -14.5767  -40.3037 H         1 UNK         0.0600 
    167 H167        1.7834  -15.7226  -40.7595 H         1 UNK         0.0600 
    168 H168        1.2662  -14.4955  -41.9058 H         1 UNK         0.0600 
    169 H169       -1.2252  -14.4021  -42.2154 H         1 UNK         0.3000 
    170 H170       -4.4036  -15.6086  -43.3164 H         1 UNK         0.0600 
    171 H171       -3.6035  -13.6490  -41.0968 H         1 UNK         0.0600 
    172 H172       -5.1500  -13.6879  -41.9438 H         1 UNK         0.0600 
    173 H173       -4.6847  -15.0236  -40.9028 H         1 UNK         0.0600 
    174 H174       -3.1512  -13.0398  -43.4622 H         1 UNK         0.3000 
    175 H175       -1.5370  -13.5262  -46.6049 H         1 UNK         0.0600 
    176 H176       -2.9704  -11.6274  -47.2408 H         1 UNK         0.0600 
    177 H177       -4.0200  -11.9004  -45.8486 H         1 UNK         0.0600 
    178 H178       -3.9390  -13.0883  -47.1452 H         1 UNK         0.0600 
    179 H179       -1.6771  -11.1670  -45.1670 H         1 UNK         0.3000 
    180 H180        0.1658  -10.3215  -44.2435 H         1 UNK         0.0600 
    181 H181        0.7688  -12.1206  -41.8256 H         1 UNK         0.0600 
    182 H182       -0.6251  -11.0602  -41.9905 H         1 UNK         0.0600 
    183 H183        0.9892  -10.3740  -41.8916 H         1 UNK         0.0600 
    184 H184        2.4786  -12.0289  -43.5773 H         1 UNK         0.3000 
    185 H185        4.3863  -11.1950  -46.1734 H         1 UNK         0.0600 
    186 H186        3.6958  -13.6065  -44.3780 H         1 UNK         0.0600 
    187 H187        5.2714  -13.2691  -45.0818 H         1 UNK         0.0600 
    188 H188        4.6139  -12.1830  -43.8736 H         1 UNK         0.0600 
    189 H189        2.3894  -13.1553  -46.9799 H         1 UNK         0.3000 
    190 H190       -1.3617  -23.2052  -45.0591 H         1 UNK         0.3000 
    191 H191       -3.0670  -25.2229  -45.9788 H         1 UNK         0.0600 
    192 H192       -3.5600  -23.7045  -44.0608 H         1 UNK         0.0600 
    193 H193       -3.7849  -25.3883  -43.6159 H         1 UNK         0.0600 
    194 H194       -2.3452  -24.5325  -43.0846 H         1 UNK         0.0600 
    195 H195        0.1593  -25.5764  -44.6439 H         1 UNK         0.3000 
    196 H196        0.0693  -28.3677  -43.9932 H         1 UNK         0.0600 
    197 H197        2.5491  -28.1658  -44.0771 H         1 UNK         0.0600 
    198 H198        1.8522  -26.8194  -43.1885 H         1 UNK         0.0600 
    199 H199        2.4171  -26.5871  -44.8426 H         1 UNK         0.0600 
    200 H200        0.1963  -26.6537  -47.0501 H         1 UNK         0.3000 
    201 H201        0.8189  -29.1272  -48.5930 H         1 UNK         0.0600 
    202 H202        2.1868  -27.0735  -49.0848 H         1 UNK         0.0600 
    203 H203        0.7114  -26.1923  -49.4781 H         1 UNK         0.0600 
    204 H204        1.2104  -27.5634  -50.4587 H         1 UNK         0.0600 
    205 H205       -1.7978  -27.8998  -47.1609 H         1 UNK         0.3000 
    206 H206       -3.9788  -27.8698  -47.3820 H         1 UNK         0.0600 
    207 H207       -3.6662  -30.2610  -48.0574 H         1 UNK         0.0600 
    208 H208       -5.0971  -29.5489  -48.7826 H         1 UNK         0.0600 
    209 H209       -3.6507  -29.7791  -49.7537 H         1 UNK         0.0600 
    210 H210       -2.5764  -25.7209  -48.5696 H         1 UNK         0.3000 
    211 H211       -4.5223  -24.7542  -50.6180 H         1 UNK         0.0600 
    212 H212       -1.4862  -24.3168  -50.4688 H         1 UNK         0.0600 
    213 H213       -2.5630  -23.5462  -51.6327 H         1 UNK         0.0600 
    214 H214       -2.3208  -25.2810  -51.6785 H         1 UNK         0.0600 
    215 H215       -4.0597  -22.1509  -50.6938 H         1 UNK         0.3000 
    216 H216       -3.5115  -21.0015  -48.0867 H         1 UNK         0.0600 
    217 H217       -5.7467  -19.7940  -48.0404 H         1 UNK         0.0600 
    218 H218       -5.8978  -21.5216  -47.7574 H         1 UNK         0.0600 
    219 H219       -6.3149  -20.8484  -49.3302 H         1 UNK         0.0600 
    220 H220       -2.9609  -18.8324  -48.2738 H         1 UNK         0.3000 
    221 H221       -1.9204  -17.9341  -50.7609 H         1 UNK         0.0600 
    222 H222       -2.3860  -16.4489  -48.1117 H         1 UNK         0.0600 
    223 H223       -0.9334  -17.3471  -48.5511 H         1 UNK         0.0600 
    224 H224       -1.3649  -15.8878  -49.4296 H         1 UNK         0.0600 
    225 H225       -2.5698  -16.3126  -52.1041 H         1 UNK         0.3000 
    226 H226       -3.8048  -15.0453  -53.3768 H         1 UNK         0.0600 
    227 H227       -4.4114  -13.6461  -51.4050 H         1 UNK         0.0600 
    228 H228       -5.7060  -13.7189  -52.5907 H         1 UNK         0.0600 
    229 H229       -5.8267  -14.6564  -51.1125 H         1 UNK         0.0600 
    230 H230       -5.7916  -17.3711  -51.5583 H         1 UNK         0.3000 
    231 H231       -7.8225  -17.7443  -53.5127 H         1 UNK         0.0600 
    232 H232       -6.8939  -19.5589  -51.2269 H         1 UNK         0.0600 
    233 H233       -8.4074  -19.7354  -52.1076 H         1 UNK         0.0600 
    234 H234       -8.1283  -18.3056  -51.1244 H         1 UNK         0.0600 
    235 H235       -4.8843  -19.7312  -52.7916 H         1 UNK         0.3000 
    236 H236       -5.4494  -21.5992  -54.9496 H         1 UNK         0.0600 
    237 H237       -4.3930  -22.3050  -52.8175 H         1 UNK         0.0600 
    238 H238       -3.3464  -22.6603  -54.1814 H         1 UNK         0.0600 
    239 H239       -2.9942  -21.2804  -53.1503 H         1 UNK         0.0600 
    240 H240       -4.0602  -18.5015  -54.9542 H         1 UNK         0.3000 
    241 H241       -1.9292  -18.9735  -56.8327 H         1 UNK         0.0600 
    242 H242       -5.2945  -18.7894  -57.4969 H         1 UNK         0.3800 
    243 H243       -5.1334  -18.3323  -59.1739 H         1 UNK         0.3800 
    244 H244       -1.4596  -16.6208  -56.7252 H         1 UNK         0.0800 
    245 H245       -3.0673  -16.2362  -56.1681 H         1 UNK         0.0800 
    246 H246        0.6036  -17.3587  -54.8806 H         1 UNK         0.0800 
    247 H247       -0.3022  -18.8344  -55.1376 H         1 UNK         0.0800 
@<TRIPOS>BOND
     1    1    2 1    
     2    1  127 1    
     3    1  128 1    
     4    1  129 1    
     5    2    3 2    
     6    2    4 am   BACKBONE|DICT|INTERRES
     7    4    5 1    
     8    4  130 1    
     9    5    6 1    
    10    5   65 1    
    11    5  131 1    
    12    6    7 1    
    13    6  132 1    
    14    6  133 1    
    15    7    8 1    
    16    8    9 1    
    17    8  134 1    
    18    8  135 1    
    19    9   10 ar   
    20    9   14 ar   
    21   10   11 ar   
    22   10  136 1    
    23   11   12 ar   
    24   11  126 1    
    25   12   13 ar   
    26   12  137 1    
    27   13   14 ar   
    28   13   15 1    
    29   14  138 1    
    30   15   16 1    
    31   15  139 1    
    32   15  140 1    
    33   16   17 1    
    34   17   18 1    
    35   17  141 1    
    36   17  142 1    
    37   18   19 1    
    38   18   67 1    
    39   18  143 1    
    40   19   20 am   BACKBONE|DICT|INTERRES
    41   19  144 1    
    42   20   21 2    
    43   20   22 1    
    44   22   23 1    
    45   22   24 1    
    46   22  145 1    
    47   23  146 1    
    48   23  147 1    
    49   23  148 1    
    50   24   25 am   BACKBONE|DICT|INTERRES
    51   24  149 1    
    52   25   26 2    
    53   25   27 1    
    54   27   28 1    
    55   27   29 1    
    56   27  150 1    
    57   28  151 1    
    58   28  152 1    
    59   28  153 1    
    60   29   30 am   BACKBONE|DICT|INTERRES
    61   29  154 1    
    62   30   31 2    
    63   30   32 1    
    64   32   33 1    
    65   32   34 1    
    66   32  155 1    
    67   33  156 1    
    68   33  157 1    
    69   33  158 1    
    70   34   35 am   BACKBONE|DICT|INTERRES
    71   34  159 1    
    72   35   36 2    
    73   35   37 1    
    74   37   38 1    
    75   37   39 1    
    76   37  160 1    
    77   38  161 1    
    78   38  162 1    
    79   38  163 1    
    80   39   40 am   BACKBONE|DICT|INTERRES
    81   39  164 1    
    82   40   41 2    
    83   40   42 1    
    84   42   43 1    
    85   42   44 1    
    86   42  165 1    
    87   43  166 1    
    88   43  167 1    
    89   43  168 1    
    90   44   45 am   BACKBONE|DICT|INTERRES
    91   44  169 1    
    92   45   46 2    
    93   45   47 1    
    94   47   48 1    
    95   47   49 1    
    96   47  170 1    
    97   48  171 1    
    98   48  172 1    
    99   48  173 1    
   100   49   50 am   BACKBONE|DICT|INTERRES
   101   49  174 1    
   102   50   51 2    
   103   50   52 1    
   104   52   53 1    
   105   52   54 1    
   106   52  175 1    
   107   53  176 1    
   108   53  177 1    
   109   53  178 1    
   110   54   55 am   BACKBONE|DICT|INTERRES
   111   54  179 1    
   112   55   56 2    
   113   55   57 1    
   114   57   58 1    
   115   57   59 1    
   116   57  180 1    
   117   58  181 1    
   118   58  182 1    
   119   58  183 1    
   120   59   60 am   BACKBONE|DICT|INTERRES
   121   59  184 1    
   122   60   61 2    
   123   60   62 1    
   124   62   63 1    
   125   62   64 1    
   126   62  185 1    
   127   63  186 1    
   128   63  187 1    
   129   63  188 1    
   130   64   65 am   BACKBONE|DICT|INTERRES
   131   64  189 1    
   132   65   66 2    
   133   67   68 2    
   134   67   69 am   BACKBONE|DICT|INTERRES
   135   69   70 1    
   136   69  190 1    
   137   70   71 1    
   138   70   72 1    
   139   70  191 1    
   140   71  192 1    
   141   71  193 1    
   142   71  194 1    
   143   72   73 2    
   144   72   74 am   BACKBONE|DICT|INTERRES
   145   74   75 1    
   146   74  195 1    
   147   75   76 1    
   148   75   77 1    
   149   75  196 1    
   150   76  197 1    
   151   76  198 1    
   152   76  199 1    
   153   77   78 2    
   154   77   79 am   BACKBONE|DICT|INTERRES
   155   79   80 1    
   156   79  200 1    
   157   80   81 1    
   158   80   82 1    
   159   80  201 1    
   160   81  202 1    
   161   81  203 1    
   162   81  204 1    
   163   82   83 2    
   164   82   84 am   BACKBONE|DICT|INTERRES
   165   84   85 1    
   166   84  205 1    
   167   85   86 1    
   168   85   87 1    
   169   85  206 1    
   170   86  207 1    
   171   86  208 1    
   172   86  209 1    
   173   87   88 2    
   174   87   89 am   BACKBONE|DICT|INTERRES
   175   89   90 1    
   176   89  210 1    
   177   90   91 1    
   178   90   92 1    
   179   90  211 1    
   180   91  212 1    
   181   91  213 1    
   182   91  214 1    
   183   92   93 2    
   184   92   94 am   BACKBONE|DICT|INTERRES
   185   94   95 1    
   186   94  215 1    
   187   95   96 1    
   188   95   97 1    
   189   95  216 1    
   190   96  217 1    
   191   96  218 1    
   192   96  219 1    
   193   97   98 2    
   194   97   99 am   BACKBONE|DICT|INTERRES
   195   99  100 1    
   196   99  220 1    
   197  100  101 1    
   198  100  102 1    
   199  100  221 1    
   200  101  222 1    
   201  101  223 1    
   202  101  224 1    
   203  102  103 2    
   204  102  104 am   BACKBONE|DICT|INTERRES
   205  104  105 1    
   206  104  225 1    
   207  105  106 1    
   208  105  107 1    
   209  105  226 1    
   210  106  227 1    
   211  106  228 1    
   212  106  229 1    
   213  107  108 2    
   214  107  109 am   BACKBONE|DICT|INTERRES
   215  109  110 1    
   216  109  230 1    
   217  110  111 1    
   218  110  112 1    
   219  110  231 1    
   220  111  232 1    
   221  111  233 1    
   222  111  234 1    
   223  112  113 2    
   224  112  114 am   BACKBONE|DICT|INTERRES
   225  114  115 1    
   226  114  235 1    
   227  115  116 1    
   228  115  117 1    
   229  115  236 1    
   230  116  237 1    
   231  116  238 1    
   232  116  239 1    
   233  117  118 2    
   234  117  119 am   BACKBONE|DICT|INTERRES
   235  119  120 1    
   236  119  240 1    
   237  120  121 1    
   238  120  124 1    
   239  120  241 1    
   240  121  122 am   BACKBONE|DICT|INTERRES
   241  121  123 2    
   242  122  242 1    
   243  122  243 1    
   244  124  125 1    
   245  124  244 1    
   246  124  245 1    
   247  125  126 1    
   248  126  246 1    
   249  126  247 1    
@<TRIPOS>SUBSTRUCTURE
     1 UNK         1 GROUP             0       ****    0 ROOT    
