@<TRIPOS>MOLECULE
3R540
247   249    1
SMALL
USER_CHARGES


@<TRIPOS>ATOM
      1 CA          0.1182  -17.1643  -48.3934 C.3       0 UNK        -0.1800 
      2 C           0.0176  -15.9956  -47.4262 C.2       0 UNK         0.5000 
      3 O           1.0090  -15.6496  -46.7831 O.2       0 UNK        -0.5000 
      4 N          -1.1721  -15.3992  -47.3066 N.am      1 UNK        -0.5000 
      5 CA         -1.4276  -14.2282  -46.4675 C.3       1 UNK         0.1400 
      6 C6         -2.7055  -14.3577  -45.6034 C.3       23 UNK        -0.0398 
      7 S7         -2.7423  -15.8954  -44.6146 S.3       23 UNK        -0.2404 
      8 C8         -4.1793  -16.7618  -45.3247 C.3       23 UNK        -0.0205 
      9 C9         -3.9734  -17.1363  -46.7861 C.ar      23 UNK        -0.0193 
     10 C10        -4.5225  -16.3484  -47.8037 C.ar      23 UNK        -0.1150 
     11 C11        -4.3442  -16.6830  -49.1490 C.ar      23 UNK        -0.0193 
     12 C12        -3.6355  -17.8475  -49.4612 C.ar      23 UNK        -0.1150 
     13 C13        -3.0859  -18.6490  -48.4600 C.ar      23 UNK        -0.0193 
     14 C14        -3.2457  -18.2804  -47.1220 C.ar      23 UNK        -0.1150 
     15 C15        -2.3136  -19.9010  -48.8424 C.3       23 UNK        -0.0205 
     16 S16        -3.2733  -21.4087  -48.4995 S.3       23 UNK        -0.2404 
     17 C17        -2.5545  -21.8967  -46.8977 C.3       23 UNK        -0.0398 
     18 CA         -1.5655  -23.0817  -47.0558 C.3       11 UNK         0.1400 
     19 N          -0.2910  -22.8427  -46.3746 N.am      11 UNK        -0.5000 
     20 C           0.7867  -23.6353  -46.4669 C.2       10 UNK         0.5000 
     21 O           0.8519  -24.6215  -47.1975 O.2       10 UNK        -0.5000 
     22 CA          1.9669  -23.3041  -45.5393 C.3       10 UNK         0.1400 
     23 CB          2.8824  -22.2518  -46.1799 C.3       10 UNK        -0.1800 
     24 N           1.5052  -22.8431  -44.2286 N.am      10 UNK        -0.5000 
     25 C           0.8918  -23.6329  -43.3340 C.2       9 UNK         0.5000 
     26 O           0.7197  -24.8409  -43.4973 O.2       9 UNK        -0.5000 
     27 CA          0.3314  -22.9508  -42.0723 C.3       9 UNK         0.1400 
     28 CB          1.4174  -22.8337  -40.9930 C.3       9 UNK        -0.1800 
     29 N          -0.2265  -21.6249  -42.3461 N.am      9 UNK        -0.5000 
     30 C          -1.3120  -21.3927  -43.0991 C.2       8 UNK         0.5000 
     31 O          -1.9835  -22.2821  -43.6218 O.2       8 UNK        -0.5000 
     32 CA         -1.6688  -19.9166  -43.3594 C.3       8 UNK         0.1400 
     33 CB         -2.5772  -19.3686  -42.2503 C.3       8 UNK        -0.1800 
     34 N          -0.4854  -19.0630  -43.4830 N.am      8 UNK        -0.5000 
     35 C           0.4368  -19.1589  -44.4486 C.2       7 UNK         0.5000 
     36 O           0.3541  -19.9670  -45.3760 O.2       7 UNK        -0.5000 
     37 CA          1.6599  -18.2228  -44.3245 C.3       7 UNK         0.1400 
     38 CB          2.6355  -18.3433  -45.5078 C.3       7 UNK        -0.1800 
     39 N           1.2881  -16.8157  -44.1557 N.am      7 UNK        -0.5000 
     40 C           0.8880  -16.2536  -43.0071 C.2       6 UNK         0.5000 
     41 O           0.7325  -16.8951  -41.9661 O.2       6 UNK        -0.5000 
     42 CA          0.6513  -14.7339  -43.0232 C.3       6 UNK         0.1400 
     43 CB          0.5052  -14.1281  -41.6127 C.3       6 UNK        -0.1800 
     44 N           1.7303  -14.0645  -43.7502 N.am      6 UNK        -0.5000 
     45 C           1.6168  -12.8835  -44.3639 C.2       5 UNK         0.5000 
     46 O           0.5689  -12.2349  -44.4163 O.2       5 UNK        -0.5000 
     47 CA          2.8713  -12.3407  -45.0585 C.3       5 UNK         0.1400 
     48 CB          2.9959  -12.8997  -46.4865 C.3       5 UNK        -0.1800 
     49 N           2.7879  -10.8824  -45.0954 N.am      5 UNK        -0.5000 
     50 C           3.8365  -10.0512  -45.1283 C.2       4 UNK         0.5000 
     51 O           5.0038  -10.4403  -45.1963 O.2       4 UNK        -0.5000 
     52 CA          3.5314   -8.5415  -45.0791 C.3       4 UNK         0.1400 
     53 CB          4.6679   -7.6759  -45.6572 C.3       4 UNK        -0.1800 
     54 N           2.2819   -8.2340  -45.7745 N.am      4 UNK        -0.5000 
     55 C           1.3906   -7.3095  -45.3939 C.2       3 UNK         0.5000 
     56 O           1.5221   -6.6051  -44.3920 O.2       3 UNK        -0.5000 
     57 CA          0.1390   -7.1330  -46.2804 C.3       3 UNK         0.1400 
     58 CB          0.3026   -5.9127  -47.1999 C.3       3 UNK        -0.1800 
     59 N          -0.1719   -8.3071  -47.1024 N.am      3 UNK        -0.5000 
     60 C          -0.6089   -9.4774  -46.6200 C.2       2 UNK         0.5000 
     61 O          -0.8358   -9.6705  -45.4239 O.2       2 UNK        -0.5000 
     62 CA         -0.8062  -10.6164  -47.6356 C.3       2 UNK         0.1400 
     63 CB          0.3285  -10.6850  -48.6808 C.3       2 UNK        -0.1800 
     64 N          -0.8953  -11.8865  -46.9211 N.am      2 UNK        -0.5000 
     65 C          -1.4964  -12.9894  -47.3744 C.2       1 UNK         0.5000 
     66 O          -2.0955  -13.0532  -48.4512 O.2       1 UNK        -0.5000 
     67 C          -2.2070  -24.4117  -46.6159 C.2       11 UNK         0.5000 
     68 O          -2.6220  -25.1966  -47.4677 O.2       11 UNK        -0.5000 
     69 N          -2.2320  -24.6583  -45.2984 N.am      12 UNK        -0.5000 
     70 CA         -2.7108  -25.9010  -44.6935 C.3       12 UNK         0.1400 
     71 CB         -2.7474  -25.7522  -43.1653 C.3       12 UNK        -0.1800 
     72 C          -1.8758  -27.1245  -45.1144 C.2       12 UNK         0.5000 
     73 O          -2.4516  -28.1507  -45.4766 O.2       12 UNK        -0.5000 
     74 N          -0.5422  -26.9797  -45.1186 N.am      13 UNK        -0.5000 
     75 CA          0.4050  -27.9963  -45.5887 C.3       13 UNK         0.1400 
     76 CB          1.8388  -27.5479  -45.2695 C.3       13 UNK        -0.1800 
     77 C           0.2544  -28.3184  -47.0896 C.2       13 UNK         0.5000 
     78 O           0.3933  -29.4775  -47.4808 O.2       13 UNK        -0.5000 
     79 N          -0.0712  -27.2970  -47.8926 N.am      14 UNK        -0.5000 
     80 CA         -0.3858  -27.3994  -49.3187 C.3       14 UNK         0.1400 
     81 CB         -0.1570  -26.0260  -49.9754 C.3       14 UNK        -0.1800 
     82 C          -1.8177  -27.9011  -49.6038 C.2       14 UNK         0.5000 
     83 O          -2.1906  -27.9886  -50.7733 O.2       14 UNK        -0.5000 
     84 N          -2.6117  -28.1827  -48.5583 N.am      15 UNK        -0.5000 
     85 CA         -4.0166  -28.6075  -48.6041 C.3       15 UNK         0.1400 
     86 CB         -4.1377  -30.0267  -49.1970 C.3       15 UNK        -0.1800 
     87 C          -4.9295  -27.5773  -49.3049 C.2       15 UNK         0.5000 
     88 O          -5.8486  -27.9524  -50.0346 O.2       15 UNK        -0.5000 
     89 N          -4.6297  -26.2907  -49.0777 N.am      16 UNK        -0.5000 
     90 CA         -5.2669  -25.0938  -49.6298 C.3       16 UNK         0.1400 
     91 CB         -6.7569  -25.0166  -49.2392 C.3       16 UNK        -0.1800 
     92 C          -5.0400  -24.8834  -51.1412 C.2       16 UNK         0.5000 
     93 O          -5.6689  -23.9964  -51.7166 O.2       16 UNK        -0.5000 
     94 N          -4.1215  -25.6363  -51.7687 N.am      17 UNK        -0.5000 
     95 CA         -3.7675  -25.4776  -53.1862 C.3       17 UNK         0.1400 
     96 CB         -2.8623  -26.6365  -53.6264 C.3       17 UNK        -0.1800 
     97 C          -3.0945  -24.1244  -53.4925 C.2       17 UNK         0.5000 
     98 O          -3.2480  -23.5965  -54.5945 O.2       17 UNK        -0.5000 
     99 N          -2.3960  -23.5681  -52.4932 N.am      18 UNK        -0.5000 
    100 CA        -1.7478  -22.2582  -52.5434 C.3       18 UNK         0.1400 
    101 CB        -0.7430  -22.1568  -51.3856 C.3       18 UNK        -0.1800 
    102 C         -2.7332  -21.0706  -52.5326 C.2       18 UNK         0.5000 
    103 O         -2.3176  -19.9537  -52.8448 O.2       18 UNK        -0.5000 
    104 N         -4.0166  -21.3098  -52.2151 N.am      19 UNK        -0.5000 
    105 CA        -5.0832  -20.2998  -52.2057 C.3       19 UNK         0.1400 
    106 CB        -6.3412  -20.8814  -51.5458 C.3       19 UNK        -0.1800 
    107 C         -5.4120  -19.7203  -53.5964 C.2       19 UNK         0.5000 
    108 O         -6.0461  -18.6690  -53.6811 O.2       19 UNK        -0.5000 
    109 N         -4.9619  -20.3977  -54.6606 N.am      20 UNK        -0.5000 
    110 CA        -5.0229  -19.9168  -56.0387 C.3       20 UNK         0.1400 
    111 CB        -4.8316  -21.1156  -56.9809 C.3       20 UNK        -0.1800 
    112 C         -3.9820  -18.8190  -56.3477 C.2       20 UNK         0.5000 
    113 O         -4.1452  -18.1150  -57.3455 O.2       20 UNK        -0.5000 
    114 N         -2.9314  -18.7039  -55.5215 N.am      21 UNK        -0.5000 
    115 CA        -1.8073  -17.7893  -55.7243 C.3       21 UNK         0.1400 
    116 CB        -0.5135  -18.6108  -55.8521 C.3       21 UNK        -0.1800 
    117 C         -1.6819  -16.7634  -54.5870 C.2       21 UNK         0.5000 
    118 O         -1.4986  -15.5782  -54.8668 O.2       21 UNK        -0.5000 
    119 N         -1.7627  -17.2329  -53.3341 N.am      22 UNK        -0.5000 
    120 CA        -1.5698  -16.4480  -52.0984 C.3       22 UNK         0.1400 
    121 C         -0.1247  -15.8915  -51.9012 C.2       22 UNK         0.5000 
    122 N          0.8909  -16.4572  -52.5426 N.am      22 UNK        -0.7600 
    123 O          0.0922  -14.9573  -51.1354 O.2       22 UNK        -0.5000 
    124 C124       -2.6654  -15.3662  -51.8630 C.3       23 UNK        -0.0398 
    125 S125       -4.3684  -16.0270  -51.9316 S.3       23 UNK        -0.2404 
    126 C126       -4.9609  -15.7775  -50.2181 C.3       23 UNK        -0.0205 
    127 H127        0.1521  -18.1034  -47.8419 H         1 UNK         0.0600 
    128 H128        1.0256  -17.0822  -48.9915 H         1 UNK         0.0600 
    129 H129       -0.7312  -17.1919  -49.0733 H         1 UNK         0.0600 
    130 H130       -1.9546  -15.7090  -47.8655 H         1 UNK         0.3000 
    131 H131       -0.5947  -14.0935  -45.7817 H         1 UNK         0.0600 
    132 H132       -3.6032  -14.2870  -46.2164 H         1 UNK         0.0800 
    133 H133       -2.7621  -13.5198  -44.9064 H         1 UNK         0.0800 
    134 H134       -5.0690  -16.1409  -45.2095 H         1 UNK         0.0800 
    135 H135       -4.3647  -17.6656  -44.7425 H         1 UNK         0.0800 
    136 H136       -5.0944  -15.4672  -47.5490 H         1 UNK         0.1150 
    137 H137       -3.4994  -18.1399  -50.4884 H         1 UNK         0.1150 
    138 H138       -2.8135  -18.8850  -46.3399 H         1 UNK         0.1150 
    139 H139       -2.0715  -19.8792  -49.9048 H         1 UNK         0.0800 
    140 H140       -1.3541  -19.9258  -48.3248 H         1 UNK         0.0800 
    141 H141       -3.3709  -22.1195  -46.2075 H         1 UNK         0.0800 
    142 H142       -2.0511  -21.0374  -46.4567 H         1 UNK         0.0800 
    143 H143       -1.3098  -23.1961  -48.1112 H         1 UNK         0.0600 
    144 H144       -0.2344  -22.0254  -45.7795 H         1 UNK         0.3000 
    145 H145        2.5502  -24.2153  -45.3922 H         1 UNK         0.0600 
    146 H146        3.6895  -21.9615  -45.5072 H         1 UNK         0.0600 
    147 H147        3.3409  -22.6439  -47.0885 H         1 UNK         0.0600 
    148 H148        2.3316  -21.3546  -46.4601 H         1 UNK         0.0600 
    149 H149        1.5759  -21.8546  -44.0411 H         1 UNK         0.3000 
    150 H150       -0.4710  -23.5811  -41.6832 H         1 UNK         0.0600 
    151 H151        1.8382  -23.8118  -40.7557 H         1 UNK         0.0600 
    152 H152        1.0115  -22.4233  -40.0682 H         1 UNK         0.0600 
    153 H153        2.2389  -22.1919  -41.3137 H         1 UNK         0.0600 
    154 H154        0.2624  -20.8341  -41.9531 H         1 UNK         0.3000 
    155 H155       -2.2185  -19.8700  -44.3002 H         1 UNK         0.0600 
    156 H156       -2.0741  -19.3630  -41.2826 H         1 UNK         0.0600 
    157 H157       -3.4794  -19.9734  -42.1499 H         1 UNK         0.0600 
    158 H158       -2.8932  -18.3484  -42.4695 H         1 UNK         0.0600 
    159 H159       -0.3331  -18.3700  -42.7569 H         1 UNK         0.3000 
    160 H160        2.2041  -18.5399  -43.4325 H         1 UNK         0.0600 
    161 H161        2.1463  -18.1491  -46.4615 H         1 UNK         0.0600 
    162 H162        3.0674  -19.3419  -45.5557 H         1 UNK         0.0600 
    163 H163        3.4644  -17.6423  -45.4097 H         1 UNK         0.0600 
    164 H164        1.3115  -16.2495  -45.0013 H         1 UNK         0.3000 
    165 H165       -0.2894  -14.5786  -43.5512 H         1 UNK         0.0600 
    166 H166        0.2843  -13.0617  -41.6591 H         1 UNK         0.0600 
    167 H167       -0.3115  -14.6000  -41.0651 H         1 UNK         0.0600 
    168 H168        1.4155  -14.2568  -41.0262 H         1 UNK         0.0600 
    169 H169        2.6119  -14.5591  -43.7777 H         1 UNK         0.3000 
    170 H170        3.7443  -12.6377  -44.4731 H         1 UNK         0.0600 
    171 H171        3.1537  -13.9784  -46.4674 H         1 UNK         0.0600 
    172 H172        2.0956  -12.7140  -47.0727 H         1 UNK         0.0600 
    173 H173        3.8404  -12.4599  -47.0169 H         1 UNK         0.0600 
    174 H174        1.8535  -10.5126  -44.9663 H         1 UNK         0.3000 
    175 H175        3.4261   -8.2987  -44.0198 H         1 UNK         0.0600 
    176 H176        4.8435   -7.8989  -46.7101 H         1 UNK         0.0600 
    177 H177        4.4365   -6.6139  -45.5738 H         1 UNK         0.0600 
    178 H178        5.6036   -7.8434  -45.1225 H         1 UNK         0.0600 
    179 H179        2.0963   -8.7685  -46.6109 H         1 UNK         0.3000 
    180 H180       -0.7079   -6.9479  -45.6162 H         1 UNK         0.0600 
    181 H181       -0.6033   -5.7291  -47.7779 H         1 UNK         0.0600 
    182 H182        1.1286   -6.0441  -47.9001 H         1 UNK         0.0600 
    183 H183        0.5044   -5.0107  -46.6205 H         1 UNK         0.0600 
    184 H184       -0.0165   -8.2138  -48.0959 H         1 UNK         0.3000 
    185 H185       -1.7530  -10.4290  -48.1461 H         1 UNK         0.0600 
    186 H186        0.2192  -11.5530  -49.3315 H         1 UNK         0.0600 
    187 H187        0.3293   -9.8078  -49.3280 H         1 UNK         0.0600 
    188 H188        1.3085  -10.7482  -48.2070 H         1 UNK         0.0600 
    189 H189       -0.4848  -11.8788  -45.9883 H         1 UNK         0.3000 
    190 H190       -1.9194  -23.9305  -44.6622 H         1 UNK         0.3000 
    191 H191       -3.7332  -26.0630  -45.0413 H         1 UNK         0.0600 
    192 H192       -3.1505  -26.6506  -42.6963 H         1 UNK         0.0600 
    193 H193       -3.3800  -24.9163  -42.8660 H         1 UNK         0.0600 
    194 H194       -1.7540  -25.5838  -42.7500 H         1 UNK         0.0600 
    195 H195       -0.1433  -26.1175  -44.7596 H         1 UNK         0.3000 
    196 H196        0.2058  -28.9149  -45.0330 H         1 UNK         0.0600 
    197 H197        2.0993  -26.6291  -45.7945 H         1 UNK         0.0600 
    198 H198        1.9691  -27.3719  -44.2015 H         1 UNK         0.0600 
    199 H199        2.5608  -28.3102  -45.5647 H         1 UNK         0.0600 
    200 H200       -0.0932  -26.3617  -47.4984 H         1 UNK         0.3000 
    201 H201        0.3020  -28.1125  -49.7772 H         1 UNK         0.0600 
    202 H202       -0.8312  -25.2702  -49.5721 H         1 UNK         0.0600 
    203 H203       -0.3186  -26.0692  -51.0531 H         1 UNK         0.0600 
    204 H204        0.8644  -25.6795  -49.8178 H         1 UNK         0.0600 
    205 H205       -2.2343  -28.0511  -47.6277 H         1 UNK         0.3000 
    206 H206       -4.3539  -28.6539  -47.5678 H         1 UNK         0.0600 
    207 H207       -3.4891  -30.7285  -48.6728 H         1 UNK         0.0600 
    208 H208       -5.1581  -30.4014  -49.1088 H         1 UNK         0.0600 
    209 H209       -3.8718  -30.0493  -50.2543 H         1 UNK         0.0600 
    210 H210       -3.8361  -26.0907  -48.4694 H         1 UNK         0.3000 
    211 H211       -4.7667  -24.2541  -49.1452 H         1 UNK         0.0600 
    212 H212       -7.1787  -24.0449  -49.4988 H         1 UNK         0.0600 
    213 H213       -6.8905  -25.1491  -48.1656 H         1 UNK         0.0600 
    214 H214       -7.3513  -25.7746  -49.7495 H         1 UNK         0.0600 
    215 H215       -3.6425  -26.3677  -51.2569 H         1 UNK         0.3000 
    216 H216       -4.6896  -25.5268  -53.7691 H         1 UNK         0.0600 
    217 H217       -1.9065  -26.6224  -53.1016 H         1 UNK         0.0600 
    218 H218       -2.6496  -26.5808  -54.6947 H         1 UNK         0.0600 
    219 H219       -3.3346  -27.6010  -53.4384 H         1 UNK         0.0600 
    220 H220       -2.3333  -24.0723  -51.6217 H         1 UNK         0.3000 
    221 H221       -1.1883  -22.1923  -53.4789 H         1 UNK         0.0600 
    222 H222        0.0396  -22.9100  -51.4788 H         1 UNK         0.0600 
    223 H223       -1.2248  -22.2992  -50.4197 H         1 UNK         0.0600 
    224 H224       -0.2530  -21.1823  -51.3709 H         1 UNK         0.0600 
    225 H225       -4.3018  -22.2565  -51.9982 H         1 UNK         0.3000 
    226 H226       -4.7472  -19.4685  -51.5909 H         1 UNK         0.0600 
    227 H227       -6.7886  -21.6660  -52.1564 H         1 UNK         0.0600 
    228 H228       -6.1173  -21.3000  -50.5642 H         1 UNK         0.0600 
    229 H229       -7.0976  -20.1086  -51.4044 H         1 UNK         0.0600 
    230 H230       -4.4723  -21.2683  -54.5054 H         1 UNK         0.3000 
    231 H231       -6.0135  -19.4941  -56.2195 H         1 UNK         0.0600 
    232 H232       -3.8587  -21.5881  -56.8375 H         1 UNK         0.0600 
    233 H233       -4.8976  -20.8083  -58.0254 H         1 UNK         0.0600 
    234 H234       -5.5986  -21.8727  -56.8169 H         1 UNK         0.0600 
    235 H235       -2.8939  -19.2856  -54.6930 H         1 UNK         0.3000 
    236 H236       -1.9323  -17.2252  -56.6508 H         1 UNK         0.0600 
    237 H237       -0.5569  -19.2768  -56.7140 H         1 UNK         0.0600 
    238 H238        0.3520  -17.9608  -55.9877 H         1 UNK         0.0600 
    239 H239       -0.3324  -19.2230  -54.9676 H         1 UNK         0.0600 
    240 H240       -1.9196  -18.2279  -53.1906 H         1 UNK         0.3000 
    241 H241       -1.6626  -17.1767  -51.2968 H         1 UNK         0.0600 
    242 H242        1.8224  -16.0981  -52.4055 H         1 UNK         0.3800 
    243 H243        0.7390  -17.2340  -53.1648 H         1 UNK         0.3800 
    244 H244       -2.5791  -14.5719  -52.6051 H         1 UNK         0.0800 
    245 H245       -2.5190  -14.8848  -50.8943 H         1 UNK         0.0800 
    246 H246       -4.8036  -14.7324  -49.9462 H         1 UNK         0.0800 
    247 H247       -6.0398  -15.9368  -50.2106 H         1 UNK         0.0800 
@<TRIPOS>BOND
     1    1    2 1    
     2    1  127 1    
     3    1  128 1    
     4    1  129 1    
     5    2    3 2    
     6    2    4 am   BACKBONE|DICT|INTERRES
     7    4    5 1    
     8    4  130 1    
     9    5    6 1    
    10    5   65 1    
    11    5  131 1    
    12    6    7 1    
    13    6  132 1    
    14    6  133 1    
    15    7    8 1    
    16    8    9 1    
    17    8  134 1    
    18    8  135 1    
    19    9   10 ar   
    20    9   14 ar   
    21   10   11 ar   
    22   10  136 1    
    23   11   12 ar   
    24   11  126 1    
    25   12   13 ar   
    26   12  137 1    
    27   13   14 ar   
    28   13   15 1    
    29   14  138 1    
    30   15   16 1    
    31   15  139 1    
    32   15  140 1    
    33   16   17 1    
    34   17   18 1    
    35   17  141 1    
    36   17  142 1    
    37   18   19 1    
    38   18   67 1    
    39   18  143 1    
    40   19   20 am   BACKBONE|DICT|INTERRES
    41   19  144 1    
    42   20   21 2    
    43   20   22 1    
    44   22   23 1    
    45   22   24 1    
    46   22  145 1    
    47   23  146 1    
    48   23  147 1    
    49   23  148 1    
    50   24   25 am   BACKBONE|DICT|INTERRES
    51   24  149 1    
    52   25   26 2    
    53   25   27 1    
    54   27   28 1    
    55   27   29 1    
    56   27  150 1    
    57   28  151 1    
    58   28  152 1    
    59   28  153 1    
    60   29   30 am   BACKBONE|DICT|INTERRES
    61   29  154 1    
    62   30   31 2    
    63   30   32 1    
    64   32   33 1    
    65   32   34 1    
    66   32  155 1    
    67   33  156 1    
    68   33  157 1    
    69   33  158 1    
    70   34   35 am   BACKBONE|DICT|INTERRES
    71   34  159 1    
    72   35   36 2    
    73   35   37 1    
    74   37   38 1    
    75   37   39 1    
    76   37  160 1    
    77   38  161 1    
    78   38  162 1    
    79   38  163 1    
    80   39   40 am   BACKBONE|DICT|INTERRES
    81   39  164 1    
    82   40   41 2    
    83   40   42 1    
    84   42   43 1    
    85   42   44 1    
    86   42  165 1    
    87   43  166 1    
    88   43  167 1    
    89   43  168 1    
    90   44   45 am   BACKBONE|DICT|INTERRES
    91   44  169 1    
    92   45   46 2    
    93   45   47 1    
    94   47   48 1    
    95   47   49 1    
    96   47  170 1    
    97   48  171 1    
    98   48  172 1    
    99   48  173 1    
   100   49   50 am   BACKBONE|DICT|INTERRES
   101   49  174 1    
   102   50   51 2    
   103   50   52 1    
   104   52   53 1    
   105   52   54 1    
   106   52  175 1    
   107   53  176 1    
   108   53  177 1    
   109   53  178 1    
   110   54   55 am   BACKBONE|DICT|INTERRES
   111   54  179 1    
   112   55   56 2    
   113   55   57 1    
   114   57   58 1    
   115   57   59 1    
   116   57  180 1    
   117   58  181 1    
   118   58  182 1    
   119   58  183 1    
   120   59   60 am   BACKBONE|DICT|INTERRES
   121   59  184 1    
   122   60   61 2    
   123   60   62 1    
   124   62   63 1    
   125   62   64 1    
   126   62  185 1    
   127   63  186 1    
   128   63  187 1    
   129   63  188 1    
   130   64   65 am   BACKBONE|DICT|INTERRES
   131   64  189 1    
   132   65   66 2    
   133   67   68 2    
   134   67   69 am   BACKBONE|DICT|INTERRES
   135   69   70 1    
   136   69  190 1    
   137   70   71 1    
   138   70   72 1    
   139   70  191 1    
   140   71  192 1    
   141   71  193 1    
   142   71  194 1    
   143   72   73 2    
   144   72   74 am   BACKBONE|DICT|INTERRES
   145   74   75 1    
   146   74  195 1    
   147   75   76 1    
   148   75   77 1    
   149   75  196 1    
   150   76  197 1    
   151   76  198 1    
   152   76  199 1    
   153   77   78 2    
   154   77   79 am   BACKBONE|DICT|INTERRES
   155   79   80 1    
   156   79  200 1    
   157   80   81 1    
   158   80   82 1    
   159   80  201 1    
   160   81  202 1    
   161   81  203 1    
   162   81  204 1    
   163   82   83 2    
   164   82   84 am   BACKBONE|DICT|INTERRES
   165   84   85 1    
   166   84  205 1    
   167   85   86 1    
   168   85   87 1    
   169   85  206 1    
   170   86  207 1    
   171   86  208 1    
   172   86  209 1    
   173   87   88 2    
   174   87   89 am   BACKBONE|DICT|INTERRES
   175   89   90 1    
   176   89  210 1    
   177   90   91 1    
   178   90   92 1    
   179   90  211 1    
   180   91  212 1    
   181   91  213 1    
   182   91  214 1    
   183   92   93 2    
   184   92   94 am   BACKBONE|DICT|INTERRES
   185   94   95 1    
   186   94  215 1    
   187   95   96 1    
   188   95   97 1    
   189   95  216 1    
   190   96  217 1    
   191   96  218 1    
   192   96  219 1    
   193   97   98 2    
   194   97   99 am   BACKBONE|DICT|INTERRES
   195   99  100 1    
   196   99  220 1    
   197  100  101 1    
   198  100  102 1    
   199  100  221 1    
   200  101  222 1    
   201  101  223 1    
   202  101  224 1    
   203  102  103 2    
   204  102  104 am   BACKBONE|DICT|INTERRES
   205  104  105 1    
   206  104  225 1    
   207  105  106 1    
   208  105  107 1    
   209  105  226 1    
   210  106  227 1    
   211  106  228 1    
   212  106  229 1    
   213  107  108 2    
   214  107  109 am   BACKBONE|DICT|INTERRES
   215  109  110 1    
   216  109  230 1    
   217  110  111 1    
   218  110  112 1    
   219  110  231 1    
   220  111  232 1    
   221  111  233 1    
   222  111  234 1    
   223  112  113 2    
   224  112  114 am   BACKBONE|DICT|INTERRES
   225  114  115 1    
   226  114  235 1    
   227  115  116 1    
   228  115  117 1    
   229  115  236 1    
   230  116  237 1    
   231  116  238 1    
   232  116  239 1    
   233  117  118 2    
   234  117  119 am   BACKBONE|DICT|INTERRES
   235  119  120 1    
   236  119  240 1    
   237  120  121 1    
   238  120  124 1    
   239  120  241 1    
   240  121  122 am   BACKBONE|DICT|INTERRES
   241  121  123 2    
   242  122  242 1    
   243  122  243 1    
   244  124  125 1    
   245  124  244 1    
   246  124  245 1    
   247  125  126 1    
   248  126  246 1    
   249  126  247 1    
@<TRIPOS>SUBSTRUCTURE
     1 UNK         1 GROUP             0       ****    0 ROOT    
