@<TRIPOS>MOLECULE
3R540
247   249    1
SMALL
USER_CHARGES


@<TRIPOS>ATOM
      1 CA         -5.8376  -15.0030  -44.0927 C.3       0 UNK        -0.1800 
      2 C          -5.2821  -16.2892  -44.7021 C.2       0 UNK         0.5000 
      3 O          -5.8762  -17.3490  -44.5163 O.2       0 UNK        -0.5000 
      4 N          -4.1685  -16.2550  -45.4460 N.am      1 UNK        -0.5000 
      5 CA         -3.2938  -15.1032  -45.7023 C.3       1 UNK         0.1400 
      6 C6         -2.3488  -15.3774  -46.8996 C.3       23 UNK        -0.0398 
      7 S7         -3.2919  -15.5002  -48.4546 S.3       23 UNK        -0.2404 
      8 C8         -1.9610  -15.6088  -49.6910 C.3       23 UNK        -0.0205 
      9 C9         -1.4894  -17.0387  -49.9136 C.ar      23 UNK        -0.0193 
     10 C10        -2.3545  -17.9730  -50.4907 C.ar      23 UNK        -0.1150 
     11 C11        -1.9195  -19.2723  -50.7560 C.ar      23 UNK        -0.0193 
     12 C12        -0.6061  -19.6327  -50.4508 C.ar      23 UNK        -0.1150 
     13 C13         0.2742  -18.7122  -49.8728 C.ar      23 UNK        -0.0193 
     14 C14        -0.1796  -17.4169  -49.5987 C.ar      23 UNK        -0.1150 
     15 C15         1.7323  -19.0786  -49.6055 C.3       23 UNK        -0.0205 
     16 S16         1.9835  -20.7786  -48.9878 S.3       23 UNK        -0.2404 
     17 C17         1.4176  -20.6147  -47.2644 C.3       23 UNK        -0.0398 
     18 CA          0.4608  -21.7355  -46.7876 C.3       11 UNK         0.1400 
     19 N           0.3278  -21.7155  -45.3274 N.am      11 UNK        -0.5000 
     20 C          -0.3652  -22.5899  -44.5842 C.2       10 UNK         0.5000 
     21 O          -0.9490  -23.5708  -45.0425 O.2       10 UNK        -0.5000 
     22 CA         -0.4705  -22.2830  -43.0784 C.3       10 UNK         0.1400 
     23 CB          0.8156  -22.6837  -42.3408 C.3       10 UNK        -0.1800 
     24 N          -0.7689  -20.8745  -42.8162 N.am      10 UNK        -0.5000 
     25 C          -1.8919  -20.2509  -43.2012 C.2       9 UNK         0.5000 
     26 O          -2.8282  -20.8132  -43.7666 O.2       9 UNK        -0.5000 
     27 CA         -1.9527  -18.7327  -42.9706 C.3       9 UNK         0.1400 
     28 CB         -2.3467  -18.4031  -41.5228 C.3       9 UNK        -0.1800 
     29 N          -0.6856  -18.0852  -43.3071 N.am      9 UNK        -0.5000 
     30 C          -0.2034  -17.9852  -44.5531 C.2       8 UNK         0.5000 
     31 O          -0.7837  -18.4194  -45.5477 O.2       8 UNK        -0.5000 
     32 CA          1.1767  -17.3228  -44.7099 C.3       8 UNK         0.1400 
     33 CB          1.0332  -15.7971  -44.7123 C.3       8 UNK        -0.1800 
     34 N           2.1173  -17.7206  -43.6616 N.am      8 UNK        -0.5000 
     35 C           2.5561  -18.9740  -43.4750 C.2       7 UNK         0.5000 
     36 O           2.2575  -19.9168  -44.2052 O.2       7 UNK        -0.5000 
     37 CA          3.4113  -19.2372  -42.2233 C.3       7 UNK         0.1400 
     38 CB          4.8920  -18.9328  -42.4924 C.3       7 UNK        -0.1800 
     39 N           2.9517  -18.4715  -41.0651 N.am      7 UNK        -0.5000 
     40 C           1.7426  -18.5992  -40.4976 C.2       6 UNK         0.5000 
     41 O           0.9117  -19.4334  -40.8572 O.2       6 UNK        -0.5000 
     42 CA          1.3864  -17.6202  -39.3616 C.3       6 UNK         0.1400 
     43 CB          1.4609  -18.3276  -38.0004 C.3       6 UNK        -0.1800 
     44 N           2.2500  -16.4371  -39.3327 N.am      6 UNK        -0.5000 
     45 C           2.2170  -15.4381  -40.2253 C.2       5 UNK         0.5000 
     46 O           1.3780  -15.3649  -41.1264 O.2       5 UNK        -0.5000 
     47 CA          3.3039  -14.3475  -40.0771 C.3       5 UNK         0.1400 
     48 CB          4.6135  -14.8756  -39.4484 C.3       5 UNK        -0.1800 
     49 N           3.6130  -13.6447  -41.3265 N.am      5 UNK        -0.5000 
     50 C           4.0125  -14.1692  -42.4946 C.2       4 UNK         0.5000 
     51 O           4.1222  -15.3788  -42.7058 O.2       4 UNK        -0.5000 
     52 CA          4.3400  -13.1473  -43.6052 C.3       4 UNK         0.1400 
     53 CB          4.7272  -13.7959  -44.9465 C.3       4 UNK        -0.1800 
     54 N           3.2291  -12.2166  -43.8168 N.am      4 UNK        -0.5000 
     55 C           3.0182  -11.0931  -43.1211 C.2       3 UNK         0.5000 
     56 O           3.7719  -10.6978  -42.2310 O.2       3 UNK        -0.5000 
     57 CA          1.7202  -10.3183  -43.4091 C.3       3 UNK         0.1400 
     58 CB          1.7383   -9.6521  -44.7994 C.3       3 UNK        -0.1800 
     59 N           0.5157  -11.1298  -43.1891 N.am      3 UNK        -0.5000 
     60 C           0.0557  -12.1626  -43.9085 C.2       2 UNK         0.5000 
     61 O           0.5854  -12.5627  -44.9479 O.2       2 UNK        -0.5000 
     62 CA         -1.1870  -12.8880  -43.3617 C.3       2 UNK         0.1400 
     63 CB         -2.1300  -11.9833  -42.5417 C.3       2 UNK        -0.1800 
     64 N          -1.9333  -13.4840  -44.4673 N.am      2 UNK        -0.5000 
     65 C          -2.5085  -14.6896  -44.4375 C.2       1 UNK         0.5000 
     66 O          -2.4539  -15.4417  -43.4636 O.2       1 UNK        -0.5000 
     67 C          -0.9131  -21.6684  -47.4877 C.2       11 UNK         0.5000 
     68 O          -1.1841  -22.4777  -48.3780 O.2       11 UNK        -0.5000 
     69 N          -1.7670  -20.7397  -47.0344 N.am      12 UNK        -0.5000 
     70 CA         -3.1349  -20.5644  -47.5132 C.3       12 UNK         0.1400 
     71 CB         -3.7122  -19.2557  -46.9599 C.3       12 UNK        -0.1800 
     72 C          -4.0448  -21.7619  -47.1947 C.2       12 UNK         0.5000 
     73 O          -4.7631  -22.2197  -48.0832 O.2       12 UNK        -0.5000 
     74 N          -3.9752  -22.2703  -45.9562 N.am      13 UNK        -0.5000 
     75 CA         -4.7377  -23.4297  -45.4851 C.3       13 UNK         0.1400 
     76 CB         -4.5496  -23.5881  -43.9688 C.3       13 UNK        -0.1800 
     77 C          -4.3703  -24.7345  -46.2153 C.2       13 UNK         0.5000 
     78 O          -5.2597  -25.5241  -46.5348 O.2       13 UNK        -0.5000 
     79 N          -3.0732  -24.9239  -46.4898 N.am      14 UNK        -0.5000 
     80 CA         -2.5407  -26.0479  -47.2615 C.3       14 UNK         0.1400 
     81 CB         -1.0361  -26.1703  -46.9743 C.3       14 UNK        -0.1800 
     82 C          -2.7808  -25.9183  -48.7791 C.2       14 UNK         0.5000 
     83 O          -2.6223  -26.9086  -49.4938 O.2       14 UNK        -0.5000 
     84 N          -3.1199  -24.7045  -49.2423 N.am      15 UNK        -0.5000 
     85 CA         -3.2465  -24.2799  -50.6413 C.3       15 UNK         0.1400 
     86 CB         -4.4177  -25.0048  -51.3367 C.3       15 UNK        -0.1800 
     87 C          -1.9135  -24.4020  -51.4165 C.2       15 UNK         0.5000 
     88 O          -1.9153  -24.6758  -52.6177 O.2       15 UNK        -0.5000 
     89 N          -0.7944  -24.2247  -50.7000 N.am      16 UNK        -0.5000 
     90 CA          0.5407  -24.6806  -51.0923 C.3       16 UNK         0.1400 
     91 CB          1.4720  -24.6007  -49.8740 C.3       16 UNK        -0.1800 
     92 C           1.1571  -23.9616  -52.3047 C.2       16 UNK         0.5000 
     93 O           1.9919  -24.5554  -52.9888 O.2       16 UNK        -0.5000 
     94 N           0.7403  -22.7154  -52.5641 N.am      17 UNK        -0.5000 
     95 CA          1.1850  -21.9399  -53.7257 C.3       17 UNK         0.1400 
     96 CB          0.9732  -20.4428  -53.4595 C.3       17 UNK        -0.1800 
     97 C           0.4980  -22.3697  -55.0377 C.2       17 UNK         0.5000 
     98 O           1.0278  -22.0765  -56.1098 O.2       17 UNK        -0.5000 
     99 N          -0.6546  -23.0531  -54.9322 N.am      18 UNK        -0.5000 
    100 CA        -1.4588  -23.6220  -56.0222 C.3       18 UNK         0.1400 
    101 CB        -0.7123  -24.8043  -56.6738 C.3       18 UNK        -0.1800 
    102 C         -1.9612  -22.5907  -57.0595 C.2       18 UNK         0.5000 
    103 O         -2.2110  -22.9483  -58.2127 O.2       18 UNK        -0.5000 
    104 N         -2.1079  -21.3296  -56.6336 N.am      19 UNK        -0.5000 
    105 CA        -2.6428  -20.2298  -57.4343 C.3       19 UNK         0.1400 
    106 CB        -2.2412  -18.9049  -56.7640 C.3       19 UNK        -0.1800 
    107 C         -4.1739  -20.3202  -57.5780 C.2       19 UNK         0.5000 
    108 O         -4.8238  -21.0883  -56.8634 O.2       19 UNK        -0.5000 
    109 N         -4.7405  -19.4778  -58.4520 N.am      20 UNK        -0.5000 
    110 CA        -6.1879  -19.3413  -58.6598 C.3       20 UNK         0.1400 
    111 CB        -6.4401  -18.3801  -59.8313 C.3       20 UNK        -0.1800 
    112 C         -6.9527  -18.8751  -57.4023 C.2       20 UNK         0.5000 
    113 O         -8.1182  -19.2335  -57.2319 O.2       20 UNK        -0.5000 
    114 N         -6.2727  -18.1128  -56.5341 N.am      21 UNK        -0.5000 
    115 CA        -6.7636  -17.7065  -55.2165 C.3       21 UNK         0.1400 
    116 CB        -5.9322  -16.5103  -54.7268 C.3       21 UNK        -0.1800 
    117 C         -6.7160  -18.8473  -54.1793 C.2       21 UNK         0.5000 
    118 O         -7.4908  -18.8226  -53.2222 O.2       21 UNK        -0.5000 
    119 N         -5.8067  -19.8101  -54.3755 N.am      22 UNK        -0.5000 
    120 CA        -5.6236  -20.9844  -53.5113 C.3       22 UNK         0.1400 
    121 C         -6.5916  -22.1379  -53.8831 C.2       22 UNK         0.5000 
    122 N         -6.8006  -22.4093  -55.1656 N.am      22 UNK        -0.7600 
    123 O         -7.1531  -22.7876  -53.0063 O.2       22 UNK        -0.5000 
    124 C124       -4.1608  -21.4993  -53.5185 C.3       23 UNK        -0.0398 
    125 S125       -2.9292  -20.2045  -53.1571 S.3       23 UNK        -0.2404 
    126 C126       -2.8723  -20.2963  -51.3462 C.3       23 UNK        -0.0205 
    127 H127       -5.2069  -14.6589  -43.2733 H         1 UNK         0.0600 
    128 H128       -6.8368  -15.1744  -43.6916 H         1 UNK         0.0600 
    129 H129       -5.9163  -14.2109  -44.8366 H         1 UNK         0.0600 
    130 H130       -3.8348  -17.1245  -45.8325 H         1 UNK         0.3000 
    131 H131       -3.9239  -14.2529  -45.9689 H         1 UNK         0.0600 
    132 H132       -1.7788  -16.2952  -46.7531 H         1 UNK         0.0800 
    133 H133       -1.6190  -14.5744  -47.0168 H         1 UNK         0.0800 
    134 H134       -2.3371  -15.2184  -50.6377 H         1 UNK         0.0800 
    135 H135       -1.1326  -14.9591  -49.4050 H         1 UNK         0.0800 
    136 H136       -3.3672  -17.6857  -50.7369 H         1 UNK         0.1150 
    137 H137       -0.2687  -20.6350  -50.6666 H         1 UNK         0.1150 
    138 H138        0.4969  -16.6921  -49.1682 H         1 UNK         0.1150 
    139 H139        2.2860  -18.9666  -50.5380 H         1 UNK         0.0800 
    140 H140        2.1818  -18.3785  -48.8995 H         1 UNK         0.0800 
    141 H141        0.9665  -19.6339  -47.1124 H         1 UNK         0.0800 
    142 H142        2.3221  -20.6248  -46.6566 H         1 UNK         0.0800 
    143 H143        0.9093  -22.6971  -47.0454 H         1 UNK         0.0600 
    144 H144        0.8207  -20.9656  -44.8495 H         1 UNK         0.3000 
    145 H145       -1.2923  -22.8773  -42.6742 H         1 UNK         0.0600 
    146 H146        0.7230  -22.5149  -41.2677 H         1 UNK         0.0600 
    147 H147        1.0349  -23.7420  -42.4874 H         1 UNK         0.0600 
    148 H148        1.6778  -22.1179  -42.6937 H         1 UNK         0.0600 
    149 H149       -0.0659  -20.3402  -42.3144 H         1 UNK         0.3000 
    150 H150       -2.7232  -18.3245  -43.6283 H         1 UNK         0.0600 
    151 H151       -1.6339  -18.8027  -40.8021 H         1 UNK         0.0600 
    152 H152       -3.3236  -18.8249  -41.2838 H         1 UNK         0.0600 
    153 H153       -2.4123  -17.3259  -41.3687 H         1 UNK         0.0600 
    154 H154       -0.1418  -17.7145  -42.5424 H         1 UNK         0.3000 
    155 H155        1.5930  -17.6307  -45.6711 H         1 UNK         0.0600 
    156 H156        0.6003  -15.4329  -43.7805 H         1 UNK         0.0600 
    157 H157        0.3917  -15.4635  -45.5279 H         1 UNK         0.0600 
    158 H158        1.9963  -15.3104  -44.8395 H         1 UNK         0.0600 
    159 H159        2.4305  -16.9949  -43.0282 H         1 UNK         0.3000 
    160 H160        3.3218  -20.2974  -41.9780 H         1 UNK         0.0600 
    161 H161        5.0536  -17.8804  -42.7260 H         1 UNK         0.0600 
    162 H162        5.2614  -19.5159  -43.3370 H         1 UNK         0.0600 
    163 H163        5.5095  -19.1838  -41.6300 H         1 UNK         0.0600 
    164 H164        3.5702  -17.7515  -40.7232 H         1 UNK         0.3000 
    165 H165        0.3568  -17.2935  -39.5225 H         1 UNK         0.0600 
    166 H166        1.1470  -17.6652  -37.1935 H         1 UNK         0.0600 
    167 H167        0.8049  -19.1990  -37.9769 H         1 UNK         0.0600 
    168 H168        2.4720  -18.6721  -37.7799 H         1 UNK         0.0600 
    169 H169        2.9572  -16.4172  -38.6120 H         1 UNK         0.3000 
    170 H170        2.8883  -13.5969  -39.4036 H         1 UNK         0.0600 
    171 H171        4.4613  -15.2189  -38.4247 H         1 UNK         0.0600 
    172 H172        5.0327  -15.7037  -40.0215 H         1 UNK         0.0600 
    173 H173        5.3691  -14.0909  -39.4044 H         1 UNK         0.0600 
    174 H174        3.5415  -12.6354  -41.2861 H         1 UNK         0.3000 
    175 H175        5.2136  -12.5893  -43.2617 H         1 UNK         0.0600 
    176 H176        3.8995  -14.3404  -45.3961 H         1 UNK         0.0600 
    177 H177        5.0532  -13.0418  -45.6630 H         1 UNK         0.0600 
    178 H178        5.5529  -14.4971  -44.8197 H         1 UNK         0.0600 
    179 H179        2.5049  -12.5032  -44.4687 H         1 UNK         0.3000 
    180 H180        1.6671   -9.5142  -42.6733 H         1 UNK         0.0600 
    181 H181        1.8395  -10.3766  -45.6074 H         1 UNK         0.0600 
    182 H182        2.5761   -8.9590  -44.8829 H         1 UNK         0.0600 
    183 H183        0.8262   -9.0814  -44.9736 H         1 UNK         0.0600 
    184 H184        0.0076  -10.8986  -42.3468 H         1 UNK         0.3000 
    185 H185       -0.8070  -13.6730  -42.7041 H         1 UNK         0.0600 
    186 H186       -1.6487  -11.6175  -41.6343 H         1 UNK         0.0600 
    187 H187       -2.4616  -11.1195  -43.1193 H         1 UNK         0.0600 
    188 H188       -3.0185  -12.5305  -42.2257 H         1 UNK         0.0600 
    189 H189       -1.9541  -12.9340  -45.3152 H         1 UNK         0.3000 
    190 H190       -1.4483  -20.0821  -46.3288 H         1 UNK         0.3000 
    191 H191       -3.0934  -20.4755  -48.5967 H         1 UNK         0.0600 
    192 H192       -3.1124  -18.4056  -47.2841 H         1 UNK         0.0600 
    193 H193       -4.7296  -19.0922  -47.3174 H         1 UNK         0.0600 
    194 H194       -3.7399  -19.2568  -45.8700 H         1 UNK         0.0600 
    195 H195       -3.3882  -21.8059  -45.2669 H         1 UNK         0.3000 
    196 H196       -5.7941  -23.2309  -45.6765 H         1 UNK         0.0600 
    197 H197       -5.1158  -24.4400  -43.5903 H         1 UNK         0.0600 
    198 H198       -4.8970  -22.7038  -43.4345 H         1 UNK         0.0600 
    199 H199       -3.5025  -23.7462  -43.7085 H         1 UNK         0.0600 
    200 H200       -2.3923  -24.2583  -46.1320 H         1 UNK         0.3000 
    201 H201       -3.0292  -26.9656  -46.9276 H         1 UNK         0.0600 
    202 H202       -0.5939  -27.0014  -47.5251 H         1 UNK         0.0600 
    203 H203       -0.8508  -26.3472  -45.9147 H         1 UNK         0.0600 
    204 H204       -0.5015  -25.2632  -47.2588 H         1 UNK         0.0600 
    205 H205       -3.2125  -23.9621  -48.5610 H         1 UNK         0.3000 
    206 H206       -3.4995  -23.2228  -50.6027 H         1 UNK         0.0600 
    207 H207       -5.3421  -24.8891  -50.7706 H         1 UNK         0.0600 
    208 H208       -4.5981  -24.6006  -52.3330 H         1 UNK         0.0600 
    209 H209       -4.2255  -26.0715  -51.4521 H         1 UNK         0.0600 
    210 H210       -0.8944  -23.8840  -49.7481 H         1 UNK         0.3000 
    211 H211        0.4508  -25.7330  -51.3697 H         1 UNK         0.0600 
    212 H212        1.5214  -23.5892  -49.4746 H         1 UNK         0.0600 
    213 H213        2.4877  -24.9039  -50.1315 H         1 UNK         0.0600 
    214 H214        1.1319  -25.2594  -49.0755 H         1 UNK         0.0600 
    215 H215        0.0512  -22.2992  -51.9572 H         1 UNK         0.3000 
    216 H216        2.2574  -22.0986  -53.8586 H         1 UNK         0.0600 
    217 H217        1.3216  -19.8426  -54.3009 H         1 UNK         0.0600 
    218 H218        1.5290  -20.1185  -52.5804 H         1 UNK         0.0600 
    219 H219       -0.0762  -20.2028  -53.3021 H         1 UNK         0.0600 
    220 H220       -0.9822  -23.2838  -54.0015 H         1 UNK         0.3000 
    221 H221       -2.3557  -24.0244  -55.5491 H         1 UNK         0.0600 
    222 H222        0.1720  -24.4725  -57.2186 H         1 UNK         0.0600 
    223 H223       -0.3925  -25.5279  -55.9237 H         1 UNK         0.0600 
    224 H224       -1.3530  -25.3341  -57.3796 H         1 UNK         0.0600 
    225 H225       -1.8987  -21.1244  -55.6681 H         1 UNK         0.3000 
    226 H226       -2.1982  -20.2711  -58.4308 H         1 UNK         0.0600 
    227 H227       -1.1625  -18.8500  -56.6146 H         1 UNK         0.0600 
    228 H228       -2.5229  -18.0487  -57.3778 H         1 UNK         0.0600 
    229 H229       -2.7189  -18.7809  -55.7917 H         1 UNK         0.0600 
    230 H230       -4.1498  -18.8712  -59.0027 H         1 UNK         0.3000 
    231 H231       -6.5784  -20.3239  -58.9331 H         1 UNK         0.0600 
    232 H232       -6.0454  -17.3840  -59.6272 H         1 UNK         0.0600 
    233 H233       -7.5080  -18.2760  -60.0282 H         1 UNK         0.0600 
    234 H234       -5.9767  -18.7448  -60.7482 H         1 UNK         0.0600 
    235 H235       -5.3281  -17.8467  -56.7685 H         1 UNK         0.3000 
    236 H236       -7.8031  -17.3856  -55.3129 H         1 UNK         0.0600 
    237 H237       -5.9998  -15.6718  -55.4202 H         1 UNK         0.0600 
    238 H238       -6.2878  -16.1585  -53.7574 H         1 UNK         0.0600 
    239 H239       -4.8788  -16.7711  -54.6144 H         1 UNK         0.0600 
    240 H240       -5.2599  -19.8039  -55.2245 H         1 UNK         0.3000 
    241 H241       -5.8546  -20.6919  -52.4850 H         1 UNK         0.0600 
    242 H242       -7.4303  -23.1516  -55.4248 H         1 UNK         0.3800 
    243 H243       -6.2766  -21.9143  -55.8814 H         1 UNK         0.3800 
    244 H244       -4.0403  -22.3102  -52.8014 H         1 UNK         0.0800 
    245 H245       -3.9135  -21.9276  -54.4901 H         1 UNK         0.0800 
    246 H246       -3.8745  -20.1502  -50.9402 H         1 UNK         0.0800 
    247 H247       -2.5520  -21.2921  -51.0471 H         1 UNK         0.0800 
@<TRIPOS>BOND
     1    1    2 1    
     2    1  127 1    
     3    1  128 1    
     4    1  129 1    
     5    2    3 2    
     6    2    4 am   BACKBONE|DICT|INTERRES
     7    4    5 1    
     8    4  130 1    
     9    5    6 1    
    10    5   65 1    
    11    5  131 1    
    12    6    7 1    
    13    6  132 1    
    14    6  133 1    
    15    7    8 1    
    16    8    9 1    
    17    8  134 1    
    18    8  135 1    
    19    9   10 ar   
    20    9   14 ar   
    21   10   11 ar   
    22   10  136 1    
    23   11   12 ar   
    24   11  126 1    
    25   12   13 ar   
    26   12  137 1    
    27   13   14 ar   
    28   13   15 1    
    29   14  138 1    
    30   15   16 1    
    31   15  139 1    
    32   15  140 1    
    33   16   17 1    
    34   17   18 1    
    35   17  141 1    
    36   17  142 1    
    37   18   19 1    
    38   18   67 1    
    39   18  143 1    
    40   19   20 am   BACKBONE|DICT|INTERRES
    41   19  144 1    
    42   20   21 2    
    43   20   22 1    
    44   22   23 1    
    45   22   24 1    
    46   22  145 1    
    47   23  146 1    
    48   23  147 1    
    49   23  148 1    
    50   24   25 am   BACKBONE|DICT|INTERRES
    51   24  149 1    
    52   25   26 2    
    53   25   27 1    
    54   27   28 1    
    55   27   29 1    
    56   27  150 1    
    57   28  151 1    
    58   28  152 1    
    59   28  153 1    
    60   29   30 am   BACKBONE|DICT|INTERRES
    61   29  154 1    
    62   30   31 2    
    63   30   32 1    
    64   32   33 1    
    65   32   34 1    
    66   32  155 1    
    67   33  156 1    
    68   33  157 1    
    69   33  158 1    
    70   34   35 am   BACKBONE|DICT|INTERRES
    71   34  159 1    
    72   35   36 2    
    73   35   37 1    
    74   37   38 1    
    75   37   39 1    
    76   37  160 1    
    77   38  161 1    
    78   38  162 1    
    79   38  163 1    
    80   39   40 am   BACKBONE|DICT|INTERRES
    81   39  164 1    
    82   40   41 2    
    83   40   42 1    
    84   42   43 1    
    85   42   44 1    
    86   42  165 1    
    87   43  166 1    
    88   43  167 1    
    89   43  168 1    
    90   44   45 am   BACKBONE|DICT|INTERRES
    91   44  169 1    
    92   45   46 2    
    93   45   47 1    
    94   47   48 1    
    95   47   49 1    
    96   47  170 1    
    97   48  171 1    
    98   48  172 1    
    99   48  173 1    
   100   49   50 am   BACKBONE|DICT|INTERRES
   101   49  174 1    
   102   50   51 2    
   103   50   52 1    
   104   52   53 1    
   105   52   54 1    
   106   52  175 1    
   107   53  176 1    
   108   53  177 1    
   109   53  178 1    
   110   54   55 am   BACKBONE|DICT|INTERRES
   111   54  179 1    
   112   55   56 2    
   113   55   57 1    
   114   57   58 1    
   115   57   59 1    
   116   57  180 1    
   117   58  181 1    
   118   58  182 1    
   119   58  183 1    
   120   59   60 am   BACKBONE|DICT|INTERRES
   121   59  184 1    
   122   60   61 2    
   123   60   62 1    
   124   62   63 1    
   125   62   64 1    
   126   62  185 1    
   127   63  186 1    
   128   63  187 1    
   129   63  188 1    
   130   64   65 am   BACKBONE|DICT|INTERRES
   131   64  189 1    
   132   65   66 2    
   133   67   68 2    
   134   67   69 am   BACKBONE|DICT|INTERRES
   135   69   70 1    
   136   69  190 1    
   137   70   71 1    
   138   70   72 1    
   139   70  191 1    
   140   71  192 1    
   141   71  193 1    
   142   71  194 1    
   143   72   73 2    
   144   72   74 am   BACKBONE|DICT|INTERRES
   145   74   75 1    
   146   74  195 1    
   147   75   76 1    
   148   75   77 1    
   149   75  196 1    
   150   76  197 1    
   151   76  198 1    
   152   76  199 1    
   153   77   78 2    
   154   77   79 am   BACKBONE|DICT|INTERRES
   155   79   80 1    
   156   79  200 1    
   157   80   81 1    
   158   80   82 1    
   159   80  201 1    
   160   81  202 1    
   161   81  203 1    
   162   81  204 1    
   163   82   83 2    
   164   82   84 am   BACKBONE|DICT|INTERRES
   165   84   85 1    
   166   84  205 1    
   167   85   86 1    
   168   85   87 1    
   169   85  206 1    
   170   86  207 1    
   171   86  208 1    
   172   86  209 1    
   173   87   88 2    
   174   87   89 am   BACKBONE|DICT|INTERRES
   175   89   90 1    
   176   89  210 1    
   177   90   91 1    
   178   90   92 1    
   179   90  211 1    
   180   91  212 1    
   181   91  213 1    
   182   91  214 1    
   183   92   93 2    
   184   92   94 am   BACKBONE|DICT|INTERRES
   185   94   95 1    
   186   94  215 1    
   187   95   96 1    
   188   95   97 1    
   189   95  216 1    
   190   96  217 1    
   191   96  218 1    
   192   96  219 1    
   193   97   98 2    
   194   97   99 am   BACKBONE|DICT|INTERRES
   195   99  100 1    
   196   99  220 1    
   197  100  101 1    
   198  100  102 1    
   199  100  221 1    
   200  101  222 1    
   201  101  223 1    
   202  101  224 1    
   203  102  103 2    
   204  102  104 am   BACKBONE|DICT|INTERRES
   205  104  105 1    
   206  104  225 1    
   207  105  106 1    
   208  105  107 1    
   209  105  226 1    
   210  106  227 1    
   211  106  228 1    
   212  106  229 1    
   213  107  108 2    
   214  107  109 am   BACKBONE|DICT|INTERRES
   215  109  110 1    
   216  109  230 1    
   217  110  111 1    
   218  110  112 1    
   219  110  231 1    
   220  111  232 1    
   221  111  233 1    
   222  111  234 1    
   223  112  113 2    
   224  112  114 am   BACKBONE|DICT|INTERRES
   225  114  115 1    
   226  114  235 1    
   227  115  116 1    
   228  115  117 1    
   229  115  236 1    
   230  116  237 1    
   231  116  238 1    
   232  116  239 1    
   233  117  118 2    
   234  117  119 am   BACKBONE|DICT|INTERRES
   235  119  120 1    
   236  119  240 1    
   237  120  121 1    
   238  120  124 1    
   239  120  241 1    
   240  121  122 am   BACKBONE|DICT|INTERRES
   241  121  123 2    
   242  122  242 1    
   243  122  243 1    
   244  124  125 1    
   245  124  244 1    
   246  124  245 1    
   247  125  126 1    
   248  126  246 1    
   249  126  247 1    
@<TRIPOS>SUBSTRUCTURE
     1 UNK         1 GROUP             0       ****    0 ROOT    
