@<TRIPOS>MOLECULE
3R540
247   249    1
SMALL
USER_CHARGES


@<TRIPOS>ATOM
      1 CA          2.3814  -15.9836  -50.3182 C.3       0 UNK        -0.1800 
      2 C           1.1763  -15.3509  -49.6411 C.2       0 UNK         0.5000 
      3 O           1.2832  -14.2441  -49.1125 O.2       0 UNK        -0.5000 
      4 N           0.0283  -16.0401  -49.6670 N.am      1 UNK        -0.5000 
      5 CA         -1.2450  -15.6499  -49.0456 C.3       1 UNK         0.1400 
      6 C6         -2.3270  -16.7385  -49.2404 C.3       23 UNK        -0.0398 
      7 S7         -2.1081  -18.1392  -48.0984 S.3       23 UNK        -0.2404 
      8 C8         -1.6164  -19.4893  -49.2102 C.3       23 UNK        -0.0205 
      9 C9         -0.1427  -19.4675  -49.5880 C.ar      23 UNK        -0.0193 
     10 C10         0.2447  -19.6516  -50.9153 C.ar      23 UNK        -0.1150 
     11 C11         1.5971  -19.7172  -51.2634 C.ar      23 UNK        -0.0193 
     12 C12         2.5701  -19.6268  -50.2624 C.ar      23 UNK        -0.1150 
     13 C13         2.1957  -19.4581  -48.9260 C.ar      23 UNK        -0.0193 
     14 C14         0.8404  -19.3534  -48.6035 C.ar      23 UNK        -0.1150 
     15 C15         3.2439  -19.4163  -47.8215 C.3       23 UNK        -0.0205 
     16 S16         3.6624  -21.0806  -47.1917 S.3       23 UNK        -0.2404 
     17 C17         2.0516  -21.6552  -46.5533 C.3       23 UNK        -0.0398 
     18 CA          2.0513  -23.1277  -46.0741 C.3       11 UNK         0.1400 
     19 N           2.9073  -23.3188  -44.9038 N.am      11 UNK        -0.5000 
     20 C           3.9281  -24.1811  -44.8109 C.2       10 UNK         0.5000 
     21 O           4.2765  -24.9305  -45.7237 O.2       10 UNK        -0.5000 
     22 CA          4.6846  -24.2329  -43.4651 C.3       10 UNK         0.1400 
     23 CB          5.9879  -23.4241  -43.5545 C.3       10 UNK        -0.1800 
     24 N           3.9010  -23.7368  -42.3312 N.am      10 UNK        -0.5000 
     25 C           2.7739  -24.2966  -41.8698 C.2       9 UNK         0.5000 
     26 O           2.3253  -25.3609  -42.2942 O.2       9 UNK        -0.5000 
     27 CA          1.9845  -23.5101  -40.8024 C.3       9 UNK         0.1400 
     28 CB          2.2716  -24.0710  -39.4018 C.3       9 UNK        -0.1800 
     29 N           2.2424  -22.0644  -40.8029 N.am      9 UNK        -0.5000 
     30 C           2.0124  -21.2333  -41.8292 C.2       8 UNK         0.5000 
     31 O           1.5778  -21.6009  -42.9239 O.2       8 UNK        -0.5000 
     32 CA          2.4216  -19.7663  -41.6120 C.3       8 UNK         0.1400 
     33 CB          3.9445  -19.6165  -41.7640 C.3       8 UNK        -0.1800 
     34 N           1.7752  -18.8783  -42.5751 N.am      8 UNK        -0.5000 
     35 C           0.5117  -18.4436  -42.4982 C.2       7 UNK         0.5000 
     36 O          -0.2320  -18.6776  -41.5421 O.2       7 UNK        -0.5000 
     37 CA          0.0549  -17.5514  -43.6720 C.3       7 UNK         0.1400 
     38 CB          0.2181  -18.2497  -45.0372 C.3       7 UNK        -0.1800 
     39 N          -1.2937  -16.9958  -43.5360 N.am      7 UNK        -0.5000 
     40 C          -2.4667  -17.6482  -43.5214 C.2       6 UNK         0.5000 
     41 O          -2.5874  -18.8694  -43.6235 O.2       6 UNK        -0.5000 
     42 CA         -3.7357  -16.7823  -43.3744 C.3       6 UNK         0.1400 
     43 CB         -4.2188  -16.7791  -41.9157 C.3       6 UNK        -0.1800 
     44 N          -3.5450  -15.3970  -43.8125 N.am      6 UNK        -0.5000 
     45 C          -3.4363  -15.0123  -45.0913 C.2       5 UNK         0.5000 
     46 O          -3.5642  -15.7780  -46.0452 O.2       5 UNK        -0.5000 
     47 CA         -3.1204  -13.5279  -45.3615 C.3       5 UNK         0.1400 
     48 CB         -3.5079  -12.5787  -44.2050 C.3       5 UNK        -0.1800 
     49 N          -1.7183  -13.3405  -45.7449 N.am      5 UNK        -0.5000 
     50 C          -0.6288  -13.6269  -45.0159 C.2       4 UNK         0.5000 
     51 O          -0.6737  -14.0988  -43.8782 O.2       4 UNK        -0.5000 
     52 CA          0.7500  -13.3580  -45.6517 C.3       4 UNK         0.1400 
     53 CB          1.5134  -14.6732  -45.8757 C.3       4 UNK        -0.1800 
     54 N           0.6941  -12.6333  -46.9225 N.am      4 UNK        -0.5000 
     55 C           0.5620  -11.3056  -47.0460 C.2       3 UNK         0.5000 
     56 O           0.3721  -10.5489  -46.0935 O.2       3 UNK        -0.5000 
     57 CA          0.6670  -10.7231  -48.4657 C.3       3 UNK         0.1400 
     58 CB          2.1414  -10.5498  -48.8628 C.3       3 UNK        -0.1800 
     59 N           0.0102  -11.5857  -49.4470 N.am      3 UNK        -0.5000 
     60 C          -1.1085  -11.2759  -50.1170 C.2       2 UNK         0.5000 
     61 O          -1.6897  -10.1942  -50.0194 O.2       2 UNK        -0.5000 
     62 CA         -1.6898  -12.3595  -51.0503 C.3       2 UNK         0.1400 
     63 CB         -1.1985  -12.1321  -52.4880 C.3       2 UNK        -0.1800 
     64 N          -1.3690  -13.7265  -50.6246 N.am      2 UNK        -0.5000 
     65 C          -1.7870  -14.2645  -49.4685 C.2       1 UNK         0.5000 
     66 O          -2.5536  -13.6795  -48.7029 O.2       1 UNK        -0.5000 
     67 C           0.6100  -23.6093  -45.7891 C.2       11 UNK         0.5000 
     68 O          -0.3041  -23.2120  -46.5126 O.2       11 UNK        -0.5000 
     69 N           0.4026  -24.4568  -44.7668 N.am      12 UNK        -0.5000 
     70 CA         -0.9207  -24.9304  -44.3372 C.3       12 UNK         0.1400 
     71 CB         -0.7790  -25.8511  -43.1168 C.3       12 UNK        -0.1800 
     72 C          -1.7389  -25.6287  -45.4409 C.2       12 UNK         0.5000 
     73 O          -2.9508  -25.4287  -45.5108 O.2       12 UNK        -0.5000 
     74 N          -1.0624  -26.3948  -46.3079 N.am      13 UNK        -0.5000 
     75 CA         -1.6679  -27.0601  -47.4631 C.3       13 UNK         0.1400 
     76 CB         -0.6613  -28.0506  -48.0670 C.3       13 UNK        -0.1800 
     77 C          -2.1616  -26.0663  -48.5314 C.2       13 UNK         0.5000 
     78 O          -3.2493  -26.2497  -49.0766 O.2       13 UNK        -0.5000 
     79 N          -1.3718  -25.0143  -48.7865 N.am      14 UNK        -0.5000 
     80 CA         -1.7077  -23.9374  -49.7189 C.3       14 UNK         0.1400 
     81 CB         -0.4451  -23.1233  -50.0373 C.3       14 UNK        -0.1800 
     82 C          -2.8247  -23.0312  -49.1735 C.2       14 UNK         0.5000 
     83 O          -3.6704  -22.5723  -49.9425 O.2       14 UNK        -0.5000 
     84 N          -2.8215  -22.8078  -47.8523 N.am      15 UNK        -0.5000 
     85 CA         -3.8589  -22.0747  -47.1307 C.3       15 UNK         0.1400 
     86 CB         -3.3813  -21.7749  -45.7029 C.3       15 UNK        -0.1800 
     87 C          -5.1990  -22.8318  -47.1303 C.2       15 UNK         0.5000 
     88 O          -6.2365  -22.2175  -47.3754 O.2       15 UNK        -0.5000 
     89 N          -5.1519  -24.1565  -46.9207 N.am      16 UNK        -0.5000 
     90 CA         -6.3032  -25.0594  -47.0129 C.3       16 UNK         0.1400 
     91 CB         -5.9113  -26.4506  -46.4934 C.3       16 UNK        -0.1800 
     92 C          -6.8791  -25.1539  -48.4390 C.2       16 UNK         0.5000 
     93 O          -8.0982  -25.2217  -48.5983 O.2       16 UNK        -0.5000 
     94 N          -5.9983  -25.1142  -49.4490 N.am      17 UNK        -0.5000 
     95 CA         -6.3521  -25.0364  -50.8693 C.3       17 UNK         0.1400 
     96 CB         -5.1264  -25.4251  -51.7109 C.3       17 UNK        -0.1800 
     97 C          -6.8812  -23.6508  -51.2993 C.2       17 UNK         0.5000 
     98 O          -7.4190  -23.5335  -52.4011 O.2       17 UNK        -0.5000 
     99 N          -6.7175  -22.6385  -50.4340 N.am      18 UNK        -0.5000 
    100 CA        -7.0949  -21.2347  -50.6054 C.3       18 UNK         0.1400 
    101 CB        -8.6282  -21.0812  -50.6804 C.3       18 UNK        -0.1800 
    102 C         -6.3545  -20.5620  -51.7777 C.2       18 UNK         0.5000 
    103 O         -6.9672  -19.8430  -52.5705 O.2       18 UNK        -0.5000 
    104 N         -5.0365  -20.7926  -51.8619 N.am      19 UNK        -0.5000 
    105 CA        -4.1309  -20.2496  -52.8801 C.3       19 UNK         0.1400 
    106 CB        -2.8640  -21.1216  -52.9215 C.3       19 UNK        -0.1800 
    107 C         -3.8181  -18.7470  -52.6785 C.2       19 UNK         0.5000 
    108 O         -2.6531  -18.3490  -52.6399 O.2       19 UNK        -0.5000 
    109 N         -4.8717  -17.9296  -52.5596 N.am      20 UNK        -0.5000 
    110 CA        -4.8371  -16.4879  -52.2953 C.3       20 UNK         0.1400 
    111 CB        -6.2687  -16.0060  -52.0175 C.3       20 UNK        -0.1800 
    112 C         -4.1877  -15.6429  -53.4088 C.2       20 UNK         0.5000 
    113 O         -3.7929  -14.5076  -53.1483 O.2       20 UNK        -0.5000 
    114 N         -4.0844  -16.2038  -54.6209 N.am      21 UNK        -0.5000 
    115 CA        -3.4181  -15.5942  -55.7731 C.3       21 UNK         0.1400 
    116 CB        -3.8787  -16.3212  -57.0463 C.3       21 UNK        -0.1800 
    117 C         -1.8778  -15.6070  -55.6719 C.2       21 UNK         0.5000 
    118 O         -1.2238  -14.8719  -56.4127 O.2       21 UNK        -0.5000 
    119 N         -1.3254  -16.4473  -54.7868 N.am      22 UNK        -0.5000 
    120 CA         0.1103  -16.5572  -54.5038 C.3       22 UNK         0.1400 
    121 C          0.6529  -15.2824  -53.8022 C.2       22 UNK         0.5000 
    122 N          1.6278  -14.5987  -54.3851 N.am      22 UNK        -0.7600 
    123 O          0.2146  -14.9346  -52.7101 O.2       22 UNK        -0.5000 
    124 C124        0.3767  -17.8185  -53.6525 C.3       23 UNK        -0.0398 
    125 S125        2.1264  -18.3335  -53.6158 S.3       23 UNK        -0.2404 
    126 C126        1.9997  -19.9140  -52.7181 C.3       23 UNK        -0.0205 
    127 H127        3.0946  -16.3315  -49.5713 H         1 UNK         0.0600 
    128 H128        2.8772  -15.2550  -50.9594 H         1 UNK         0.0600 
    129 H129        2.0899  -16.8300  -50.9384 H         1 UNK         0.0600 
    130 H130        0.0242  -16.9462  -50.1129 H         1 UNK         0.3000 
    131 H131       -1.0475  -15.5599  -47.9753 H         1 UNK         0.0600 
    132 H132       -2.3399  -17.0876  -50.2730 H         1 UNK         0.0800 
    133 H133       -3.3256  -16.3461  -49.0370 H         1 UNK         0.0800 
    134 H134       -1.7991  -20.4233  -48.6851 H         1 UNK         0.0800 
    135 H135       -2.2602  -19.4974  -50.0899 H         1 UNK         0.0800 
    136 H136       -0.5081  -19.7545  -51.6825 H         1 UNK         0.1150 
    137 H137        3.6170  -19.7009  -50.5208 H         1 UNK         0.1150 
    138 H138        0.5446  -19.2373  -47.5723 H         1 UNK         0.1150 
    139 H139        4.1525  -18.9437  -48.1971 H         1 UNK         0.0800 
    140 H140        2.8990  -18.7921  -46.9966 H         1 UNK         0.0800 
    141 H141        1.3380  -21.5531  -47.3678 H         1 UNK         0.0800 
    142 H142        1.7204  -20.9866  -45.7570 H         1 UNK         0.0800 
    143 H143        2.4053  -23.7433  -46.9032 H         1 UNK         0.0600 
    144 H144        2.6580  -22.7537  -44.0974 H         1 UNK         0.3000 
    145 H145        4.9381  -25.2769  -43.2699 H         1 UNK         0.0600 
    146 H146        6.5700  -23.5090  -42.6367 H         1 UNK         0.0600 
    147 H147        6.6160  -23.7838  -44.3706 H         1 UNK         0.0600 
    148 H148        5.7922  -22.3659  -43.7334 H         1 UNK         0.0600 
    149 H149        4.2012  -22.8652  -41.9215 H         1 UNK         0.3000 
    150 H150        0.9236  -23.6516  -41.0163 H         1 UNK         0.0600 
    151 H151        3.3152  -23.9299  -39.1180 H         1 UNK         0.0600 
    152 H152        2.0611  -25.1406  -39.3582 H         1 UNK         0.0600 
    153 H153        1.6491  -23.5890  -38.6477 H         1 UNK         0.0600 
    154 H154        2.6211  -21.6836  -39.9473 H         1 UNK         0.3000 
    155 H155        2.1349  -19.4670  -40.6016 H         1 UNK         0.0600 
    156 H156        4.2838  -19.9248  -42.7542 H         1 UNK         0.0600 
    157 H157        4.4772  -20.2237  -41.0311 H         1 UNK         0.0600 
    158 H158        4.2558  -18.5830  -41.6105 H         1 UNK         0.0600 
    159 H159        2.3142  -18.6580  -43.3987 H         1 UNK         0.3000 
    160 H160        0.7176  -16.6876  -43.6566 H         1 UNK         0.0600 
    161 H161       -0.3554  -19.1759  -45.0924 H         1 UNK         0.0600 
    162 H162        1.2598  -18.4986  -45.2355 H         1 UNK         0.0600 
    163 H163       -0.1151  -17.6015  -45.8475 H         1 UNK         0.0600 
    164 H164       -1.3214  -15.9850  -43.4511 H         1 UNK         0.3000 
    165 H165       -4.5156  -17.2348  -43.9907 H         1 UNK         0.0600 
    166 H166       -5.1530  -16.2274  -41.8096 H         1 UNK         0.0600 
    167 H167       -4.4002  -17.7953  -41.5630 H         1 UNK         0.0600 
    168 H168       -3.4824  -16.3278  -41.2495 H         1 UNK         0.0600 
    169 H169       -3.4052  -14.7060  -43.0897 H         1 UNK         0.3000 
    170 H170       -3.7182  -13.2424  -46.2282 H         1 UNK         0.0600 
    171 H171       -4.5589  -12.6965  -43.9382 H         1 UNK         0.0600 
    172 H172       -2.9165  -12.7478  -43.3050 H         1 UNK         0.0600 
    173 H173       -3.3665  -11.5380  -44.4970 H         1 UNK         0.0600 
    174 H174       -1.5776  -13.0156  -46.6922 H         1 UNK         0.3000 
    175 H175        1.3214  -12.7580  -44.9404 H         1 UNK         0.0600 
    176 H176        0.9320  -15.3851  -46.4623 H         1 UNK         0.0600 
    177 H177        2.4555  -14.5017  -46.3969 H         1 UNK         0.0600 
    178 H178        1.7598  -15.1446  -44.9256 H         1 UNK         0.0600 
    179 H179        0.8833  -13.1894  -47.7549 H         1 UNK         0.3000 
    180 H180        0.2044   -9.7342  -48.4494 H         1 UNK         0.0600 
    181 H181        2.6638  -11.5068  -48.9028 H         1 UNK         0.0600 
    182 H182        2.6677   -9.9161  -48.1479 H         1 UNK         0.0600 
    183 H183        2.2309  -10.0795  -49.8421 H         1 UNK         0.0600 
    184 H184        0.4086  -12.5108  -49.5737 H         1 UNK         0.3000 
    185 H185       -2.7769  -12.2566  -51.0435 H         1 UNK         0.0600 
    186 H186       -1.4816  -11.1416  -52.8459 H         1 UNK         0.0600 
    187 H187       -0.1129  -12.2085  -52.5572 H         1 UNK         0.0600 
    188 H188       -1.6298  -12.8602  -53.1750 H         1 UNK         0.0600 
    189 H189       -0.7445  -14.2548  -51.2316 H         1 UNK         0.3000 
    190 H190        1.1928  -24.7522  -44.2082 H         1 UNK         0.3000 
    191 H191       -1.4891  -24.0517  -44.0267 H         1 UNK         0.0600 
    192 H192       -0.3834  -25.3090  -42.2591 H         1 UNK         0.0600 
    193 H193       -1.7453  -26.2592  -42.8172 H         1 UNK         0.0600 
    194 H194       -0.1151  -26.6919  -43.3209 H         1 UNK         0.0600 
    195 H195       -0.0673  -26.5053  -46.1805 H         1 UNK         0.3000 
    196 H196       -2.5335  -27.6266  -47.1127 H         1 UNK         0.0600 
    197 H197       -1.0933  -28.5727  -48.9218 H         1 UNK         0.0600 
    198 H198       -0.3688  -28.8078  -47.3393 H         1 UNK         0.0600 
    199 H199        0.2434  -27.5484  -48.4118 H         1 UNK         0.0600 
    200 H200       -0.5286  -24.8970  -48.2442 H         1 UNK         0.3000 
    201 H201       -2.0630  -24.3867  -50.6483 H         1 UNK         0.0600 
    202 H202       -0.6512  -22.3745  -50.8013 H         1 UNK         0.0600 
    203 H203        0.3522  -23.7607  -50.4193 H         1 UNK         0.0600 
    204 H204       -0.0648  -22.5995  -49.1600 H         1 UNK         0.0600 
    205 H205       -2.0400  -23.1568  -47.3038 H         1 UNK         0.3000 
    206 H206       -4.0144  -21.1214  -47.6404 H         1 UNK         0.0600 
    207 H207       -2.4512  -21.2053  -45.7101 H         1 UNK         0.0600 
    208 H208       -4.1192  -21.1822  -45.1610 H         1 UNK         0.0600 
    209 H209       -3.2102  -22.6880  -45.1335 H         1 UNK         0.0600 
    210 H210       -4.2660  -24.5809  -46.6609 H         1 UNK         0.3000 
    211 H211       -7.0888  -24.6646  -46.3653 H         1 UNK         0.0600 
    212 H212       -5.0985  -26.8841  -47.0768 H         1 UNK         0.0600 
    213 H213       -6.7557  -27.1392  -46.5424 H         1 UNK         0.0600 
    214 H214       -5.5890  -26.4057  -45.4530 H         1 UNK         0.0600 
    215 H215       -5.0082  -25.1416  -49.2318 H         1 UNK         0.3000 
    216 H216       -7.1432  -25.7628  -51.0659 H         1 UNK         0.0600 
    217 H217       -5.3685  -25.4365  -52.7743 H         1 UNK         0.0600 
    218 H218       -4.7668  -26.4206  -51.4500 H         1 UNK         0.0600 
    219 H219       -4.3048  -24.7230  -51.5706 H         1 UNK         0.0600 
    220 H220       -6.2455  -22.8472  -49.5640 H         1 UNK         0.3000 
    221 H221       -6.7599  -20.7195  -49.7043 H         1 UNK         0.0600 
    222 H222       -9.0388  -21.5279  -51.5863 H         1 UNK         0.0600 
    223 H223       -9.1121  -21.5521  -49.8247 H         1 UNK         0.0600 
    224 H224       -8.9153  -20.0291  -50.6765 H         1 UNK         0.0600 
    225 H225       -4.6100  -21.4003  -51.1664 H         1 UNK         0.3000 
    226 H226       -4.6189  -20.3379  -53.8527 H         1 UNK         0.0600 
    227 H227       -3.1073  -22.1554  -53.1676 H         1 UNK         0.0600 
    228 H228       -2.1589  -20.7661  -53.6740 H         1 UNK         0.0600 
    229 H229       -2.3526  -21.1239  -51.9602 H         1 UNK         0.0600 
    230 H230       -5.7913  -18.3599  -52.6144 H         1 UNK         0.3000 
    231 H231       -4.2485  -16.3284  -51.3922 H         1 UNK         0.0600 
    232 H232       -6.9187  -16.1628  -52.8793 H         1 UNK         0.0600 
    233 H233       -6.2858  -14.9411  -51.7813 H         1 UNK         0.0600 
    234 H234       -6.7044  -16.5327  -51.1682 H         1 UNK         0.0600 
    235 H235       -4.4506  -17.1355  -54.7468 H         1 UNK         0.3000 
    236 H236       -3.7323  -14.5506  -55.8426 H         1 UNK         0.0600 
    237 H237       -4.9608  -16.2626  -57.1650 H         1 UNK         0.0600 
    238 H238       -3.4317  -15.8747  -57.9356 H         1 UNK         0.0600 
    239 H239       -3.5978  -17.3750  -57.0318 H         1 UNK         0.0600 
    240 H240       -1.9344  -16.9870  -54.1842 H         1 UNK         0.3000 
    241 H241        0.6190  -16.6793  -55.4621 H         1 UNK         0.0600 
    242 H242        1.9992  -14.8711  -55.2816 H         1 UNK         0.3800 
    243 H243        1.9909  -13.7796  -53.9255 H         1 UNK         0.3800 
    244 H244        0.0240  -17.6523  -52.6347 H         1 UNK         0.0800 
    245 H245       -0.2004  -18.6583  -54.0429 H         1 UNK         0.0800 
    246 H246        1.2840  -20.5657  -53.2218 H         1 UNK         0.0800 
    247 H247        2.9622  -20.4249  -52.7702 H         1 UNK         0.0800 
@<TRIPOS>BOND
     1    1    2 1    
     2    1  127 1    
     3    1  128 1    
     4    1  129 1    
     5    2    3 2    
     6    2    4 am   BACKBONE|DICT|INTERRES
     7    4    5 1    
     8    4  130 1    
     9    5    6 1    
    10    5   65 1    
    11    5  131 1    
    12    6    7 1    
    13    6  132 1    
    14    6  133 1    
    15    7    8 1    
    16    8    9 1    
    17    8  134 1    
    18    8  135 1    
    19    9   10 ar   
    20    9   14 ar   
    21   10   11 ar   
    22   10  136 1    
    23   11   12 ar   
    24   11  126 1    
    25   12   13 ar   
    26   12  137 1    
    27   13   14 ar   
    28   13   15 1    
    29   14  138 1    
    30   15   16 1    
    31   15  139 1    
    32   15  140 1    
    33   16   17 1    
    34   17   18 1    
    35   17  141 1    
    36   17  142 1    
    37   18   19 1    
    38   18   67 1    
    39   18  143 1    
    40   19   20 am   BACKBONE|DICT|INTERRES
    41   19  144 1    
    42   20   21 2    
    43   20   22 1    
    44   22   23 1    
    45   22   24 1    
    46   22  145 1    
    47   23  146 1    
    48   23  147 1    
    49   23  148 1    
    50   24   25 am   BACKBONE|DICT|INTERRES
    51   24  149 1    
    52   25   26 2    
    53   25   27 1    
    54   27   28 1    
    55   27   29 1    
    56   27  150 1    
    57   28  151 1    
    58   28  152 1    
    59   28  153 1    
    60   29   30 am   BACKBONE|DICT|INTERRES
    61   29  154 1    
    62   30   31 2    
    63   30   32 1    
    64   32   33 1    
    65   32   34 1    
    66   32  155 1    
    67   33  156 1    
    68   33  157 1    
    69   33  158 1    
    70   34   35 am   BACKBONE|DICT|INTERRES
    71   34  159 1    
    72   35   36 2    
    73   35   37 1    
    74   37   38 1    
    75   37   39 1    
    76   37  160 1    
    77   38  161 1    
    78   38  162 1    
    79   38  163 1    
    80   39   40 am   BACKBONE|DICT|INTERRES
    81   39  164 1    
    82   40   41 2    
    83   40   42 1    
    84   42   43 1    
    85   42   44 1    
    86   42  165 1    
    87   43  166 1    
    88   43  167 1    
    89   43  168 1    
    90   44   45 am   BACKBONE|DICT|INTERRES
    91   44  169 1    
    92   45   46 2    
    93   45   47 1    
    94   47   48 1    
    95   47   49 1    
    96   47  170 1    
    97   48  171 1    
    98   48  172 1    
    99   48  173 1    
   100   49   50 am   BACKBONE|DICT|INTERRES
   101   49  174 1    
   102   50   51 2    
   103   50   52 1    
   104   52   53 1    
   105   52   54 1    
   106   52  175 1    
   107   53  176 1    
   108   53  177 1    
   109   53  178 1    
   110   54   55 am   BACKBONE|DICT|INTERRES
   111   54  179 1    
   112   55   56 2    
   113   55   57 1    
   114   57   58 1    
   115   57   59 1    
   116   57  180 1    
   117   58  181 1    
   118   58  182 1    
   119   58  183 1    
   120   59   60 am   BACKBONE|DICT|INTERRES
   121   59  184 1    
   122   60   61 2    
   123   60   62 1    
   124   62   63 1    
   125   62   64 1    
   126   62  185 1    
   127   63  186 1    
   128   63  187 1    
   129   63  188 1    
   130   64   65 am   BACKBONE|DICT|INTERRES
   131   64  189 1    
   132   65   66 2    
   133   67   68 2    
   134   67   69 am   BACKBONE|DICT|INTERRES
   135   69   70 1    
   136   69  190 1    
   137   70   71 1    
   138   70   72 1    
   139   70  191 1    
   140   71  192 1    
   141   71  193 1    
   142   71  194 1    
   143   72   73 2    
   144   72   74 am   BACKBONE|DICT|INTERRES
   145   74   75 1    
   146   74  195 1    
   147   75   76 1    
   148   75   77 1    
   149   75  196 1    
   150   76  197 1    
   151   76  198 1    
   152   76  199 1    
   153   77   78 2    
   154   77   79 am   BACKBONE|DICT|INTERRES
   155   79   80 1    
   156   79  200 1    
   157   80   81 1    
   158   80   82 1    
   159   80  201 1    
   160   81  202 1    
   161   81  203 1    
   162   81  204 1    
   163   82   83 2    
   164   82   84 am   BACKBONE|DICT|INTERRES
   165   84   85 1    
   166   84  205 1    
   167   85   86 1    
   168   85   87 1    
   169   85  206 1    
   170   86  207 1    
   171   86  208 1    
   172   86  209 1    
   173   87   88 2    
   174   87   89 am   BACKBONE|DICT|INTERRES
   175   89   90 1    
   176   89  210 1    
   177   90   91 1    
   178   90   92 1    
   179   90  211 1    
   180   91  212 1    
   181   91  213 1    
   182   91  214 1    
   183   92   93 2    
   184   92   94 am   BACKBONE|DICT|INTERRES
   185   94   95 1    
   186   94  215 1    
   187   95   96 1    
   188   95   97 1    
   189   95  216 1    
   190   96  217 1    
   191   96  218 1    
   192   96  219 1    
   193   97   98 2    
   194   97   99 am   BACKBONE|DICT|INTERRES
   195   99  100 1    
   196   99  220 1    
   197  100  101 1    
   198  100  102 1    
   199  100  221 1    
   200  101  222 1    
   201  101  223 1    
   202  101  224 1    
   203  102  103 2    
   204  102  104 am   BACKBONE|DICT|INTERRES
   205  104  105 1    
   206  104  225 1    
   207  105  106 1    
   208  105  107 1    
   209  105  226 1    
   210  106  227 1    
   211  106  228 1    
   212  106  229 1    
   213  107  108 2    
   214  107  109 am   BACKBONE|DICT|INTERRES
   215  109  110 1    
   216  109  230 1    
   217  110  111 1    
   218  110  112 1    
   219  110  231 1    
   220  111  232 1    
   221  111  233 1    
   222  111  234 1    
   223  112  113 2    
   224  112  114 am   BACKBONE|DICT|INTERRES
   225  114  115 1    
   226  114  235 1    
   227  115  116 1    
   228  115  117 1    
   229  115  236 1    
   230  116  237 1    
   231  116  238 1    
   232  116  239 1    
   233  117  118 2    
   234  117  119 am   BACKBONE|DICT|INTERRES
   235  119  120 1    
   236  119  240 1    
   237  120  121 1    
   238  120  124 1    
   239  120  241 1    
   240  121  122 am   BACKBONE|DICT|INTERRES
   241  121  123 2    
   242  122  242 1    
   243  122  243 1    
   244  124  125 1    
   245  124  244 1    
   246  124  245 1    
   247  125  126 1    
   248  126  246 1    
   249  126  247 1    
@<TRIPOS>SUBSTRUCTURE
     1 UNK         1 GROUP             0       ****    0 ROOT    
