@<TRIPOS>MOLECULE
3R540
247   249    1
SMALL
USER_CHARGES


@<TRIPOS>ATOM
      1 CA          4.8472  -13.0674  -51.5270 C.3       0 UNK        -0.1800 
      2 C           3.7874  -12.5072  -50.5896 C.2       0 UNK         0.5000 
      3 O           3.6970  -11.2903  -50.4235 O.2       0 UNK        -0.5000 
      4 N           2.9894  -13.3914  -49.9764 N.am      1 UNK        -0.5000 
      5 CA          1.9137  -13.1120  -49.0163 C.3       1 UNK         0.1400 
      6 C6          0.8217  -12.1541  -49.5651 C.3       23 UNK        -0.0398 
      7 S7         -0.8079  -12.4469  -48.7993 S.3       23 UNK        -0.2404 
      8 C8         -1.7226  -13.2184  -50.1703 C.3       23 UNK        -0.0205 
      9 C9         -1.2859  -14.6544  -50.4182 C.ar      23 UNK        -0.0193 
     10 C10        -0.3042  -14.9437  -51.3721 C.ar      23 UNK        -0.1150 
     11 C11         0.0544  -16.2673  -51.6412 C.ar      23 UNK        -0.0193 
     12 C12        -0.5662  -17.3035  -50.9391 C.ar      23 UNK        -0.1150 
     13 C13        -1.5559  -17.0277  -49.9943 C.ar      23 UNK        -0.0193 
     14 C14        -1.9038  -15.7011  -49.7274 C.ar      23 UNK        -0.1150 
     15 C15        -2.2821  -18.1676  -49.3049 C.3       23 UNK        -0.0205 
     16 S16        -1.4902  -18.6148  -47.7326 S.3       23 UNK        -0.2404 
     17 C17        -2.5279  -20.0294  -47.2503 C.3       23 UNK        -0.0398 
     18 CA         -1.7026  -21.3106  -47.0010 C.3       11 UNK         0.1400 
     19 N          -0.7371  -21.1660  -45.9088 N.am      11 UNK        -0.5000 
     20 C           0.2000  -22.0726  -45.5958 C.2       10 UNK         0.5000 
     21 O           0.3813  -23.1146  -46.2224 O.2       10 UNK        -0.5000 
     22 CA          1.0306  -21.7997  -44.3331 C.3       10 UNK         0.1400 
     23 CB          2.2650  -20.9504  -44.6639 C.3       10 UNK        -0.1800 
     24 N           0.2220  -21.1552  -43.2971 N.am      10 UNK        -0.5000 
     25 C          -0.7216  -21.8027  -42.5961 C.2       9 UNK         0.5000 
     26 O          -0.9604  -23.0042  -42.7252 O.2       9 UNK        -0.5000 
     27 CA         -1.5782  -20.9637  -41.6324 C.3       9 UNK         0.1400 
     28 CB         -0.8834  -20.8312  -40.2701 C.3       9 UNK        -0.1800 
     29 N          -1.8931  -19.6392  -42.1744 N.am      9 UNK        -0.5000 
     30 C          -2.7146  -19.4442  -43.2179 C.2       8 UNK         0.5000 
     31 O          -3.2763  -20.3725  -43.8006 O.2       8 UNK        -0.5000 
     32 CA         -2.9138  -18.0110  -43.7539 C.3       8 UNK         0.1400 
     33 CB         -4.3998  -17.6722  -43.9872 C.3       8 UNK        -0.1800 
     34 N          -2.2259  -16.9699  -42.9864 N.am      8 UNK        -0.5000 
     35 C          -2.5178  -16.4745  -41.7757 C.2       7 UNK         0.5000 
     36 O          -3.5019  -16.8008  -41.1113 O.2       7 UNK        -0.5000 
     37 CA         -1.4956  -15.4546  -41.2199 C.3       7 UNK         0.1400 
     38 CB         -1.6094  -15.2565  -39.6936 C.3       7 UNK        -0.1800 
     39 N          -0.1109  -15.7717  -41.6074 N.am      7 UNK        -0.5000 
     40 C           0.5565  -16.8999  -41.3172 C.2       6 UNK         0.5000 
     41 O           0.0886  -17.8068  -40.6297 O.2       6 UNK        -0.5000 
     42 CA          1.9432  -17.0612  -41.9747 C.3       6 UNK         0.1400 
     43 CB          2.5701  -18.4457  -41.7161 C.3       6 UNK        -0.1800 
     44 N           1.9198  -16.7755  -43.4143 N.am      6 UNK        -0.5000 
     45 C           1.1369  -17.3376  -44.3496 C.2       5 UNK         0.5000 
     46 O           0.3058  -18.2161  -44.1135 O.2       5 UNK        -0.5000 
     47 CA          1.2876  -16.8188  -45.7923 C.3       5 UNK         0.1400 
     48 CB          0.1804  -15.7997  -46.1049 C.3       5 UNK        -0.1800 
     49 N           2.5945  -16.2090  -46.0503 N.am      5 UNK        -0.5000 
     50 C           3.7276  -16.9105  -46.2014 C.2       4 UNK         0.5000 
     51 O           3.7736  -18.1406  -46.1944 O.2       4 UNK        -0.5000 
     52 CA          5.0352  -16.1159  -46.3768 C.3       4 UNK         0.1400 
     53 CB          5.2804  -15.8111  -47.8627 C.3       4 UNK        -0.1800 
     54 N           5.0913  -14.8623  -45.6244 N.am      4 UNK        -0.5000 
     55 C           4.9864  -14.7121  -44.2982 C.2       3 UNK         0.5000 
     56 O           4.7706  -15.6427  -43.5226 O.2       3 UNK        -0.5000 
     57 CA          5.1107  -13.2802  -43.7344 C.3       3 UNK         0.1400 
     58 CB          6.5796  -12.9231  -43.4377 C.3       3 UNK        -0.1800 
     59 N           4.4529  -12.2497  -44.5514 N.am      3 UNK        -0.5000 
     60 C           4.7693  -11.8224  -45.7814 C.2       2 UNK         0.5000 
     61 O           5.7554  -12.1998  -46.4179 O.2       2 UNK        -0.5000 
     62 CA          3.7546  -10.8807  -46.4495 C.3       2 UNK         0.1400 
     63 CB          4.4155   -9.5586  -46.8691 C.3       2 UNK        -0.1800 
     64 N           3.1473  -11.5068  -47.6235 N.am      2 UNK        -0.5000 
     65 C           2.4534  -12.6536  -47.6448 C.2       1 UNK         0.5000 
     66 O           2.2489  -13.3505  -46.6495 O.2       1 UNK        -0.5000 
     67 C          -2.6441  -22.5089  -46.7794 C.2       11 UNK         0.5000 
     68 O          -2.9382  -23.2273  -47.7347 O.2       11 UNK        -0.5000 
     69 N          -3.0883  -22.7120  -45.5323 N.am      12 UNK        -0.5000 
     70 CA         -3.8860  -23.8642  -45.1208 C.3       12 UNK         0.1400 
     71 CB         -4.4441  -23.6265  -43.7098 C.3       12 UNK        -0.1800 
     72 C          -3.0850  -25.1766  -45.1882 C.2       12 UNK         0.5000 
     73 O          -3.5926  -26.1649  -45.7180 O.2       12 UNK        -0.5000 
     74 N          -1.8418  -25.1541  -44.6846 N.am      13 UNK        -0.5000 
     75 CA         -0.9266  -26.2986  -44.6724 C.3       13 UNK         0.1400 
     76 CB          0.3084  -25.9588  -43.8247 C.3       13 UNK        -0.1800 
     77 C          -0.5078  -26.7628  -46.0806 C.2       13 UNK         0.5000 
     78 O          -0.4803  -27.9662  -46.3404 O.2       13 UNK        -0.5000 
     79 N          -0.2106  -25.8041  -46.9679 N.am      14 UNK        -0.5000 
     80 CA          0.1607  -26.0456  -48.3648 C.3       14 UNK         0.1400 
     81 CB          0.9055  -24.8102  -48.8966 C.3       14 UNK        -0.1800 
     82 C          -1.0419  -26.3656  -49.2748 C.2       14 UNK         0.5000 
     83 O          -0.8338  -26.7838  -50.4139 O.2       14 UNK        -0.5000 
     84 N          -2.2640  -26.1233  -48.7769 N.am      15 UNK        -0.5000 
     85 CA         -3.5541  -26.1990  -49.4733 C.3       15 UNK         0.1400 
     86 CB         -3.8406  -27.6211  -49.9962 C.3       15 UNK        -0.1800 
     87 C          -3.7327  -25.1172  -50.5606 C.2       15 UNK         0.5000 
     88 O          -4.6510  -25.2124  -51.3759 O.2       15 UNK        -0.5000 
     89 N          -2.9016  -24.0666  -50.5160 N.am      16 UNK        -0.5000 
     90 CA         -2.9993  -22.8708  -51.3520 C.3       16 UNK         0.1400 
     91 CB         -1.7585  -21.9918  -51.1374 C.3       16 UNK        -0.1800 
     92 C          -4.2822  -22.0702  -51.0719 C.2       16 UNK         0.5000 
     93 O          -4.8395  -21.4856  -51.9990 O.2       16 UNK        -0.5000 
     94 N          -4.7529  -22.1029  -49.8154 N.am      17 UNK        -0.5000 
     95 CA         -6.0306  -21.5272  -49.3911 C.3       17 UNK         0.1400 
     96 CB         -6.1304  -21.5698  -47.8573 C.3       17 UNK        -0.1800 
     97 C          -7.2411  -22.2419  -50.0215 C.2       17 UNK         0.5000 
     98 O          -8.2072  -21.5801  -50.4001 O.2       17 UNK        -0.5000 
     99 N          -7.1574  -23.5751  -50.1359 N.am      18 UNK        -0.5000 
    100 CA        -8.1847  -24.4210  -50.7450 C.3       18 UNK         0.1400 
    101 CB        -7.9852  -25.8761  -50.2926 C.3       18 UNK        -0.1800 
    102 C         -8.1793  -24.3162  -52.2798 C.2       18 UNK         0.5000 
    103 O         -9.2469  -24.2618  -52.8910 O.2       18 UNK        -0.5000 
    104 N         -6.9772  -24.2643  -52.8701 N.am      19 UNK        -0.5000 
    105 CA        -6.7578  -24.0856  -54.3068 C.3       19 UNK         0.1400 
    106 CB        -5.2988  -24.4447  -54.6290 C.3       19 UNK        -0.1800 
    107 C         -7.0732  -22.6612  -54.8073 C.2       19 UNK         0.5000 
    108 O         -7.2784  -22.4811  -56.0082 O.2       19 UNK        -0.5000 
    109 N         -7.0771  -21.6848  -53.8870 N.am      20 UNK        -0.5000 
    110 CA        -7.1737  -20.2386  -54.1112 C.3       20 UNK         0.1400 
    111 CB        -8.5437  -19.8534  -54.7073 C.3       20 UNK        -0.1800 
    112 C         -5.9741  -19.7028  -54.9221 C.2       20 UNK         0.5000 
    113 O         -6.1409  -18.8652  -55.8111 O.2       20 UNK        -0.5000 
    114 N         -4.7811  -20.2203  -54.6051 N.am      21 UNK        -0.5000 
    115 CA        -3.5148  -19.8480  -55.2245 C.3       21 UNK         0.1400 
    116 CB        -2.5369  -21.0276  -55.1116 C.3       21 UNK        -0.1800 
    117 C         -2.9499  -18.5939  -54.5405 C.2       21 UNK         0.5000 
    118 O         -2.8481  -18.5785  -53.3123 O.2       21 UNK        -0.5000 
    119 N         -2.6128  -17.5843  -55.3549 N.am      22 UNK        -0.5000 
    120 CA        -2.0338  -16.2557  -55.0483 C.3       22 UNK         0.1400 
    121 C         -2.6612  -15.3838  -53.9152 C.2       22 UNK         0.5000 
    122 N         -3.4806  -15.9154  -53.0229 N.am      22 UNK        -0.7600 
    123 O         -2.4381  -14.1762  -53.8852 O.2       22 UNK        -0.5000 
    124 C124       -0.4745  -16.2229  -55.0570 C.3       23 UNK        -0.0398 
    125 S125        0.3857  -17.5193  -54.0963 S.3       23 UNK        -0.2404 
    126 C126        1.0973  -16.5892  -52.6994 C.3       23 UNK        -0.0205 
    127 H127        4.8096  -14.1559  -51.5789 H         1 UNK         0.0600 
    128 H128        5.8405  -12.7776  -51.1844 H         1 UNK         0.0600 
    129 H129        4.7037  -12.6737  -52.5332 H         1 UNK         0.0600 
    130 H130        3.1376  -14.3733  -50.1607 H         1 UNK         0.3000 
    131 H131        1.4475  -14.0858  -48.8550 H         1 UNK         0.0600 
    132 H132        1.0924  -11.1067  -49.4218 H         1 UNK         0.0800 
    133 H133        0.7277  -12.2728  -50.6442 H         1 UNK         0.0800 
    134 H134       -1.6106  -12.6230  -51.0780 H         1 UNK         0.0800 
    135 H135       -2.7871  -13.1987  -49.9321 H         1 UNK         0.0800 
    136 H136        0.1589  -14.1410  -51.9273 H         1 UNK         0.1150 
    137 H137       -0.3033  -18.3291  -51.1571 H         1 UNK         0.1150 
    138 H138       -2.6727  -15.4847  -48.9992 H         1 UNK         0.1150 
    139 H139       -2.3097  -19.0374  -49.9636 H         1 UNK         0.0800 
    140 H140       -3.3207  -17.8877  -49.1217 H         1 UNK         0.0800 
    141 H141       -3.2586  -20.2071  -48.0405 H         1 UNK         0.0800 
    142 H142       -3.1042  -19.7527  -46.3676 H         1 UNK         0.0800 
    143 H143       -1.1250  -21.5232  -47.9018 H         1 UNK         0.0600 
    144 H144       -0.8055  -20.3297  -45.3472 H         1 UNK         0.3000 
    145 H145        1.3826  -22.7583  -43.9469 H         1 UNK         0.0600 
    146 H146        2.9161  -21.4742  -45.3647 H         1 UNK         0.0600 
    147 H147        2.8550  -20.7376  -43.7730 H         1 UNK         0.0600 
    148 H148        1.9939  -20.0034  -45.1275 H         1 UNK         0.0600 
    149 H149        0.3111  -20.1499  -43.2013 H         1 UNK         0.3000 
    150 H150       -2.5204  -21.4935  -41.4761 H         1 UNK         0.0600 
    151 H151        0.1145  -20.4023  -40.3648 H         1 UNK         0.0600 
    152 H152       -0.7720  -21.8074  -39.7968 H         1 UNK         0.0600 
    153 H153       -1.4580  -20.2020  -39.5901 H         1 UNK         0.0600 
    154 H154       -1.4219  -18.8478  -41.7517 H         1 UNK         0.3000 
    155 H155       -2.4307  -18.0015  -44.7314 H         1 UNK         0.0600 
    156 H156       -4.9837  -17.7460  -43.0697 H         1 UNK         0.0600 
    157 H157       -4.8465  -18.3569  -44.7092 H         1 UNK         0.0600 
    158 H158       -4.5177  -16.6637  -44.3834 H         1 UNK         0.0600 
    159 H159       -1.3503  -16.6745  -43.3938 H         1 UNK         0.3000 
    160 H160       -1.7356  -14.5010  -41.6922 H         1 UNK         0.0600 
    161 H161       -1.4515  -16.1879  -39.1492 H         1 UNK         0.0600 
    162 H162       -2.5973  -14.8837  -39.4209 H         1 UNK         0.0600 
    163 H163       -0.8799  -14.5305  -39.3350 H         1 UNK         0.0600 
    164 H164        0.3486  -15.0880  -42.1927 H         1 UNK         0.3000 
    165 H165        2.5932  -16.3130  -41.5190 H         1 UNK         0.0600 
    166 H166        2.7164  -18.6145  -40.6487 H         1 UNK         0.0600 
    167 H167        1.9388  -19.2508  -42.0888 H         1 UNK         0.0600 
    168 H168        3.5448  -18.5325  -42.1966 H         1 UNK         0.0600 
    169 H169        2.6162  -16.1114  -43.7277 H         1 UNK         0.3000 
    170 H170        1.1625  -17.6724  -46.4617 H         1 UNK         0.0600 
    171 H171        0.2098  -15.4955  -47.1514 H         1 UNK         0.0600 
    172 H172        0.2710  -14.9027  -45.4914 H         1 UNK         0.0600 
    173 H173       -0.8081  -16.2227  -45.9227 H         1 UNK         0.0600 
    174 H174        2.6232  -15.1946  -46.1074 H         1 UNK         0.3000 
    175 H175        5.8505  -16.7467  -46.0172 H         1 UNK         0.0600 
    176 H176        5.2661  -16.7245  -48.4589 H         1 UNK         0.0600 
    177 H177        4.5182  -15.1432  -48.2635 H         1 UNK         0.0600 
    178 H178        6.2515  -15.3393  -48.0142 H         1 UNK         0.0600 
    179 H179        5.2890  -14.0215  -46.1588 H         1 UNK         0.3000 
    180 H180        4.5792  -13.2781  -42.7814 H         1 UNK         0.0600 
    181 H181        7.1976  -12.9456  -44.3355 H         1 UNK         0.0600 
    182 H182        7.0136  -13.6301  -42.7296 H         1 UNK         0.0600 
    183 H183        6.6628  -11.9296  -42.9971 H         1 UNK         0.0600 
    184 H184        3.5887  -11.9037  -44.1579 H         1 UNK         0.3000 
    185 H185        2.9548  -10.6535  -45.7419 H         1 UNK         0.0600 
    186 H186        4.8767   -9.0638  -46.0134 H         1 UNK         0.0600 
    187 H187        5.1939   -9.7171  -47.6169 H         1 UNK         0.0600 
    188 H188        3.6840   -8.8680  -47.2891 H         1 UNK         0.0600 
    189 H189        3.3413  -11.0720  -48.5205 H         1 UNK         0.3000 
    190 H190       -2.8774  -22.0248  -44.8153 H         1 UNK         0.3000 
    191 H191       -4.7308  -23.9541  -45.8067 H         1 UNK         0.0600 
    192 H192       -5.0657  -22.7314  -43.6795 H         1 UNK         0.0600 
    193 H193       -5.0631  -24.4648  -43.3881 H         1 UNK         0.0600 
    194 H194       -3.6484  -23.5036  -42.9746 H         1 UNK         0.0600 
    195 H195       -1.5135  -24.3074  -44.2320 H         1 UNK         0.3000 
    196 H196       -1.4459  -27.1304  -44.1921 H         1 UNK         0.0600 
    197 H197        0.9881  -26.8097  -43.7660 H         1 UNK         0.0600 
    198 H198        0.0272  -25.6961  -42.8047 H         1 UNK         0.0600 
    199 H199        0.8661  -25.1217  -44.2445 H         1 UNK         0.0600 
    200 H200       -0.1910  -24.8346  -46.6580 H         1 UNK         0.3000 
    201 H201        0.8410  -26.8987  -48.4052 H         1 UNK         0.0600 
    202 H202        1.2462  -24.9661  -49.9210 H         1 UNK         0.0600 
    203 H203        1.7859  -24.5903  -48.2925 H         1 UNK         0.0600 
    204 H204        0.2683  -23.9247  -48.8936 H         1 UNK         0.0600 
    205 H205       -2.3130  -25.7736  -47.8290 H         1 UNK         0.3000 
    206 H206       -4.3051  -25.9767  -48.7140 H         1 UNK         0.0600 
    207 H207       -3.7030  -28.3647  -49.2112 H         1 UNK         0.0600 
    208 H208       -4.8696  -27.7077  -50.3467 H         1 UNK         0.0600 
    209 H209       -3.1923  -27.8874  -50.8310 H         1 UNK         0.0600 
    210 H210       -2.2427  -24.0328  -49.7508 H         1 UNK         0.3000 
    211 H211       -3.0212  -23.1878  -52.3960 H         1 UNK         0.0600 
    212 H212       -0.8453  -22.5261  -51.3997 H         1 UNK         0.0600 
    213 H213       -1.8006  -21.0936  -51.7552 H         1 UNK         0.0600 
    214 H214       -1.6721  -21.6657  -50.1026 H         1 UNK         0.0600 
    215 H215       -4.2185  -22.6102  -49.1174 H         1 UNK         0.3000 
    216 H216       -6.0560  -20.4830  -49.7098 H         1 UNK         0.0600 
    217 H217       -6.0317  -22.5863  -47.4752 H         1 UNK         0.0600 
    218 H218       -7.0931  -21.1851  -47.5180 H         1 UNK         0.0600 
    219 H219       -5.3619  -20.9592  -47.3870 H         1 UNK         0.0600 
    220 H220       -6.3115  -24.0349  -49.8358 H         1 UNK         0.3000 
    221 H221       -9.1627  -24.0890  -50.3898 H         1 UNK         0.0600 
    222 H222       -7.0251  -26.2759  -50.6193 H         1 UNK         0.0600 
    223 H223       -8.0324  -25.9617  -49.2069 H         1 UNK         0.0600 
    224 H224       -8.7636  -26.5204  -50.7032 H         1 UNK         0.0600 
    225 H225       -6.1478  -24.3974  -52.2982 H         1 UNK         0.3000 
    226 H226       -7.4095  -24.7782  -54.8433 H         1 UNK         0.0600 
    227 H227       -5.0634  -25.4625  -54.3172 H         1 UNK         0.0600 
    228 H228       -5.1063  -24.3792  -55.7006 H         1 UNK         0.0600 
    229 H229       -4.6020  -23.7714  -54.1294 H         1 UNK         0.0600 
    230 H230       -6.8324  -21.9498  -52.9419 H         1 UNK         0.3000 
    231 H231       -7.1033  -19.7761  -53.1256 H         1 UNK         0.0600 
    232 H232       -8.6645  -20.2227  -55.7258 H         1 UNK         0.0600 
    233 H233       -8.6631  -18.7699  -54.7378 H         1 UNK         0.0600 
    234 H234       -9.3602  -20.2529  -54.1058 H         1 UNK         0.0600 
    235 H235       -4.7269  -20.8148  -53.7825 H         1 UNK         0.3000 
    236 H236       -3.6788  -19.6448  -56.2850 H         1 UNK         0.0600 
    237 H237       -2.3460  -21.2945  -54.0725 H         1 UNK         0.0600 
    238 H238       -2.9259  -21.9116  -55.6172 H         1 UNK         0.0600 
    239 H239       -1.5775  -20.7836  -55.5694 H         1 UNK         0.0600 
    240 H240       -2.7847  -17.7276  -56.3394 H         1 UNK         0.3000 
    241 H241       -2.3214  -15.6867  -55.9338 H         1 UNK         0.0600 
    242 H242       -3.8787  -15.3418  -52.2987 H         1 UNK         0.3800 
    243 H243       -3.5285  -16.9295  -52.9697 H         1 UNK         0.3800 
    244 H244       -0.1383  -16.3450  -56.0873 H         1 UNK         0.0800 
    245 H245       -0.1013  -15.2410  -54.7611 H         1 UNK         0.0800 
    246 H246        1.8819  -17.1936  -52.2423 H         1 UNK         0.0800 
    247 H247        1.5843  -15.6844  -53.0662 H         1 UNK         0.0800 
@<TRIPOS>BOND
     1    1    2 1    
     2    1  127 1    
     3    1  128 1    
     4    1  129 1    
     5    2    3 2    
     6    2    4 am   BACKBONE|DICT|INTERRES
     7    4    5 1    
     8    4  130 1    
     9    5    6 1    
    10    5   65 1    
    11    5  131 1    
    12    6    7 1    
    13    6  132 1    
    14    6  133 1    
    15    7    8 1    
    16    8    9 1    
    17    8  134 1    
    18    8  135 1    
    19    9   10 ar   
    20    9   14 ar   
    21   10   11 ar   
    22   10  136 1    
    23   11   12 ar   
    24   11  126 1    
    25   12   13 ar   
    26   12  137 1    
    27   13   14 ar   
    28   13   15 1    
    29   14  138 1    
    30   15   16 1    
    31   15  139 1    
    32   15  140 1    
    33   16   17 1    
    34   17   18 1    
    35   17  141 1    
    36   17  142 1    
    37   18   19 1    
    38   18   67 1    
    39   18  143 1    
    40   19   20 am   BACKBONE|DICT|INTERRES
    41   19  144 1    
    42   20   21 2    
    43   20   22 1    
    44   22   23 1    
    45   22   24 1    
    46   22  145 1    
    47   23  146 1    
    48   23  147 1    
    49   23  148 1    
    50   24   25 am   BACKBONE|DICT|INTERRES
    51   24  149 1    
    52   25   26 2    
    53   25   27 1    
    54   27   28 1    
    55   27   29 1    
    56   27  150 1    
    57   28  151 1    
    58   28  152 1    
    59   28  153 1    
    60   29   30 am   BACKBONE|DICT|INTERRES
    61   29  154 1    
    62   30   31 2    
    63   30   32 1    
    64   32   33 1    
    65   32   34 1    
    66   32  155 1    
    67   33  156 1    
    68   33  157 1    
    69   33  158 1    
    70   34   35 am   BACKBONE|DICT|INTERRES
    71   34  159 1    
    72   35   36 2    
    73   35   37 1    
    74   37   38 1    
    75   37   39 1    
    76   37  160 1    
    77   38  161 1    
    78   38  162 1    
    79   38  163 1    
    80   39   40 am   BACKBONE|DICT|INTERRES
    81   39  164 1    
    82   40   41 2    
    83   40   42 1    
    84   42   43 1    
    85   42   44 1    
    86   42  165 1    
    87   43  166 1    
    88   43  167 1    
    89   43  168 1    
    90   44   45 am   BACKBONE|DICT|INTERRES
    91   44  169 1    
    92   45   46 2    
    93   45   47 1    
    94   47   48 1    
    95   47   49 1    
    96   47  170 1    
    97   48  171 1    
    98   48  172 1    
    99   48  173 1    
   100   49   50 am   BACKBONE|DICT|INTERRES
   101   49  174 1    
   102   50   51 2    
   103   50   52 1    
   104   52   53 1    
   105   52   54 1    
   106   52  175 1    
   107   53  176 1    
   108   53  177 1    
   109   53  178 1    
   110   54   55 am   BACKBONE|DICT|INTERRES
   111   54  179 1    
   112   55   56 2    
   113   55   57 1    
   114   57   58 1    
   115   57   59 1    
   116   57  180 1    
   117   58  181 1    
   118   58  182 1    
   119   58  183 1    
   120   59   60 am   BACKBONE|DICT|INTERRES
   121   59  184 1    
   122   60   61 2    
   123   60   62 1    
   124   62   63 1    
   125   62   64 1    
   126   62  185 1    
   127   63  186 1    
   128   63  187 1    
   129   63  188 1    
   130   64   65 am   BACKBONE|DICT|INTERRES
   131   64  189 1    
   132   65   66 2    
   133   67   68 2    
   134   67   69 am   BACKBONE|DICT|INTERRES
   135   69   70 1    
   136   69  190 1    
   137   70   71 1    
   138   70   72 1    
   139   70  191 1    
   140   71  192 1    
   141   71  193 1    
   142   71  194 1    
   143   72   73 2    
   144   72   74 am   BACKBONE|DICT|INTERRES
   145   74   75 1    
   146   74  195 1    
   147   75   76 1    
   148   75   77 1    
   149   75  196 1    
   150   76  197 1    
   151   76  198 1    
   152   76  199 1    
   153   77   78 2    
   154   77   79 am   BACKBONE|DICT|INTERRES
   155   79   80 1    
   156   79  200 1    
   157   80   81 1    
   158   80   82 1    
   159   80  201 1    
   160   81  202 1    
   161   81  203 1    
   162   81  204 1    
   163   82   83 2    
   164   82   84 am   BACKBONE|DICT|INTERRES
   165   84   85 1    
   166   84  205 1    
   167   85   86 1    
   168   85   87 1    
   169   85  206 1    
   170   86  207 1    
   171   86  208 1    
   172   86  209 1    
   173   87   88 2    
   174   87   89 am   BACKBONE|DICT|INTERRES
   175   89   90 1    
   176   89  210 1    
   177   90   91 1    
   178   90   92 1    
   179   90  211 1    
   180   91  212 1    
   181   91  213 1    
   182   91  214 1    
   183   92   93 2    
   184   92   94 am   BACKBONE|DICT|INTERRES
   185   94   95 1    
   186   94  215 1    
   187   95   96 1    
   188   95   97 1    
   189   95  216 1    
   190   96  217 1    
   191   96  218 1    
   192   96  219 1    
   193   97   98 2    
   194   97   99 am   BACKBONE|DICT|INTERRES
   195   99  100 1    
   196   99  220 1    
   197  100  101 1    
   198  100  102 1    
   199  100  221 1    
   200  101  222 1    
   201  101  223 1    
   202  101  224 1    
   203  102  103 2    
   204  102  104 am   BACKBONE|DICT|INTERRES
   205  104  105 1    
   206  104  225 1    
   207  105  106 1    
   208  105  107 1    
   209  105  226 1    
   210  106  227 1    
   211  106  228 1    
   212  106  229 1    
   213  107  108 2    
   214  107  109 am   BACKBONE|DICT|INTERRES
   215  109  110 1    
   216  109  230 1    
   217  110  111 1    
   218  110  112 1    
   219  110  231 1    
   220  111  232 1    
   221  111  233 1    
   222  111  234 1    
   223  112  113 2    
   224  112  114 am   BACKBONE|DICT|INTERRES
   225  114  115 1    
   226  114  235 1    
   227  115  116 1    
   228  115  117 1    
   229  115  236 1    
   230  116  237 1    
   231  116  238 1    
   232  116  239 1    
   233  117  118 2    
   234  117  119 am   BACKBONE|DICT|INTERRES
   235  119  120 1    
   236  119  240 1    
   237  120  121 1    
   238  120  124 1    
   239  120  241 1    
   240  121  122 am   BACKBONE|DICT|INTERRES
   241  121  123 2    
   242  122  242 1    
   243  122  243 1    
   244  124  125 1    
   245  124  244 1    
   246  124  245 1    
   247  125  126 1    
   248  126  246 1    
   249  126  247 1    
@<TRIPOS>SUBSTRUCTURE
     1 UNK         1 GROUP             0       ****    0 ROOT    
